MODEL 1
REMARK VINA RESULT:    -8.617      0.000      0.000
REMARK INTER + INTRA:         -11.502
REMARK INTER:                 -11.136
REMARK INTRA:                  -0.366
REMARK UNBOUND:                -0.366
REMARK  Name = 
REMARK  5 active torsions:
REMARK  status: ('A' for Active; 'I' for Inactive)
REMARK    1  A    between atoms: C_2  and  C_18
REMARK    2  A    between atoms: N_3  and  C_4
REMARK    3  A    between atoms: C_4  and  C_5
REMARK    4  A    between atoms: C_8  and  O_9
REMARK    5  A    between atoms: O_9  and  C_10
REMARK                            x       y       z     vdW  Elec       q    Type
REMARK                         _______ _______ _______ _____ _____    ______ ____
ROOT
ATOM      1  O   UNL     1      46.981   3.290  13.938  0.00  0.00    +0.000 OA
ATOM      2  C   UNL     1      46.787   4.457  14.235  0.00  0.00    +0.000 C 
ATOM      3  N   UNL     1      45.642   5.163  13.933  0.00  0.00    +0.000 N 
ATOM      4  H   UNL     1      45.446   5.981  14.484  0.00  0.00    +0.000 HD
ENDROOT
BRANCH   2   5
ATOM      5  C   UNL     1      47.620   5.208  15.166  0.00  0.00    +0.000 A 
ATOM      6  C   UNL     1      48.212   6.409  14.819  0.00  0.00    +0.000 A 
ATOM      7  S   UNL     1      49.608   6.703  15.772  0.00  0.00    +0.000 S 
ATOM      8  C   UNL     1      49.303   5.335  16.746  0.00  0.00    +0.000 A 
ATOM      9  N   UNL     1      50.187   4.885  17.674  0.00  0.00    +0.000 NA
ATOM     10  C   UNL     1      49.758   3.883  18.371  0.00  0.00    +0.000 A 
ATOM     11  N   UNL     1      48.507   3.322  18.260  0.00  0.00    +0.000 N 
ATOM     12  C   UNL     1      47.576   3.739  17.332  0.00  0.00    +0.000 A 
ATOM     13  O   UNL     1      46.444   3.284  17.293  0.00  0.00    +0.000 OA
ATOM     14  C   UNL     1      48.079   4.776  16.447  0.00  0.00    +0.000 A 
ATOM     15  H   UNL     1      48.201   2.609  18.907  0.00  0.00    +0.000 HD
ENDBRANCH   2   5
BRANCH   3  16
ATOM     16  C   UNL     1      44.497   4.504  13.372  0.00  0.00    +0.000 C 
BRANCH  16  17
ATOM     17  C   UNL     1      44.655   4.352  11.882  0.00  0.00    +0.000 A 
ATOM     18  C   UNL     1      44.088   3.257  11.220  0.00  0.00    +0.000 A 
ATOM     19  C   UNL     1      44.193   3.137   9.834  0.00  0.00    +0.000 A 
ATOM     20  C   UNL     1      44.853   4.117   9.088  0.00  0.00    +0.000 A 
ATOM     21  C   UNL     1      45.487   5.170   9.749  0.00  0.00    +0.000 A 
ATOM     22  C   UNL     1      45.393   5.285  11.139  0.00  0.00    +0.000 A 
BRANCH  20  23
ATOM     23  O   UNL     1      44.989   4.082   7.718  0.00  0.00    +0.000 OA
BRANCH  23  24
ATOM     24  C   UNL     1      45.967   3.256   7.178  0.00  0.00    +0.000 A 
ATOM     25  N   UNL     1      46.313   2.124   7.819  0.00  0.00    +0.000 NA
ATOM     26  C   UNL     1      47.311   1.410   7.272  0.00  0.00    +0.000 A 
ATOM     27  C   UNL     1      47.937   1.762   6.102  0.00  0.00    +0.000 A 
ATOM     28  C   UNL     1      47.474   2.911   5.504  0.00  0.00    +0.000 A 
ATOM     29  N   UNL     1      46.494   3.678   6.016  0.00  0.00    +0.000 NA
ENDBRANCH  23  24
ENDBRANCH  20  23
ENDBRANCH  16  17
ENDBRANCH   3  16
TORSDOF 5
ENDMDL
MODEL 2
REMARK VINA RESULT:    -7.915      2.083      2.857
REMARK INTER + INTRA:         -10.594
REMARK INTER:                  -9.875
REMARK INTRA:                  -0.719
REMARK UNBOUND:                -0.366
REMARK  Name = 
REMARK  5 active torsions:
REMARK  status: ('A' for Active; 'I' for Inactive)
REMARK    1  A    between atoms: C_2  and  C_18
REMARK    2  A    between atoms: N_3  and  C_4
REMARK    3  A    between atoms: C_4  and  C_5
REMARK    4  A    between atoms: C_8  and  O_9
REMARK    5  A    between atoms: O_9  and  C_10
REMARK                            x       y       z     vdW  Elec       q    Type
REMARK                         _______ _______ _______ _____ _____    ______ ____
ROOT
ATOM      1  O   UNL     1      49.457   7.034  13.738  0.00  0.00    +0.000 OA
ATOM      2  C   UNL     1      48.620   7.263  14.596  0.00  0.00    +0.000 C 
ATOM      3  N   UNL     1      47.484   8.018  14.401  0.00  0.00    +0.000 N 
ATOM      4  H   UNL     1      46.722   7.880  15.044  0.00  0.00    +0.000 HD
ENDROOT
BRANCH   2   5
ATOM      5  C   UNL     1      48.562   6.572  15.878  0.00  0.00    +0.000 A 
ATOM      6  C   UNL     1      49.086   7.123  17.034  0.00  0.00    +0.000 A 
ATOM      7  S   UNL     1      49.496   5.899  18.165  0.00  0.00    +0.000 S 
ATOM      8  C   UNL     1      48.809   4.682  17.187  0.00  0.00    +0.000 A 
ATOM      9  N   UNL     1      48.938   3.359  17.465  0.00  0.00    +0.000 NA
ATOM     10  C   UNL     1      48.289   2.583  16.658  0.00  0.00    +0.000 A 
ATOM     11  N   UNL     1      47.482   3.010  15.631  0.00  0.00    +0.000 N 
ATOM     12  C   UNL     1      47.321   4.340  15.305  0.00  0.00    +0.000 A 
ATOM     13  O   UNL     1      46.544   4.712  14.439  0.00  0.00    +0.000 OA
ATOM     14  C   UNL     1      48.141   5.228  16.111  0.00  0.00    +0.000 A 
ATOM     15  H   UNL     1      46.923   2.354  15.104  0.00  0.00    +0.000 HD
ENDBRANCH   2   5
BRANCH   3  16
ATOM     16  C   UNL     1      47.113   8.467  13.089  0.00  0.00    +0.000 C 
BRANCH  16  17
ATOM     17  C   UNL     1      46.285   7.422  12.390  0.00  0.00    +0.000 A 
ATOM     18  C   UNL     1      44.945   7.229  12.745  0.00  0.00    +0.000 A 
ATOM     19  C   UNL     1      44.162   6.293  12.068  0.00  0.00    +0.000 A 
ATOM     20  C   UNL     1      44.703   5.547  11.017  0.00  0.00    +0.000 A 
ATOM     21  C   UNL     1      46.057   5.678  10.710  0.00  0.00    +0.000 A 
ATOM     22  C   UNL     1      46.846   6.606  11.396  0.00  0.00    +0.000 A 
BRANCH  20  23
ATOM     23  O   UNL     1      43.995   4.616  10.290  0.00  0.00    +0.000 OA
BRANCH  23  24
ATOM     24  C   UNL     1      44.697   3.798   9.413  0.00  0.00    +0.000 A 
ATOM     25  N   UNL     1      44.862   2.494   9.705  0.00  0.00    +0.000 NA
ATOM     26  C   UNL     1      45.607   1.781   8.844  0.00  0.00    +0.000 A 
ATOM     27  C   UNL     1      46.149   2.308   7.698  0.00  0.00    +0.000 A 
ATOM     28  C   UNL     1      45.880   3.638   7.471  0.00  0.00    +0.000 A 
ATOM     29  N   UNL     1      45.159   4.407   8.309  0.00  0.00    +0.000 NA
ENDBRANCH  23  24
ENDBRANCH  20  23
ENDBRANCH  16  17
ENDBRANCH   3  16
TORSDOF 5
ENDMDL
MODEL 3
REMARK VINA RESULT:    -7.878      1.897      3.038
REMARK INTER + INTRA:         -10.547
REMARK INTER:                  -9.668
REMARK INTRA:                  -0.879
REMARK UNBOUND:                -0.366
REMARK  Name = 
REMARK  5 active torsions:
REMARK  status: ('A' for Active; 'I' for Inactive)
REMARK    1  A    between atoms: C_2  and  C_18
REMARK    2  A    between atoms: N_3  and  C_4
REMARK    3  A    between atoms: C_4  and  C_5
REMARK    4  A    between atoms: C_8  and  O_9
REMARK    5  A    between atoms: O_9  and  C_10
REMARK                            x       y       z     vdW  Elec       q    Type
REMARK                         _______ _______ _______ _____ _____    ______ ____
ROOT
ATOM      1  O   UNL     1      46.614   3.915  14.420  0.00  0.00    +0.000 OA
ATOM      2  C   UNL     1      46.909   5.093  14.292  0.00  0.00    +0.000 C 
ATOM      3  N   UNL     1      46.123   6.034  13.664  0.00  0.00    +0.000 N 
ATOM      4  H   UNL     1      46.290   7.000  13.889  0.00  0.00    +0.000 HD
ENDROOT
BRANCH   2   5
ATOM      5  C   UNL     1      48.012   5.735  14.996  0.00  0.00    +0.000 A 
ATOM      6  C   UNL     1      48.347   5.403  16.296  0.00  0.00    +0.000 A 
ATOM      7  S   UNL     1      49.153   6.704  17.073  0.00  0.00    +0.000 S 
ATOM      8  C   UNL     1      49.209   7.610  15.628  0.00  0.00    +0.000 A 
ATOM      9  N   UNL     1      49.625   8.901  15.590  0.00  0.00    +0.000 NA
ATOM     10  C   UNL     1      49.673   9.406  14.400  0.00  0.00    +0.000 A 
ATOM     11  N   UNL     1      49.391   8.724  13.240  0.00  0.00    +0.000 N 
ATOM     12  C   UNL     1      48.960   7.414  13.226  0.00  0.00    +0.000 A 
ATOM     13  O   UNL     1      48.785   6.795  12.188  0.00  0.00    +0.000 OA
ATOM     14  C   UNL     1      48.771   6.861  14.556  0.00  0.00    +0.000 A 
ATOM     15  H   UNL     1      49.548   9.149  12.338  0.00  0.00    +0.000 HD
ENDBRANCH   2   5
BRANCH   3  16
ATOM     16  C   UNL     1      44.786   5.717  13.247  0.00  0.00    +0.000 C 
BRANCH  16  17
ATOM     17  C   UNL     1      44.772   5.299  11.800  0.00  0.00    +0.000 A 
ATOM     18  C   UNL     1      45.739   5.787  10.914  0.00  0.00    +0.000 A 
ATOM     19  C   UNL     1      45.756   5.367   9.584  0.00  0.00    +0.000 A 
ATOM     20  C   UNL     1      44.817   4.440   9.124  0.00  0.00    +0.000 A 
ATOM     21  C   UNL     1      43.803   4.009   9.980  0.00  0.00    +0.000 A 
ATOM     22  C   UNL     1      43.777   4.440  11.310  0.00  0.00    +0.000 A 
BRANCH  20  23
ATOM     23  O   UNL     1      44.774   3.963   7.833  0.00  0.00    +0.000 OA
BRANCH  23  24
ATOM     24  C   UNL     1      45.791   3.115   7.413  0.00  0.00    +0.000 A 
ATOM     25  N   UNL     1      45.984   1.942   8.044  0.00  0.00    +0.000 NA
ATOM     26  C   UNL     1      47.026   1.204   7.627  0.00  0.00    +0.000 A 
ATOM     27  C   UNL     1      47.844   1.574   6.588  0.00  0.00    +0.000 A 
ATOM     28  C   UNL     1      47.530   2.768   5.981  0.00  0.00    +0.000 A 
ATOM     29  N   UNL     1      46.513   3.559   6.371  0.00  0.00    +0.000 NA
ENDBRANCH  23  24
ENDBRANCH  20  23
ENDBRANCH  16  17
ENDBRANCH   3  16
TORSDOF 5
ENDMDL
MODEL 4
REMARK VINA RESULT:    -7.458      3.078      3.410
REMARK INTER + INTRA:         -10.005
REMARK INTER:                  -9.179
REMARK INTRA:                  -0.826
REMARK UNBOUND:                -0.366
REMARK  Name = 
REMARK  5 active torsions:
REMARK  status: ('A' for Active; 'I' for Inactive)
REMARK    1  A    between atoms: C_2  and  C_18
REMARK    2  A    between atoms: N_3  and  C_4
REMARK    3  A    between atoms: C_4  and  C_5
REMARK    4  A    between atoms: C_8  and  O_9
REMARK    5  A    between atoms: O_9  and  C_10
REMARK                            x       y       z     vdW  Elec       q    Type
REMARK                         _______ _______ _______ _____ _____    ______ ____
ROOT
ATOM      1  O   UNL     1      45.659   8.823  13.211  0.00  0.00    +0.000 OA
ATOM      2  C   UNL     1      46.559   8.001  13.269  0.00  0.00    +0.000 C 
ATOM      3  N   UNL     1      46.373   6.636  13.323  0.00  0.00    +0.000 N 
ATOM      4  H   UNL     1      47.145   6.054  13.045  0.00  0.00    +0.000 HD
ENDROOT
BRANCH   2   5
ATOM      5  C   UNL     1      47.963   8.317  13.038  0.00  0.00    +0.000 A 
ATOM      6  C   UNL     1      48.513   8.340  11.769  0.00  0.00    +0.000 A 
ATOM      7  S   UNL     1      50.204   8.055  11.828  0.00  0.00    +0.000 S 
ATOM      8  C   UNL     1      50.210   8.089  13.534  0.00  0.00    +0.000 A 
ATOM      9  N   UNL     1      51.303   7.761  14.269  0.00  0.00    +0.000 NA
ATOM     10  C   UNL     1      51.150   7.916  15.544  0.00  0.00    +0.000 A 
ATOM     11  N   UNL     1      50.021   8.417  16.148  0.00  0.00    +0.000 N 
ATOM     12  C   UNL     1      48.884   8.761  15.448  0.00  0.00    +0.000 A 
ATOM     13  O   UNL     1      47.916   9.274  15.985  0.00  0.00    +0.000 OA
ATOM     14  C   UNL     1      48.981   8.473  14.027  0.00  0.00    +0.000 A 
ATOM     15  H   UNL     1      50.007   8.609  17.140  0.00  0.00    +0.000 HD
ENDBRANCH   2   5
BRANCH   3  16
ATOM     16  C   UNL     1      45.069   6.063  13.145  0.00  0.00    +0.000 C 
BRANCH  16  17
ATOM     17  C   UNL     1      44.967   5.396  11.799  0.00  0.00    +0.000 A 
ATOM     18  C   UNL     1      44.106   4.308  11.614  0.00  0.00    +0.000 A 
ATOM     19  C   UNL     1      43.974   3.716  10.357  0.00  0.00    +0.000 A 
ATOM     20  C   UNL     1      44.690   4.213   9.264  0.00  0.00    +0.000 A 
ATOM     21  C   UNL     1      45.607   5.246   9.457  0.00  0.00    +0.000 A 
ATOM     22  C   UNL     1      45.749   5.831  10.719  0.00  0.00    +0.000 A 
BRANCH  20  23
ATOM     23  O   UNL     1      44.606   3.697   7.990  0.00  0.00    +0.000 OA
BRANCH  23  24
ATOM     24  C   UNL     1      45.729   3.074   7.460  0.00  0.00    +0.000 A 
ATOM     25  N   UNL     1      46.392   3.651   6.439  0.00  0.00    +0.000 NA
ATOM     26  C   UNL     1      47.428   2.960   5.935  0.00  0.00    +0.000 A 
ATOM     27  C   UNL     1      47.844   1.751   6.435  0.00  0.00    +0.000 A 
ATOM     28  C   UNL     1      47.126   1.274   7.509  0.00  0.00    +0.000 A 
ATOM     29  N   UNL     1      46.067   1.911   8.041  0.00  0.00    +0.000 NA
ENDBRANCH  23  24
ENDBRANCH  20  23
ENDBRANCH  16  17
ENDBRANCH   3  16
TORSDOF 5
ENDMDL
MODEL 5
REMARK VINA RESULT:    -7.116      3.217      4.131
REMARK INTER + INTRA:          -9.562
REMARK INTER:                  -8.798
REMARK INTRA:                  -0.764
REMARK UNBOUND:                -0.366
REMARK  Name = 
REMARK  5 active torsions:
REMARK  status: ('A' for Active; 'I' for Inactive)
REMARK    1  A    between atoms: C_2  and  C_18
REMARK    2  A    between atoms: N_3  and  C_4
REMARK    3  A    between atoms: C_4  and  C_5
REMARK    4  A    between atoms: C_8  and  O_9
REMARK    5  A    between atoms: O_9  and  C_10
REMARK                            x       y       z     vdW  Elec       q    Type
REMARK                         _______ _______ _______ _____ _____    ______ ____
ROOT
ATOM      1  O   UNL     1      46.827   9.455  12.975  0.00  0.00    +0.000 OA
ATOM      2  C   UNL     1      47.083   8.377  13.489  0.00  0.00    +0.000 C 
ATOM      3  N   UNL     1      46.231   7.294  13.504  0.00  0.00    +0.000 N 
ATOM      4  H   UNL     1      46.641   6.387  13.652  0.00  0.00    +0.000 HD
ENDROOT
BRANCH   2   5
ATOM      5  C   UNL     1      48.413   7.989  13.941  0.00  0.00    +0.000 A 
ATOM      6  C   UNL     1      48.711   7.807  15.279  0.00  0.00    +0.000 A 
ATOM      7  S   UNL     1      50.386   8.037  15.573  0.00  0.00    +0.000 S 
ATOM      8  C   UNL     1      50.716   8.191  13.906  0.00  0.00    +0.000 A 
ATOM      9  N   UNL     1      51.934   8.560  13.432  0.00  0.00    +0.000 NA
ATOM     10  C   UNL     1      52.024   8.552  12.141  0.00  0.00    +0.000 A 
ATOM     11  N   UNL     1      51.025   8.160  11.282  0.00  0.00    +0.000 N 
ATOM     12  C   UNL     1      49.770   7.781  11.712  0.00  0.00    +0.000 A 
ATOM     13  O   UNL     1      48.915   7.364  10.947  0.00  0.00    +0.000 OA
ATOM     14  C   UNL     1      49.599   7.907  13.150  0.00  0.00    +0.000 A 
ATOM     15  H   UNL     1      51.196   8.080  10.290  0.00  0.00    +0.000 HD
ENDBRANCH   2   5
BRANCH   3  16
ATOM     16  C   UNL     1      45.009   7.307  12.752  0.00  0.00    +0.000 C 
BRANCH  16  17
ATOM     17  C   UNL     1      44.854   6.024  11.979  0.00  0.00    +0.000 A 
ATOM     18  C   UNL     1      43.842   5.896  11.020  0.00  0.00    +0.000 A 
ATOM     19  C   UNL     1      43.722   4.725  10.270  0.00  0.00    +0.000 A 
ATOM     20  C   UNL     1      44.623   3.672  10.457  0.00  0.00    +0.000 A 
ATOM     21  C   UNL     1      45.584   3.762  11.464  0.00  0.00    +0.000 A 
ATOM     22  C   UNL     1      45.696   4.930  12.224  0.00  0.00    +0.000 A 
BRANCH  20  23
ATOM     23  O   UNL     1      44.583   2.491   9.749  0.00  0.00    +0.000 OA
BRANCH  23  24
ATOM     24  C   UNL     1      45.448   2.344   8.671  0.00  0.00    +0.000 A 
ATOM     25  N   UNL     1      46.006   1.144   8.424  0.00  0.00    +0.000 NA
ATOM     26  C   UNL     1      46.882   1.092   7.407  0.00  0.00    +0.000 A 
ATOM     27  C   UNL     1      47.182   2.172   6.613  0.00  0.00    +0.000 A 
ATOM     28  C   UNL     1      46.519   3.338   6.923  0.00  0.00    +0.000 A 
ATOM     29  N   UNL     1      45.649   3.454   7.943  0.00  0.00    +0.000 NA
ENDBRANCH  23  24
ENDBRANCH  20  23
ENDBRANCH  16  17
ENDBRANCH   3  16
TORSDOF 5
ENDMDL
MODEL 6
REMARK VINA RESULT:    -7.112      2.488      8.547
REMARK INTER + INTRA:          -9.557
REMARK INTER:                  -8.981
REMARK INTRA:                  -0.576
REMARK UNBOUND:                -0.366
REMARK  Name = 
REMARK  5 active torsions:
REMARK  status: ('A' for Active; 'I' for Inactive)
REMARK    1  A    between atoms: C_2  and  C_18
REMARK    2  A    between atoms: N_3  and  C_4
REMARK    3  A    between atoms: C_4  and  C_5
REMARK    4  A    between atoms: C_8  and  O_9
REMARK    5  A    between atoms: O_9  and  C_10
REMARK                            x       y       z     vdW  Elec       q    Type
REMARK                         _______ _______ _______ _____ _____    ______ ____
ROOT
ATOM      1  O   UNL     1      44.438   6.900  12.579  0.00  0.00    +0.000 OA
ATOM      2  C   UNL     1      44.990   6.068  11.877  0.00  0.00    +0.000 C 
ATOM      3  N   UNL     1      46.351   5.991  11.677  0.00  0.00    +0.000 N 
ATOM      4  H   UNL     1      46.722   5.110  11.362  0.00  0.00    +0.000 HD
ENDROOT
BRANCH   2   5
ATOM      5  C   UNL     1      44.327   4.884  11.346  0.00  0.00    +0.000 A 
ATOM      6  C   UNL     1      43.335   4.221  12.046  0.00  0.00    +0.000 A 
ATOM      7  S   UNL     1      43.233   2.579  11.558  0.00  0.00    +0.000 S 
ATOM      8  C   UNL     1      44.370   2.819  10.308  0.00  0.00    +0.000 A 
ATOM      9  N   UNL     1      44.880   1.795   9.576  0.00  0.00    +0.000 NA
ATOM     10  C   UNL     1      45.670   2.169   8.623  0.00  0.00    +0.000 A 
ATOM     11  N   UNL     1      45.957   3.474   8.301  0.00  0.00    +0.000 N 
ATOM     12  C   UNL     1      45.468   4.549   9.015  0.00  0.00    +0.000 A 
ATOM     13  O   UNL     1      45.669   5.704   8.676  0.00  0.00    +0.000 OA
ATOM     14  C   UNL     1      44.683   4.154  10.172  0.00  0.00    +0.000 A 
ATOM     15  H   UNL     1      46.500   3.698   7.480  0.00  0.00    +0.000 HD
ENDBRANCH   2   5
BRANCH   3  16
ATOM     16  C   UNL     1      47.255   6.809  12.434  0.00  0.00    +0.000 C 
BRANCH  16  17
ATOM     17  C   UNL     1      47.602   6.142  13.738  0.00  0.00    +0.000 A 
ATOM     18  C   UNL     1      48.514   6.740  14.616  0.00  0.00    +0.000 A 
ATOM     19  C   UNL     1      48.804   6.147  15.846  0.00  0.00    +0.000 A 
ATOM     20  C   UNL     1      48.175   4.957  16.222  0.00  0.00    +0.000 A 
ATOM     21  C   UNL     1      47.326   4.315  15.319  0.00  0.00    +0.000 A 
ATOM     22  C   UNL     1      47.045   4.902  14.082  0.00  0.00    +0.000 A 
BRANCH  20  23
ATOM     23  O   UNL     1      48.394   4.316  17.421  0.00  0.00    +0.000 OA
BRANCH  23  24
ATOM     24  C   UNL     1      49.611   3.672  17.608  0.00  0.00    +0.000 A 
ATOM     25  N   UNL     1      50.557   4.245  18.376  0.00  0.00    +0.000 NA
ATOM     26  C   UNL     1      51.731   3.598  18.457  0.00  0.00    +0.000 A 
ATOM     27  C   UNL     1      51.975   2.395  17.841  0.00  0.00    +0.000 A 
ATOM     28  C   UNL     1      50.925   1.875  17.120  0.00  0.00    +0.000 A 
ATOM     29  N   UNL     1      49.734   2.489  16.985  0.00  0.00    +0.000 NA
ENDBRANCH  23  24
ENDBRANCH  20  23
ENDBRANCH  16  17
ENDBRANCH   3  16
TORSDOF 5
ENDMDL
MODEL 7
REMARK VINA RESULT:    -7.098      3.289      8.165
REMARK INTER + INTRA:          -9.539
REMARK INTER:                  -8.759
REMARK INTRA:                  -0.781
REMARK UNBOUND:                -0.366
REMARK  Name = 
REMARK  5 active torsions:
REMARK  status: ('A' for Active; 'I' for Inactive)
REMARK    1  A    between atoms: C_2  and  C_18
REMARK    2  A    between atoms: N_3  and  C_4
REMARK    3  A    between atoms: C_4  and  C_5
REMARK    4  A    between atoms: C_8  and  O_9
REMARK    5  A    between atoms: O_9  and  C_10
REMARK                            x       y       z     vdW  Elec       q    Type
REMARK                         _______ _______ _______ _____ _____    ______ ____
ROOT
ATOM      1  O   UNL     1      44.573   7.735  11.673  0.00  0.00    +0.000 OA
ATOM      2  C   UNL     1      45.569   7.107  11.348  0.00  0.00    +0.000 C 
ATOM      3  N   UNL     1      46.860   7.463  11.671  0.00  0.00    +0.000 N 
ATOM      4  H   UNL     1      47.558   6.739  11.646  0.00  0.00    +0.000 HD
ENDROOT
BRANCH   2   5
ATOM      5  C   UNL     1      45.533   5.761  10.791  0.00  0.00    +0.000 A 
ATOM      6  C   UNL     1      45.872   5.501   9.475  0.00  0.00    +0.000 A 
ATOM      7  S   UNL     1      45.117   4.064   8.919  0.00  0.00    +0.000 S 
ATOM      8  C   UNL     1      44.506   3.714  10.473  0.00  0.00    +0.000 A 
ATOM      9  N   UNL     1      43.629   2.703  10.705  0.00  0.00    +0.000 NA
ATOM     10  C   UNL     1      43.332   2.536  11.953  0.00  0.00    +0.000 A 
ATOM     11  N   UNL     1      43.870   3.252  12.995  0.00  0.00    +0.000 N 
ATOM     12  C   UNL     1      44.760   4.291  12.813  0.00  0.00    +0.000 A 
ATOM     13  O   UNL     1      45.288   4.870  13.749  0.00  0.00    +0.000 OA
ATOM     14  C   UNL     1      45.011   4.587  11.413  0.00  0.00    +0.000 A 
ATOM     15  H   UNL     1      43.672   3.001  13.953  0.00  0.00    +0.000 HD
ENDBRANCH   2   5
BRANCH   3  16
ATOM     16  C   UNL     1      47.121   8.544  12.578  0.00  0.00    +0.000 C 
BRANCH  16  17
ATOM     17  C   UNL     1      47.790   8.034  13.827  0.00  0.00    +0.000 A 
ATOM     18  C   UNL     1      48.103   8.913  14.870  0.00  0.00    +0.000 A 
ATOM     19  C   UNL     1      48.683   8.437  16.047  0.00  0.00    +0.000 A 
ATOM     20  C   UNL     1      48.942   7.073  16.204  0.00  0.00    +0.000 A 
ATOM     21  C   UNL     1      48.706   6.202  15.139  0.00  0.00    +0.000 A 
ATOM     22  C   UNL     1      48.137   6.681  13.955  0.00  0.00    +0.000 A 
BRANCH  20  23
ATOM     23  O   UNL     1      49.497   6.520  17.337  0.00  0.00    +0.000 OA
BRANCH  23  24
ATOM     24  C   UNL     1      49.499   5.136  17.458  0.00  0.00    +0.000 A 
ATOM     25  N   UNL     1      50.630   4.447  17.221  0.00  0.00    +0.000 NA
ATOM     26  C   UNL     1      50.540   3.109  17.292  0.00  0.00    +0.000 A 
ATOM     27  C   UNL     1      49.385   2.447  17.629  0.00  0.00    +0.000 A 
ATOM     28  C   UNL     1      48.299   3.249  17.898  0.00  0.00    +0.000 A 
ATOM     29  N   UNL     1      48.325   4.592  17.820  0.00  0.00    +0.000 NA
ENDBRANCH  23  24
ENDBRANCH  20  23
ENDBRANCH  16  17
ENDBRANCH   3  16
TORSDOF 5
ENDMDL
MODEL 8
REMARK VINA RESULT:    -6.902      2.535      3.580
REMARK INTER + INTRA:          -9.286
REMARK INTER:                  -8.655
REMARK INTRA:                  -0.631
REMARK UNBOUND:                -0.366
REMARK  Name = 
REMARK  5 active torsions:
REMARK  status: ('A' for Active; 'I' for Inactive)
REMARK    1  A    between atoms: C_2  and  C_18
REMARK    2  A    between atoms: N_3  and  C_4
REMARK    3  A    between atoms: C_4  and  C_5
REMARK    4  A    between atoms: C_8  and  O_9
REMARK    5  A    between atoms: O_9  and  C_10
REMARK                            x       y       z     vdW  Elec       q    Type
REMARK                         _______ _______ _______ _____ _____    ______ ____
ROOT
ATOM      1  O   UNL     1      48.852   7.929  16.791  0.00  0.00    +0.000 OA
ATOM      2  C   UNL     1      48.584   6.751  16.619  0.00  0.00    +0.000 C 
ATOM      3  N   UNL     1      48.130   6.216  15.433  0.00  0.00    +0.000 N 
ATOM      4  H   UNL     1      48.248   5.226  15.298  0.00  0.00    +0.000 HD
ENDROOT
BRANCH   2   5
ATOM      5  C   UNL     1      48.938   5.692  17.556  0.00  0.00    +0.000 A 
ATOM      6  C   UNL     1      47.981   4.977  18.254  0.00  0.00    +0.000 A 
ATOM      7  S   UNL     1      48.632   4.335  19.706  0.00  0.00    +0.000 S 
ATOM      8  C   UNL     1      50.206   4.855  19.299  0.00  0.00    +0.000 A 
ATOM      9  N   UNL     1      51.249   4.778  20.164  0.00  0.00    +0.000 NA
ATOM     10  C   UNL     1      52.382   5.147  19.661  0.00  0.00    +0.000 A 
ATOM     11  N   UNL     1      52.578   5.537  18.358  0.00  0.00    +0.000 N 
ATOM     12  C   UNL     1      51.552   5.636  17.441  0.00  0.00    +0.000 A 
ATOM     13  O   UNL     1      51.749   5.912  16.268  0.00  0.00    +0.000 OA
ATOM     14  C   UNL     1      50.247   5.354  18.015  0.00  0.00    +0.000 A 
ATOM     15  H   UNL     1      53.508   5.714  18.004  0.00  0.00    +0.000 HD
ENDBRANCH   2   5
BRANCH   3  16
ATOM     16  C   UNL     1      48.094   7.004  14.235  0.00  0.00    +0.000 C 
BRANCH  16  17
ATOM     17  C   UNL     1      47.206   6.357  13.205  0.00  0.00    +0.000 A 
ATOM     18  C   UNL     1      46.499   5.189  13.516  0.00  0.00    +0.000 A 
ATOM     19  C   UNL     1      45.641   4.611  12.580  0.00  0.00    +0.000 A 
ATOM     20  C   UNL     1      45.465   5.201  11.325  0.00  0.00    +0.000 A 
ATOM     21  C   UNL     1      46.224   6.319  10.980  0.00  0.00    +0.000 A 
ATOM     22  C   UNL     1      47.094   6.891  11.913  0.00  0.00    +0.000 A 
BRANCH  20  23
ATOM     23  O   UNL     1      44.627   4.703  10.352  0.00  0.00    +0.000 OA
BRANCH  23  24
ATOM     24  C   UNL     1      45.180   3.907   9.356  0.00  0.00    +0.000 A 
ATOM     25  N   UNL     1      45.644   4.477   8.228  0.00  0.00    +0.000 NA
ATOM     26  C   UNL     1      46.102   3.641   7.282  0.00  0.00    +0.000 A 
ATOM     27  C   UNL     1      46.151   2.278   7.440  0.00  0.00    +0.000 A 
ATOM     28  C   UNL     1      45.696   1.803   8.649  0.00  0.00    +0.000 A 
ATOM     29  N   UNL     1      45.205   2.591   9.623  0.00  0.00    +0.000 NA
ENDBRANCH  23  24
ENDBRANCH  20  23
ENDBRANCH  16  17
ENDBRANCH   3  16
TORSDOF 5
ENDMDL
MODEL 9
REMARK VINA RESULT:    -6.495      3.153      4.716
REMARK INTER + INTRA:          -8.759
REMARK INTER:                  -7.663
REMARK INTRA:                  -1.096
REMARK UNBOUND:                -0.366
REMARK  Name = 
REMARK  5 active torsions:
REMARK  status: ('A' for Active; 'I' for Inactive)
REMARK    1  A    between atoms: C_2  and  C_18
REMARK    2  A    between atoms: N_3  and  C_4
REMARK    3  A    between atoms: C_4  and  C_5
REMARK    4  A    between atoms: C_8  and  O_9
REMARK    5  A    between atoms: O_9  and  C_10
REMARK                            x       y       z     vdW  Elec       q    Type
REMARK                         _______ _______ _______ _____ _____    ______ ____
ROOT
ATOM      1  O   UNL     1      51.198   7.797  14.929  0.00  0.00    +0.000 OA
ATOM      2  C   UNL     1      50.154   8.133  15.464  0.00  0.00    +0.000 C 
ATOM      3  N   UNL     1      49.091   8.717  14.810  0.00  0.00    +0.000 N 
ATOM      4  H   UNL     1      48.188   8.657  15.251  0.00  0.00    +0.000 HD
ENDROOT
BRANCH   2   5
ATOM      5  C   UNL     1      49.772   7.743  16.815  0.00  0.00    +0.000 A 
ATOM      6  C   UNL     1      50.016   8.552  17.911  0.00  0.00    +0.000 A 
ATOM      7  S   UNL     1      50.112   7.622  19.350  0.00  0.00    +0.000 S 
ATOM      8  C   UNL     1      49.650   6.198  18.532  0.00  0.00    +0.000 A 
ATOM      9  N   UNL     1      49.675   4.975  19.120  0.00  0.00    +0.000 NA
ATOM     10  C   UNL     1      49.220   4.020  18.374  0.00  0.00    +0.000 A 
ATOM     11  N   UNL     1      48.694   4.184  17.115  0.00  0.00    +0.000 N 
ATOM     12  C   UNL     1      48.650   5.404  16.472  0.00  0.00    +0.000 A 
ATOM     13  O   UNL     1      48.113   5.550  15.385  0.00  0.00    +0.000 OA
ATOM     14  C   UNL     1      49.274   6.472  17.234  0.00  0.00    +0.000 A 
ATOM     15  H   UNL     1      48.262   3.411  16.630  0.00  0.00    +0.000 HD
ENDBRANCH   2   5
BRANCH   3  16
ATOM     16  C   UNL     1      49.076   8.827  13.379  0.00  0.00    +0.000 C 
BRANCH  16  17
ATOM     17  C   UNL     1      47.800   8.253  12.821  0.00  0.00    +0.000 A 
ATOM     18  C   UNL     1      46.579   8.901  13.041  0.00  0.00    +0.000 A 
ATOM     19  C   UNL     1      45.401   8.397  12.488  0.00  0.00    +0.000 A 
ATOM     20  C   UNL     1      45.430   7.247  11.694  0.00  0.00    +0.000 A 
ATOM     21  C   UNL     1      46.630   6.553  11.536  0.00  0.00    +0.000 A 
ATOM     22  C   UNL     1      47.808   7.050  12.100  0.00  0.00    +0.000 A 
BRANCH  20  23
ATOM     23  O   UNL     1      44.317   6.694  11.100  0.00  0.00    +0.000 OA
BRANCH  23  24
ATOM     24  C   UNL     1      43.993   5.379  11.412  0.00  0.00    +0.000 A 
ATOM     25  N   UNL     1      43.624   5.063  12.667  0.00  0.00    +0.000 NA
ATOM     26  C   UNL     1      43.390   3.763  12.910  0.00  0.00    +0.000 A 
ATOM     27  C   UNL     1      43.471   2.788  11.946  0.00  0.00    +0.000 A 
ATOM     28  C   UNL     1      43.810   3.226  10.687  0.00  0.00    +0.000 A 
ATOM     29  N   UNL     1      44.078   4.511  10.390  0.00  0.00    +0.000 NA
ENDBRANCH  23  24
ENDBRANCH  20  23
ENDBRANCH  16  17
ENDBRANCH   3  16
TORSDOF 5
ENDMDL
