MODEL 1
REMARK VINA RESULT:    -8.564      0.000      0.000
REMARK INTER + INTRA:         -12.485
REMARK INTER:                 -11.568
REMARK INTRA:                  -0.916
REMARK UNBOUND:                -0.916
REMARK  Name = 
REMARK  8 active torsions:
REMARK  status: ('A' for Active; 'I' for Inactive)
REMARK    1  A    between atoms: C_1  and  N_2
REMARK    2  A    between atoms: N_2  and  C_3
REMARK    3  A    between atoms: C_7  and  C_8
REMARK    4  A    between atoms: C_12  and  C_13
REMARK    5  A    between atoms: C_13  and  N_14
REMARK    6  A    between atoms: N_14  and  C_15
REMARK    7  A    between atoms: C_18  and  C_19
REMARK    8  A    between atoms: C_28  and  C_29
REMARK                            x       y       z     vdW  Elec       q    Type
REMARK                         _______ _______ _______ _____ _____    ______ ____
ROOT
ATOM      1  C   UNL     1      47.380   6.321  12.507  0.00  0.00    +0.000 A 
ATOM      2  C   UNL     1      47.596   5.362  13.491  0.00  0.00    +0.000 A 
ATOM      3  C   UNL     1      46.581   4.457  13.784  0.00  0.00    +0.000 A 
ATOM      4  C   UNL     1      45.391   4.509  13.067  0.00  0.00    +0.000 A 
ATOM      5  C   UNL     1      45.229   5.476  12.078  0.00  0.00    +0.000 A 
ATOM      6  N   UNL     1      46.204   6.395  11.843  0.00  0.00    +0.000 NA
ENDROOT
BRANCH   1  13
ATOM      7  C   UNL     1      51.076  11.516  11.793  0.00  0.00    +0.000 C 
ATOM      8  N   UNL     1      51.388  10.122  11.565  0.00  0.00    +0.000 N 
ATOM      9  C   UNL     1      52.553   9.742  10.799  0.00  0.00    +0.000 C 
ATOM     10  C   UNL     1      50.365   9.203  11.673  0.00  0.00    +0.000 A 
ATOM     11  N   UNL     1      50.617   7.911  11.458  0.00  0.00    +0.000 NA
ATOM     12  C   UNL     1      49.626   7.030  11.714  0.00  0.00    +0.000 A 
ATOM     13  C   UNL     1      48.348   7.359  12.138  0.00  0.00    +0.000 A 
ATOM     14  C   UNL     1      48.139   8.731  12.230  0.00  0.00    +0.000 A 
ATOM     15  N   UNL     1      49.150   9.631  12.030  0.00  0.00    +0.000 NA
BRANCH  14  16
ATOM     16  C   UNL     1      46.792   9.360  12.549  0.00  0.00    +0.000 C 
ATOM     17  F   UNL     1      45.783   9.120  11.663  0.00  0.00    +0.000 F 
ATOM     18  F   UNL     1      46.316   9.019  13.782  0.00  0.00    +0.000 F 
ATOM     19  F   UNL     1      46.870  10.731  12.567  0.00  0.00    +0.000 F 
ENDBRANCH  14  16
ENDBRANCH   1  13
BRANCH   5  20
ATOM     20  C   UNL     1      43.956   5.581  11.239  0.00  0.00    +0.000 C 
ATOM     21  C   UNL     1      43.330   6.937  10.967  0.00  0.00    +0.000 C 
ATOM     22  C   UNL     1      42.716   6.056  11.994  0.00  0.00    +0.000 C 
ATOM     23  F   UNL     1      41.499   5.474  11.677  0.00  0.00    +0.000 F 
BRANCH  20  24
ATOM     24  N   UNL     1      43.753   4.426  10.340  0.00  0.00    +0.000 N 
ATOM     25  H   UNL     1      43.110   3.735  10.724  0.00  0.00    +0.000 HD
BRANCH  24  26
ATOM     26  C   UNL     1      44.750   3.852   9.532  0.00  0.00    +0.000 A 
ATOM     27  C   UNL     1      45.505   4.569   8.598  0.00  0.00    +0.000 A 
ATOM     28  C   UNL     1      46.391   3.909   7.739  0.00  0.00    +0.000 A 
ATOM     29  C   UNL     1      46.528   2.516   7.796  0.00  0.00    +0.000 A 
ATOM     30  C   UNL     1      45.767   1.790   8.704  0.00  0.00    +0.000 A 
ATOM     31  C   UNL     1      44.883   2.459   9.558  0.00  0.00    +0.000 A 
BRANCH  29  32
ATOM     32  C   UNL     1      47.443   1.852   6.833  0.00  0.00    +0.000 C 
ATOM     33  N   UNL     1      48.511   2.585   6.383  0.00  0.00    +0.000 N 
ATOM     34  O   UNL     1      47.252   0.709   6.440  0.00  0.00    +0.000 OA
ATOM     35  H   UNL     1      48.584   3.580   6.496  0.00  0.00    +0.000 HD
ATOM     36  H   UNL     1      49.080   2.141   5.676  0.00  0.00    +0.000 HD
ENDBRANCH  29  32
ENDBRANCH  24  26
ENDBRANCH  20  24
ENDBRANCH   5  20
TORSDOF 6
ENDMDL
MODEL 2
REMARK VINA RESULT:    -8.508      2.921      4.499
REMARK INTER + INTRA:         -12.408
REMARK INTER:                 -13.105
REMARK INTRA:                   0.697
REMARK UNBOUND:                -0.916
REMARK  Name = 
REMARK  8 active torsions:
REMARK  status: ('A' for Active; 'I' for Inactive)
REMARK    1  A    between atoms: C_1  and  N_2
REMARK    2  A    between atoms: N_2  and  C_3
REMARK    3  A    between atoms: C_7  and  C_8
REMARK    4  A    between atoms: C_12  and  C_13
REMARK    5  A    between atoms: C_13  and  N_14
REMARK    6  A    between atoms: N_14  and  C_15
REMARK    7  A    between atoms: C_18  and  C_19
REMARK    8  A    between atoms: C_28  and  C_29
REMARK                            x       y       z     vdW  Elec       q    Type
REMARK                         _______ _______ _______ _____ _____    ______ ____
ROOT
ATOM      1  C   UNL     1      47.128   5.848  13.373  0.00  0.00    +0.000 A 
ATOM      2  C   UNL     1      47.823   6.682  12.503  0.00  0.00    +0.000 A 
ATOM      3  C   UNL     1      47.281   6.953  11.251  0.00  0.00    +0.000 A 
ATOM      4  C   UNL     1      46.045   6.415  10.911  0.00  0.00    +0.000 A 
ATOM      5  C   UNL     1      45.378   5.601  11.824  0.00  0.00    +0.000 A 
ATOM      6  N   UNL     1      45.947   5.292  13.020  0.00  0.00    +0.000 NA
ENDROOT
BRANCH   1  13
ATOM      7  C   UNL     1      49.083   5.286  19.457  0.00  0.00    +0.000 C 
ATOM      8  N   UNL     1      48.419   4.323  18.608  0.00  0.00    +0.000 N 
ATOM      9  C   UNL     1      48.397   2.921  18.959  0.00  0.00    +0.000 C 
ATOM     10  C   UNL     1      48.219   4.655  17.284  0.00  0.00    +0.000 A 
ATOM     11  N   UNL     1      47.619   3.783  16.471  0.00  0.00    +0.000 NA
ATOM     12  C   UNL     1      47.314   4.201  15.224  0.00  0.00    +0.000 A 
ATOM     13  C   UNL     1      47.613   5.447  14.697  0.00  0.00    +0.000 A 
ATOM     14  C   UNL     1      48.334   6.251  15.574  0.00  0.00    +0.000 A 
ATOM     15  N   UNL     1      48.599   5.864  16.859  0.00  0.00    +0.000 NA
BRANCH  14  16
ATOM     16  C   UNL     1      48.896   7.615  15.200  0.00  0.00    +0.000 C 
ATOM     17  F   UNL     1      49.796   7.641  14.175  0.00  0.00    +0.000 F 
ATOM     18  F   UNL     1      47.932   8.530  14.895  0.00  0.00    +0.000 F 
ATOM     19  F   UNL     1      49.595   8.171  16.243  0.00  0.00    +0.000 F 
ENDBRANCH  14  16
ENDBRANCH   1  13
BRANCH   5  20
ATOM     20  C   UNL     1      44.009   4.990  11.525  0.00  0.00    +0.000 C 
ATOM     21  C   UNL     1      42.862   5.171  12.502  0.00  0.00    +0.000 C 
ATOM     22  C   UNL     1      43.577   3.869  12.468  0.00  0.00    +0.000 C 
ATOM     23  F   UNL     1      42.894   2.791  11.927  0.00  0.00    +0.000 F 
BRANCH  20  24
ATOM     24  N   UNL     1      43.786   4.737  10.086  0.00  0.00    +0.000 N 
ATOM     25  H   UNL     1      42.798   4.715   9.839  0.00  0.00    +0.000 HD
BRANCH  24  26
ATOM     26  C   UNL     1      44.567   3.881   9.291  0.00  0.00    +0.000 A 
ATOM     27  C   UNL     1      44.653   2.499   9.485  0.00  0.00    +0.000 A 
ATOM     28  C   UNL     1      45.548   1.727   8.735  0.00  0.00    +0.000 A 
ATOM     29  C   UNL     1      46.379   2.331   7.783  0.00  0.00    +0.000 A 
ATOM     30  C   UNL     1      46.318   3.707   7.595  0.00  0.00    +0.000 A 
ATOM     31  C   UNL     1      45.421   4.470   8.351  0.00  0.00    +0.000 A 
BRANCH  29  32
ATOM     32  C   UNL     1      47.348   1.482   7.044  0.00  0.00    +0.000 C 
ATOM     33  N   UNL     1      48.453   2.107   6.524  0.00  0.00    +0.000 N 
ATOM     34  O   UNL     1      47.170   0.282   6.887  0.00  0.00    +0.000 OA
ATOM     35  H   UNL     1      48.530   3.103   6.431  0.00  0.00    +0.000 HD
ATOM     36  H   UNL     1      49.062   1.526   5.965  0.00  0.00    +0.000 HD
ENDBRANCH  29  32
ENDBRANCH  24  26
ENDBRANCH  20  24
ENDBRANCH   5  20
TORSDOF 6
ENDMDL
MODEL 3
REMARK VINA RESULT:    -8.403      2.444      3.178
REMARK INTER + INTRA:         -12.266
REMARK INTER:                 -12.062
REMARK INTRA:                  -0.205
REMARK UNBOUND:                -0.916
REMARK  Name = 
REMARK  8 active torsions:
REMARK  status: ('A' for Active; 'I' for Inactive)
REMARK    1  A    between atoms: C_1  and  N_2
REMARK    2  A    between atoms: N_2  and  C_3
REMARK    3  A    between atoms: C_7  and  C_8
REMARK    4  A    between atoms: C_12  and  C_13
REMARK    5  A    between atoms: C_13  and  N_14
REMARK    6  A    between atoms: N_14  and  C_15
REMARK    7  A    between atoms: C_18  and  C_19
REMARK    8  A    between atoms: C_28  and  C_29
REMARK                            x       y       z     vdW  Elec       q    Type
REMARK                         _______ _______ _______ _____ _____    ______ ____
ROOT
ATOM      1  C   UNL     1      46.632   7.336  12.760  0.00  0.00    +0.000 A 
ATOM      2  C   UNL     1      46.227   8.548  12.212  0.00  0.00    +0.000 A 
ATOM      3  C   UNL     1      45.043   8.597  11.484  0.00  0.00    +0.000 A 
ATOM      4  C   UNL     1      44.276   7.445  11.349  0.00  0.00    +0.000 A 
ATOM      5  C   UNL     1      44.714   6.259  11.933  0.00  0.00    +0.000 A 
ATOM      6  N   UNL     1      45.905   6.209  12.589  0.00  0.00    +0.000 NA
ENDROOT
BRANCH   1  13
ATOM      7  C   UNL     1      52.451   7.527  15.457  0.00  0.00    +0.000 C 
ATOM      8  N   UNL     1      51.207   7.006  15.979  0.00  0.00    +0.000 N 
ATOM      9  C   UNL     1      51.199   6.126  17.126  0.00  0.00    +0.000 C 
ATOM     10  C   UNL     1      50.114   6.971  15.138  0.00  0.00    +0.000 A 
ATOM     11  N   UNL     1      48.955   6.485  15.587  0.00  0.00    +0.000 NA
ATOM     12  C   UNL     1      47.877   6.601  14.782  0.00  0.00    +0.000 A 
ATOM     13  C   UNL     1      47.880   7.142  13.506  0.00  0.00    +0.000 A 
ATOM     14  C   UNL     1      49.148   7.521  13.077  0.00  0.00    +0.000 A 
ATOM     15  N   UNL     1      50.237   7.463  13.902  0.00  0.00    +0.000 NA
BRANCH  14  16
ATOM     16  C   UNL     1      49.448   8.024  11.673  0.00  0.00    +0.000 C 
ATOM     17  F   UNL     1      48.832   7.369  10.647  0.00  0.00    +0.000 F 
ATOM     18  F   UNL     1      49.176   9.350  11.506  0.00  0.00    +0.000 F 
ATOM     19  F   UNL     1      50.781   7.895  11.369  0.00  0.00    +0.000 F 
ENDBRANCH  14  16
ENDBRANCH   1  13
BRANCH   5  20
ATOM     20  C   UNL     1      43.915   4.959  11.841  0.00  0.00    +0.000 C 
ATOM     21  C   UNL     1      42.997   4.544  12.976  0.00  0.00    +0.000 C 
ATOM     22  C   UNL     1      44.317   3.875  12.840  0.00  0.00    +0.000 C 
ATOM     23  F   UNL     1      44.312   2.558  12.407  0.00  0.00    +0.000 F 
BRANCH  20  24
ATOM     24  N   UNL     1      43.705   4.502  10.451  0.00  0.00    +0.000 N 
ATOM     25  H   UNL     1      42.786   4.087  10.308  0.00  0.00    +0.000 HD
BRANCH  24  26
ATOM     26  C   UNL     1      44.696   3.928   9.636  0.00  0.00    +0.000 A 
ATOM     27  C   UNL     1      45.534   4.663   8.793  0.00  0.00    +0.000 A 
ATOM     28  C   UNL     1      46.411   4.015   7.916  0.00  0.00    +0.000 A 
ATOM     29  C   UNL     1      46.455   2.615   7.864  0.00  0.00    +0.000 A 
ATOM     30  C   UNL     1      45.612   1.873   8.681  0.00  0.00    +0.000 A 
ATOM     31  C   UNL     1      44.737   2.531   9.553  0.00  0.00    +0.000 A 
BRANCH  29  32
ATOM     32  C   UNL     1      47.366   1.969   6.884  0.00  0.00    +0.000 C 
ATOM     33  N   UNL     1      48.448   2.699   6.464  0.00  0.00    +0.000 N 
ATOM     34  O   UNL     1      47.159   0.843   6.453  0.00  0.00    +0.000 OA
ATOM     35  H   UNL     1      48.536   3.688   6.611  0.00  0.00    +0.000 HD
ATOM     36  H   UNL     1      49.014   2.270   5.746  0.00  0.00    +0.000 HD
ENDBRANCH  29  32
ENDBRANCH  24  26
ENDBRANCH  20  24
ENDBRANCH   5  20
TORSDOF 6
ENDMDL
MODEL 4
REMARK VINA RESULT:    -8.182      4.674      6.668
REMARK INTER + INTRA:         -11.968
REMARK INTER:                 -10.551
REMARK INTRA:                  -1.416
REMARK UNBOUND:                -0.916
REMARK  Name = 
REMARK  8 active torsions:
REMARK  status: ('A' for Active; 'I' for Inactive)
REMARK    1  A    between atoms: C_1  and  N_2
REMARK    2  A    between atoms: N_2  and  C_3
REMARK    3  A    between atoms: C_7  and  C_8
REMARK    4  A    between atoms: C_12  and  C_13
REMARK    5  A    between atoms: C_13  and  N_14
REMARK    6  A    between atoms: N_14  and  C_15
REMARK    7  A    between atoms: C_18  and  C_19
REMARK    8  A    between atoms: C_28  and  C_29
REMARK                            x       y       z     vdW  Elec       q    Type
REMARK                         _______ _______ _______ _____ _____    ______ ____
ROOT
ATOM      1  C   UNL     1      49.343   6.675  16.587  0.00  0.00    +0.000 A 
ATOM      2  C   UNL     1      48.954   7.714  17.425  0.00  0.00    +0.000 A 
ATOM      3  C   UNL     1      48.331   8.828  16.873  0.00  0.00    +0.000 A 
ATOM      4  C   UNL     1      48.081   8.864  15.506  0.00  0.00    +0.000 A 
ATOM      5  C   UNL     1      48.473   7.790  14.710  0.00  0.00    +0.000 A 
ATOM      6  N   UNL     1      49.138   6.734  15.252  0.00  0.00    +0.000 NA
ENDROOT
BRANCH   1  13
ATOM      7  C   UNL     1      51.677   0.816  17.764  0.00  0.00    +0.000 C 
ATOM      8  N   UNL     1      52.342   2.100  17.800  0.00  0.00    +0.000 N 
ATOM      9  C   UNL     1      53.622   2.249  18.456  0.00  0.00    +0.000 C 
ATOM     10  C   UNL     1      51.575   3.233  17.629  0.00  0.00    +0.000 A 
ATOM     11  N   UNL     1      52.156   4.433  17.668  0.00  0.00    +0.000 NA
ATOM     12  C   UNL     1      51.398   5.505  17.353  0.00  0.00    +0.000 A 
ATOM     13  C   UNL     1      50.049   5.470  17.036  0.00  0.00    +0.000 A 
ATOM     14  C   UNL     1      49.499   4.196  17.126  0.00  0.00    +0.000 A 
ATOM     15  N   UNL     1      50.267   3.094  17.387  0.00  0.00    +0.000 NA
BRANCH  14  16
ATOM     16  C   UNL     1      48.017   3.901  16.953  0.00  0.00    +0.000 C 
ATOM     17  F   UNL     1      47.155   4.683  17.665  0.00  0.00    +0.000 F 
ATOM     18  F   UNL     1      47.605   3.953  15.653  0.00  0.00    +0.000 F 
ATOM     19  F   UNL     1      47.706   2.631  17.372  0.00  0.00    +0.000 F 
ENDBRANCH  14  16
ENDBRANCH   1  13
BRANCH   5  20
ATOM     20  C   UNL     1      48.215   7.753  13.204  0.00  0.00    +0.000 C 
ATOM     21  C   UNL     1      49.326   7.360  12.248  0.00  0.00    +0.000 C 
ATOM     22  C   UNL     1      48.975   8.797  12.388  0.00  0.00    +0.000 C 
ATOM     23  F   UNL     1      48.321   9.391  11.320  0.00  0.00    +0.000 F 
BRANCH  20  24
ATOM     24  N   UNL     1      46.787   7.589  12.861  0.00  0.00    +0.000 N 
ATOM     25  H   UNL     1      46.168   8.074  13.508  0.00  0.00    +0.000 HD
BRANCH  24  26
ATOM     26  C   UNL     1      46.217   6.417  12.335  0.00  0.00    +0.000 A 
ATOM     27  C   UNL     1      45.921   6.234  10.980  0.00  0.00    +0.000 A 
ATOM     28  C   UNL     1      45.238   5.092  10.547  0.00  0.00    +0.000 A 
ATOM     29  C   UNL     1      44.830   4.118  11.469  0.00  0.00    +0.000 A 
ATOM     30  C   UNL     1      45.098   4.300  12.820  0.00  0.00    +0.000 A 
ATOM     31  C   UNL     1      45.780   5.445  13.243  0.00  0.00    +0.000 A 
BRANCH  29  32
ATOM     32  C   UNL     1      44.065   2.946  10.972  0.00  0.00    +0.000 C 
ATOM     33  N   UNL     1      44.613   2.240   9.932  0.00  0.00    +0.000 N 
ATOM     34  O   UNL     1      42.985   2.626  11.452  0.00  0.00    +0.000 OA
ATOM     35  H   UNL     1      45.367   2.587   9.366  0.00  0.00    +0.000 HD
ATOM     36  H   UNL     1      44.044   1.491   9.562  0.00  0.00    +0.000 HD
ENDBRANCH  29  32
ENDBRANCH  24  26
ENDBRANCH  20  24
ENDBRANCH   5  20
TORSDOF 6
ENDMDL
MODEL 5
REMARK VINA RESULT:    -7.972      1.420      1.759
REMARK INTER + INTRA:         -11.685
REMARK INTER:                 -10.792
REMARK INTRA:                  -0.894
REMARK UNBOUND:                -0.916
REMARK  Name = 
REMARK  8 active torsions:
REMARK  status: ('A' for Active; 'I' for Inactive)
REMARK    1  A    between atoms: C_1  and  N_2
REMARK    2  A    between atoms: N_2  and  C_3
REMARK    3  A    between atoms: C_7  and  C_8
REMARK    4  A    between atoms: C_12  and  C_13
REMARK    5  A    between atoms: C_13  and  N_14
REMARK    6  A    between atoms: N_14  and  C_15
REMARK    7  A    between atoms: C_18  and  C_19
REMARK    8  A    between atoms: C_28  and  C_29
REMARK                            x       y       z     vdW  Elec       q    Type
REMARK                         _______ _______ _______ _____ _____    ______ ____
ROOT
ATOM      1  C   UNL     1      47.463   5.875  12.734  0.00  0.00    +0.000 A 
ATOM      2  C   UNL     1      47.581   4.734  13.521  0.00  0.00    +0.000 A 
ATOM      3  C   UNL     1      46.504   3.858  13.604  0.00  0.00    +0.000 A 
ATOM      4  C   UNL     1      45.349   4.124  12.876  0.00  0.00    +0.000 A 
ATOM      5  C   UNL     1      45.286   5.270  12.087  0.00  0.00    +0.000 A 
ATOM      6  N   UNL     1      46.322   6.151  12.063  0.00  0.00    +0.000 NA
ENDROOT
BRANCH   1  13
ATOM      7  C   UNL     1      52.460   9.872  13.201  0.00  0.00    +0.000 C 
ATOM      8  N   UNL     1      51.794   9.358  12.024  0.00  0.00    +0.000 N 
ATOM      9  C   UNL     1      51.996   9.977  10.733  0.00  0.00    +0.000 C 
ATOM     10  C   UNL     1      50.651   8.607  12.201  0.00  0.00    +0.000 A 
ATOM     11  N   UNL     1      50.007   8.129  11.135  0.00  0.00    +0.000 NA
ATOM     12  C   UNL     1      48.979   7.280  11.356  0.00  0.00    +0.000 A 
ATOM     13  C   UNL     1      48.505   6.898  12.600  0.00  0.00    +0.000 A 
ATOM     14  C   UNL     1      49.161   7.528  13.652  0.00  0.00    +0.000 A 
ATOM     15  N   UNL     1      50.240   8.344  13.446  0.00  0.00    +0.000 NA
BRANCH  14  16
ATOM     16  C   UNL     1      48.753   7.383  15.110  0.00  0.00    +0.000 C 
ATOM     17  F   UNL     1      48.881   6.140  15.657  0.00  0.00    +0.000 F 
ATOM     18  F   UNL     1      49.410   8.243  15.942  0.00  0.00    +0.000 F 
ATOM     19  F   UNL     1      47.421   7.666  15.289  0.00  0.00    +0.000 F 
ENDBRANCH  14  16
ENDBRANCH   1  13
BRANCH   5  20
ATOM     20  C   UNL     1      44.057   5.616  11.247  0.00  0.00    +0.000 C 
ATOM     21  C   UNL     1      43.561   7.048  11.173  0.00  0.00    +0.000 C 
ATOM     22  C   UNL     1      42.837   6.083  12.039  0.00  0.00    +0.000 C 
ATOM     23  F   UNL     1      41.586   5.668  11.611  0.00  0.00    +0.000 F 
BRANCH  20  24
ATOM     24  N   UNL     1      43.787   4.633  10.177  0.00  0.00    +0.000 N 
ATOM     25  H   UNL     1      42.990   4.033  10.385  0.00  0.00    +0.000 HD
BRANCH  24  26
ATOM     26  C   UNL     1      44.773   3.985   9.414  0.00  0.00    +0.000 A 
ATOM     27  C   UNL     1      45.584   4.631   8.477  0.00  0.00    +0.000 A 
ATOM     28  C   UNL     1      46.457   3.901   7.663  0.00  0.00    +0.000 A 
ATOM     29  C   UNL     1      46.524   2.505   7.770  0.00  0.00    +0.000 A 
ATOM     30  C   UNL     1      45.708   1.849   8.682  0.00  0.00    +0.000 A 
ATOM     31  C   UNL     1      44.837   2.588   9.490  0.00  0.00    +0.000 A 
BRANCH  29  32
ATOM     32  C   UNL     1      47.428   1.765   6.853  0.00  0.00    +0.000 C 
ATOM     33  N   UNL     1      48.530   2.437   6.389  0.00  0.00    +0.000 N 
ATOM     34  O   UNL     1      47.201   0.613   6.508  0.00  0.00    +0.000 OA
ATOM     35  H   UNL     1      48.639   3.432   6.459  0.00  0.00    +0.000 HD
ATOM     36  H   UNL     1      49.093   1.941   5.713  0.00  0.00    +0.000 HD
ENDBRANCH  29  32
ENDBRANCH  24  26
ENDBRANCH  20  24
ENDBRANCH   5  20
TORSDOF 6
ENDMDL
MODEL 6
REMARK VINA RESULT:    -7.835      2.799      3.480
REMARK INTER + INTRA:         -11.499
REMARK INTER:                 -11.470
REMARK INTRA:                  -0.029
REMARK UNBOUND:                -0.916
REMARK  Name = 
REMARK  8 active torsions:
REMARK  status: ('A' for Active; 'I' for Inactive)
REMARK    1  A    between atoms: C_1  and  N_2
REMARK    2  A    between atoms: N_2  and  C_3
REMARK    3  A    between atoms: C_7  and  C_8
REMARK    4  A    between atoms: C_12  and  C_13
REMARK    5  A    between atoms: C_13  and  N_14
REMARK    6  A    between atoms: N_14  and  C_15
REMARK    7  A    between atoms: C_18  and  C_19
REMARK    8  A    between atoms: C_28  and  C_29
REMARK                            x       y       z     vdW  Elec       q    Type
REMARK                         _______ _______ _______ _____ _____    ______ ____
ROOT
ATOM      1  C   UNL     1      47.238   5.263  13.874  0.00  0.00    +0.000 A 
ATOM      2  C   UNL     1      47.255   3.896  14.133  0.00  0.00    +0.000 A 
ATOM      3  C   UNL     1      46.352   3.073  13.470  0.00  0.00    +0.000 A 
ATOM      4  C   UNL     1      45.478   3.625  12.541  0.00  0.00    +0.000 A 
ATOM      5  C   UNL     1      45.512   4.997  12.301  0.00  0.00    +0.000 A 
ATOM      6  N   UNL     1      46.357   5.801  13.001  0.00  0.00    +0.000 NA
ENDROOT
BRANCH   1  13
ATOM      7  C   UNL     1      51.497   8.558  17.361  0.00  0.00    +0.000 C 
ATOM      8  N   UNL     1      50.966   8.838  16.045  0.00  0.00    +0.000 N 
ATOM      9  C   UNL     1      51.111  10.150  15.455  0.00  0.00    +0.000 C 
ATOM     10  C   UNL     1      49.955   8.030  15.568  0.00  0.00    +0.000 A 
ATOM     11  N   UNL     1      49.436   8.269  14.362  0.00  0.00    +0.000 NA
ATOM     12  C   UNL     1      48.554   7.371  13.874  0.00  0.00    +0.000 A 
ATOM     13  C   UNL     1      48.103   6.242  14.539  0.00  0.00    +0.000 A 
ATOM     14  C   UNL     1      48.611   6.129  15.829  0.00  0.00    +0.000 A 
ATOM     15  N   UNL     1      49.549   6.998  16.315  0.00  0.00    +0.000 NA
BRANCH  14  16
ATOM     16  C   UNL     1      48.180   5.054  16.815  0.00  0.00    +0.000 C 
ATOM     17  F   UNL     1      46.841   4.808  16.900  0.00  0.00    +0.000 F 
ATOM     18  F   UNL     1      48.783   3.850  16.597  0.00  0.00    +0.000 F 
ATOM     19  F   UNL     1      48.518   5.391  18.103  0.00  0.00    +0.000 F 
ENDBRANCH  14  16
ENDBRANCH   1  13
BRANCH   5  20
ATOM     20  C   UNL     1      44.594   5.671  11.281  0.00  0.00    +0.000 C 
ATOM     21  C   UNL     1      44.736   7.152  10.986  0.00  0.00    +0.000 C 
ATOM     22  C   UNL     1      43.623   6.699  11.859  0.00  0.00    +0.000 C 
ATOM     23  F   UNL     1      42.344   6.757  11.328  0.00  0.00    +0.000 F 
BRANCH  20  24
ATOM     24  N   UNL     1      44.015   4.725  10.304  0.00  0.00    +0.000 N 
ATOM     25  H   UNL     1      43.203   4.230  10.667  0.00  0.00    +0.000 HD
BRANCH  24  26
ATOM     26  C   UNL     1      44.760   3.956   9.393  0.00  0.00    +0.000 A 
ATOM     27  C   UNL     1      44.790   2.558   9.394  0.00  0.00    +0.000 A 
ATOM     28  C   UNL     1      45.652   1.861   8.540  0.00  0.00    +0.000 A 
ATOM     29  C   UNL     1      46.507   2.557   7.675  0.00  0.00    +0.000 A 
ATOM     30  C   UNL     1      46.503   3.946   7.680  0.00  0.00    +0.000 A 
ATOM     31  C   UNL     1      45.638   4.634   8.539  0.00  0.00    +0.000 A 
BRANCH  29  32
ATOM     32  C   UNL     1      47.440   1.779   6.821  0.00  0.00    +0.000 C 
ATOM     33  N   UNL     1      48.533   2.444   6.327  0.00  0.00    +0.000 N 
ATOM     34  O   UNL     1      47.243   0.602   6.550  0.00  0.00    +0.000 OA
ATOM     35  H   UNL     1      48.619   3.444   6.332  0.00  0.00    +0.000 HD
ATOM     36  H   UNL     1      49.117   1.918   5.692  0.00  0.00    +0.000 HD
ENDBRANCH  29  32
ENDBRANCH  24  26
ENDBRANCH  20  24
ENDBRANCH   5  20
TORSDOF 6
ENDMDL
MODEL 7
REMARK VINA RESULT:    -7.363      2.641      3.139
REMARK INTER + INTRA:         -10.862
REMARK INTER:                 -10.284
REMARK INTRA:                  -0.578
REMARK UNBOUND:                -0.916
REMARK  Name = 
REMARK  8 active torsions:
REMARK  status: ('A' for Active; 'I' for Inactive)
REMARK    1  A    between atoms: C_1  and  N_2
REMARK    2  A    between atoms: N_2  and  C_3
REMARK    3  A    between atoms: C_7  and  C_8
REMARK    4  A    between atoms: C_12  and  C_13
REMARK    5  A    between atoms: C_13  and  N_14
REMARK    6  A    between atoms: N_14  and  C_15
REMARK    7  A    between atoms: C_18  and  C_19
REMARK    8  A    between atoms: C_28  and  C_29
REMARK                            x       y       z     vdW  Elec       q    Type
REMARK                         _______ _______ _______ _____ _____    ______ ____
ROOT
ATOM      1  C   UNL     1      47.423   5.346  14.142  0.00  0.00    +0.000 A 
ATOM      2  C   UNL     1      47.452   3.984  14.424  0.00  0.00    +0.000 A 
ATOM      3  C   UNL     1      46.603   3.133  13.725  0.00  0.00    +0.000 A 
ATOM      4  C   UNL     1      45.771   3.654  12.741  0.00  0.00    +0.000 A 
ATOM      5  C   UNL     1      45.791   5.023  12.481  0.00  0.00    +0.000 A 
ATOM      6  N   UNL     1      46.581   5.854  13.215  0.00  0.00    +0.000 NA
ENDROOT
BRANCH   1  13
ATOM      7  C   UNL     1      50.675  10.469  16.224  0.00  0.00    +0.000 C 
ATOM      8  N   UNL     1      50.006   9.431  16.976  0.00  0.00    +0.000 N 
ATOM      9  C   UNL     1      50.279   9.249  18.385  0.00  0.00    +0.000 C 
ATOM     10  C   UNL     1      49.483   8.360  16.282  0.00  0.00    +0.000 A 
ATOM     11  N   UNL     1      48.870   7.381  16.948  0.00  0.00    +0.000 NA
ATOM     12  C   UNL     1      48.248   6.427  16.222  0.00  0.00    +0.000 A 
ATOM     13  C   UNL     1      48.231   6.352  14.839  0.00  0.00    +0.000 A 
ATOM     14  C   UNL     1      48.986   7.349  14.229  0.00  0.00    +0.000 A 
ATOM     15  N   UNL     1      49.572   8.354  14.948  0.00  0.00    +0.000 NA
BRANCH  14  16
ATOM     16  C   UNL     1      49.236   7.420  12.730  0.00  0.00    +0.000 C 
ATOM     17  F   UNL     1      49.401   6.230  12.084  0.00  0.00    +0.000 F 
ATOM     18  F   UNL     1      48.265   8.099  12.053  0.00  0.00    +0.000 F 
ATOM     19  F   UNL     1      50.400   8.092  12.448  0.00  0.00    +0.000 F 
ENDBRANCH  14  16
ENDBRANCH   1  13
BRANCH   5  20
ATOM     20  C   UNL     1      44.918   5.663  11.403  0.00  0.00    +0.000 C 
ATOM     21  C   UNL     1      45.156   7.101  10.981  0.00  0.00    +0.000 C 
ATOM     22  C   UNL     1      44.016   6.798  11.884  0.00  0.00    +0.000 C 
ATOM     23  F   UNL     1      42.743   6.891  11.343  0.00  0.00    +0.000 F 
BRANCH  20  24
ATOM     24  N   UNL     1      44.280   4.675  10.508  0.00  0.00    +0.000 N 
ATOM     25  H   UNL     1      43.570   4.117  10.979  0.00  0.00    +0.000 HD
BRANCH  24  26
ATOM     26  C   UNL     1      44.942   3.968   9.490  0.00  0.00    +0.000 A 
ATOM     27  C   UNL     1      44.993   2.572   9.416  0.00  0.00    +0.000 A 
ATOM     28  C   UNL     1      45.777   1.937   8.446  0.00  0.00    +0.000 A 
ATOM     29  C   UNL     1      46.531   2.692   7.538  0.00  0.00    +0.000 A 
ATOM     30  C   UNL     1      46.506   4.079   7.615  0.00  0.00    +0.000 A 
ATOM     31  C   UNL     1      45.721   4.705   8.589  0.00  0.00    +0.000 A 
BRANCH  29  32
ATOM     32  C   UNL     1      47.387   1.977   6.557  0.00  0.00    +0.000 C 
ATOM     33  N   UNL     1      48.070   2.746   5.650  0.00  0.00    +0.000 N 
ATOM     34  O   UNL     1      47.473   0.757   6.540  0.00  0.00    +0.000 OA
ATOM     35  H   UNL     1      47.861   3.714   5.479  0.00  0.00    +0.000 HD
ATOM     36  H   UNL     1      48.589   2.239   4.947  0.00  0.00    +0.000 HD
ENDBRANCH  29  32
ENDBRANCH  24  26
ENDBRANCH  20  24
ENDBRANCH   5  20
TORSDOF 6
ENDMDL
MODEL 8
REMARK VINA RESULT:    -6.659      5.067      6.183
REMARK INTER + INTRA:          -9.912
REMARK INTER:                  -9.180
REMARK INTRA:                  -0.731
REMARK UNBOUND:                -0.916
REMARK  Name = 
REMARK  8 active torsions:
REMARK  status: ('A' for Active; 'I' for Inactive)
REMARK    1  A    between atoms: C_1  and  N_2
REMARK    2  A    between atoms: N_2  and  C_3
REMARK    3  A    between atoms: C_7  and  C_8
REMARK    4  A    between atoms: C_12  and  C_13
REMARK    5  A    between atoms: C_13  and  N_14
REMARK    6  A    between atoms: N_14  and  C_15
REMARK    7  A    between atoms: C_18  and  C_19
REMARK    8  A    between atoms: C_28  and  C_29
REMARK                            x       y       z     vdW  Elec       q    Type
REMARK                         _______ _______ _______ _____ _____    ______ ____
ROOT
ATOM      1  C   UNL     1      49.352   5.070  17.078  0.00  0.00    +0.000 A 
ATOM      2  C   UNL     1      48.659   3.937  17.493  0.00  0.00    +0.000 A 
ATOM      3  C   UNL     1      47.537   3.534  16.778  0.00  0.00    +0.000 A 
ATOM      4  C   UNL     1      47.153   4.247  15.648  0.00  0.00    +0.000 A 
ATOM      5  C   UNL     1      47.891   5.364  15.260  0.00  0.00    +0.000 A 
ATOM      6  N   UNL     1      48.949   5.786  16.004  0.00  0.00    +0.000 NA
ENDROOT
BRANCH   1  13
ATOM      7  C   UNL     1      53.748   7.412  21.122  0.00  0.00    +0.000 C 
ATOM      8  N   UNL     1      53.924   6.648  19.906  0.00  0.00    +0.000 N 
ATOM      9  C   UNL     1      55.212   6.588  19.253  0.00  0.00    +0.000 C 
ATOM     10  C   UNL     1      52.807   6.372  19.145  0.00  0.00    +0.000 A 
ATOM     11  N   UNL     1      52.938   5.680  18.013  0.00  0.00    +0.000 NA
ATOM     12  C   UNL     1      51.808   5.308  17.374  0.00  0.00    +0.000 A 
ATOM     13  C   UNL     1      50.518   5.625  17.771  0.00  0.00    +0.000 A 
ATOM     14  C   UNL     1      50.479   6.441  18.897  0.00  0.00    +0.000 A 
ATOM     15  N   UNL     1      51.612   6.777  19.587  0.00  0.00    +0.000 NA
BRANCH  14  16
ATOM     16  C   UNL     1      49.199   7.036  19.464  0.00  0.00    +0.000 C 
ATOM     17  F   UNL     1      48.274   6.152  19.935  0.00  0.00    +0.000 F 
ATOM     18  F   UNL     1      49.421   7.937  20.465  0.00  0.00    +0.000 F 
ATOM     19  F   UNL     1      48.504   7.734  18.507  0.00  0.00    +0.000 F 
ENDBRANCH  14  16
ENDBRANCH   1  13
BRANCH   5  20
ATOM     20  C   UNL     1      47.539   6.185  14.021  0.00  0.00    +0.000 C 
ATOM     21  C   UNL     1      48.620   6.575  13.029  0.00  0.00    +0.000 C 
ATOM     22  C   UNL     1      48.123   7.596  13.987  0.00  0.00    +0.000 C 
ATOM     23  F   UNL     1      47.337   8.614  13.469  0.00  0.00    +0.000 F 
BRANCH  20  24
ATOM     24  N   UNL     1      46.118   6.073  13.632  0.00  0.00    +0.000 N 
ATOM     25  H   UNL     1      45.488   6.084  14.432  0.00  0.00    +0.000 HD
BRANCH  24  26
ATOM     26  C   UNL     1      45.635   5.289  12.569  0.00  0.00    +0.000 A 
ATOM     27  C   UNL     1      45.293   3.938  12.689  0.00  0.00    +0.000 A 
ATOM     28  C   UNL     1      44.941   3.189  11.561  0.00  0.00    +0.000 A 
ATOM     29  C   UNL     1      44.935   3.780  10.290  0.00  0.00    +0.000 A 
ATOM     30  C   UNL     1      45.293   5.115  10.156  0.00  0.00    +0.000 A 
ATOM     31  C   UNL     1      45.646   5.856  11.289  0.00  0.00    +0.000 A 
BRANCH  29  32
ATOM     32  C   UNL     1      44.602   2.936   9.115  0.00  0.00    +0.000 C 
ATOM     33  N   UNL     1      44.280   3.587   7.951  0.00  0.00    +0.000 N 
ATOM     34  O   UNL     1      44.596   1.713   9.175  0.00  0.00    +0.000 OA
ATOM     35  H   UNL     1      44.054   4.564   7.911  0.00  0.00    +0.000 HD
ATOM     36  H   UNL     1      43.988   2.997   7.185  0.00  0.00    +0.000 HD
ENDBRANCH  29  32
ENDBRANCH  24  26
ENDBRANCH  20  24
ENDBRANCH   5  20
TORSDOF 6
ENDMDL
MODEL 9
REMARK VINA RESULT:    -6.572      2.114      3.001
REMARK INTER + INTRA:          -9.793
REMARK INTER:                  -9.481
REMARK INTRA:                  -0.312
REMARK UNBOUND:                -0.916
REMARK  Name = 
REMARK  8 active torsions:
REMARK  status: ('A' for Active; 'I' for Inactive)
REMARK    1  A    between atoms: C_1  and  N_2
REMARK    2  A    between atoms: N_2  and  C_3
REMARK    3  A    between atoms: C_7  and  C_8
REMARK    4  A    between atoms: C_12  and  C_13
REMARK    5  A    between atoms: C_13  and  N_14
REMARK    6  A    between atoms: N_14  and  C_15
REMARK    7  A    between atoms: C_18  and  C_19
REMARK    8  A    between atoms: C_28  and  C_29
REMARK                            x       y       z     vdW  Elec       q    Type
REMARK                         _______ _______ _______ _____ _____    ______ ____
ROOT
ATOM      1  C   UNL     1      47.499   8.200  12.402  0.00  0.00    +0.000 A 
ATOM      2  C   UNL     1      46.671   9.260  12.047  0.00  0.00    +0.000 A 
ATOM      3  C   UNL     1      45.331   9.007  11.775  0.00  0.00    +0.000 A 
ATOM      4  C   UNL     1      44.842   7.711  11.896  0.00  0.00    +0.000 A 
ATOM      5  C   UNL     1      45.707   6.686  12.274  0.00  0.00    +0.000 A 
ATOM      6  N   UNL     1      47.029   6.935  12.476  0.00  0.00    +0.000 NA
ENDROOT
BRANCH   1  13
ATOM      7  C   UNL     1      53.571   7.925  14.456  0.00  0.00    +0.000 C 
ATOM      8  N   UNL     1      53.055   8.173  13.128  0.00  0.00    +0.000 N 
ATOM      9  C   UNL     1      53.903   8.736  12.101  0.00  0.00    +0.000 C 
ATOM     10  C   UNL     1      51.691   8.308  12.976  0.00  0.00    +0.000 A 
ATOM     11  N   UNL     1      51.185   8.549  11.766  0.00  0.00    +0.000 NA
ATOM     12  C   UNL     1      49.841   8.530  11.636  0.00  0.00    +0.000 A 
ATOM     13  C   UNL     1      48.936   8.326  12.666  0.00  0.00    +0.000 A 
ATOM     14  C   UNL     1      49.545   8.193  13.910  0.00  0.00    +0.000 A 
ATOM     15  N   UNL     1      50.906   8.152  14.047  0.00  0.00    +0.000 NA
BRANCH  14  16
ATOM     16  C   UNL     1      48.778   8.087  15.219  0.00  0.00    +0.000 C 
ATOM     17  F   UNL     1      47.751   8.967  15.395  0.00  0.00    +0.000 F 
ATOM     18  F   UNL     1      48.266   6.842  15.444  0.00  0.00    +0.000 F 
ATOM     19  F   UNL     1      49.591   8.335  16.298  0.00  0.00    +0.000 F 
ENDBRANCH  14  16
ENDBRANCH   1  13
BRANCH   5  20
ATOM     20  C   UNL     1      45.236   5.242  12.444  0.00  0.00    +0.000 C 
ATOM     21  C   UNL     1      45.137   4.628  13.828  0.00  0.00    +0.000 C 
ATOM     22  C   UNL     1      46.292   4.269  12.965  0.00  0.00    +0.000 C 
ATOM     23  F   UNL     1      46.311   2.986  12.440  0.00  0.00    +0.000 F 
BRANCH  20  24
ATOM     24  N   UNL     1      44.425   4.756  11.307  0.00  0.00    +0.000 N 
ATOM     25  H   UNL     1      43.592   4.250  11.605  0.00  0.00    +0.000 HD
BRANCH  24  26
ATOM     26  C   UNL     1      44.948   4.279  10.093  0.00  0.00    +0.000 A 
ATOM     27  C   UNL     1      44.917   2.935   9.706  0.00  0.00    +0.000 A 
ATOM     28  C   UNL     1      45.569   2.513   8.541  0.00  0.00    +0.000 A 
ATOM     29  C   UNL     1      46.272   3.432   7.750  0.00  0.00    +0.000 A 
ATOM     30  C   UNL     1      46.327   4.765   8.136  0.00  0.00    +0.000 A 
ATOM     31  C   UNL     1      45.674   5.177   9.303  0.00  0.00    +0.000 A 
BRANCH  29  32
ATOM     32  C   UNL     1      46.990   2.933   6.550  0.00  0.00    +0.000 C 
ATOM     33  N   UNL     1      48.341   2.729   6.672  0.00  0.00    +0.000 N 
ATOM     34  O   UNL     1      46.414   2.725   5.490  0.00  0.00    +0.000 OA
ATOM     35  H   UNL     1      48.886   3.092   7.433  0.00  0.00    +0.000 HD
ATOM     36  H   UNL     1      48.821   2.458   5.826  0.00  0.00    +0.000 HD
ENDBRANCH  29  32
ENDBRANCH  24  26
ENDBRANCH  20  24
ENDBRANCH   5  20
TORSDOF 6
ENDMDL
