MODEL 1
REMARK VINA RESULT:    -8.710      0.000      0.000
REMARK INTER + INTRA:         -12.003
REMARK INTER:                 -11.256
REMARK INTRA:                  -0.747
REMARK UNBOUND:                -0.747
REMARK  Name = 
REMARK  5 active torsions:
REMARK  status: ('A' for Active; 'I' for Inactive)
REMARK    1  A    between atoms: C_2  and  C_4
REMARK    2  A    between atoms: C_7  and  N_8
REMARK    3  A    between atoms: N_8  and  C_9
REMARK    4  A    between atoms: C_9  and  C_10
REMARK    5  A    between atoms: C_14  and  C_15
REMARK                            x       y       z     vdW  Elec       q    Type
REMARK                         _______ _______ _______ _____ _____    ______ ____
ROOT
ATOM      1  C   UNL     1      43.636   4.414  11.181  0.00  0.00    +0.000 C 
ENDROOT
BRANCH   1   2
ATOM      2  C   UNL     1      44.874   4.784  11.966  0.00  0.00    +0.000 A 
ATOM      3  C   UNL     1      45.490   3.854  12.810  0.00  0.00    +0.000 A 
ATOM      4  C   UNL     1      46.637   4.206  13.517  0.00  0.00    +0.000 A 
ATOM      5  C   UNL     1      47.186   5.484  13.375  0.00  0.00    +0.000 A 
ATOM      6  C   UNL     1      46.614   6.438  12.515  0.00  0.00    +0.000 A 
ATOM      7  C   UNL     1      45.432   6.070  11.844  0.00  0.00    +0.000 A 
BRANCH   6   8
ATOM      8  C   UNL     1      47.273   7.739  12.244  0.00  0.00    +0.000 A 
ATOM      9  C   UNL     1      48.631   7.796  11.866  0.00  0.00    +0.000 A 
ATOM     10  C   UNL     1      49.241   9.000  11.503  0.00  0.00    +0.000 A 
ATOM     11  C   UNL     1      48.500  10.171  11.509  0.00  0.00    +0.000 A 
ATOM     12  F   UNL     1      49.072  11.318  11.124  0.00  0.00    +0.000 F 
ATOM     13  C   UNL     1      47.168  10.162  11.899  0.00  0.00    +0.000 A 
ATOM     14  C   UNL     1      46.563   8.957  12.274  0.00  0.00    +0.000 A 
ENDBRANCH   6   8
ENDBRANCH   1   2
BRANCH   1  15
ATOM     15  N   UNL     1      43.813   4.806   9.789  0.00  0.00    +0.000 N 
ATOM     16  H   UNL     1      42.933   4.814   9.281  0.00  0.00    +0.000 HD
BRANCH  15  20
ATOM     17  C   UNL     1      46.479   2.490   7.686  0.00  0.00    +0.000 A 
ATOM     18  C   UNL     1      46.493   3.867   7.564  0.00  0.00    +0.000 A 
ATOM     19  N   UNL     1      45.646   4.672   8.260  0.00  0.00    +0.000 NA
ATOM     20  C   UNL     1      44.779   4.061   9.098  0.00  0.00    +0.000 A 
ATOM     21  C   UNL     1      44.794   2.664   9.218  0.00  0.00    +0.000 A 
ATOM     22  N   UNL     1      45.629   1.841   8.528  0.00  0.00    +0.000 NA
BRANCH  17  24
ATOM     23  N   UNL     1      48.525   2.281   6.406  0.00  0.00    +0.000 N 
ATOM     24  C   UNL     1      47.388   1.660   6.850  0.00  0.00    +0.000 C 
ATOM     25  O   UNL     1      47.149   0.488   6.589  0.00  0.00    +0.000 OA
ATOM     26  H   UNL     1      49.205   1.759   5.875  0.00  0.00    +0.000 HD
ATOM     27  H   UNL     1      48.710   3.244   6.670  0.00  0.00    +0.000 HD
ENDBRANCH  17  24
ENDBRANCH  15  20
ENDBRANCH   1  15
TORSDOF 5
ENDMDL
MODEL 2
REMARK VINA RESULT:    -8.523      2.643      3.993
REMARK INTER + INTRA:         -11.761
REMARK INTER:                 -10.956
REMARK INTRA:                  -0.805
REMARK UNBOUND:                -0.747
REMARK  Name = 
REMARK  5 active torsions:
REMARK  status: ('A' for Active; 'I' for Inactive)
REMARK    1  A    between atoms: C_2  and  C_4
REMARK    2  A    between atoms: C_7  and  N_8
REMARK    3  A    between atoms: N_8  and  C_9
REMARK    4  A    between atoms: C_9  and  C_10
REMARK    5  A    between atoms: C_14  and  C_15
REMARK                            x       y       z     vdW  Elec       q    Type
REMARK                         _______ _______ _______ _____ _____    ______ ____
ROOT
ATOM      1  C   UNL     1      43.791   4.604  11.281  0.00  0.00    +0.000 C 
ENDROOT
BRANCH   1   2
ATOM      2  C   UNL     1      44.920   5.405  11.891  0.00  0.00    +0.000 A 
ATOM      3  C   UNL     1      45.215   6.692  11.427  0.00  0.00    +0.000 A 
ATOM      4  C   UNL     1      46.249   7.422  12.007  0.00  0.00    +0.000 A 
ATOM      5  C   UNL     1      46.986   6.879  13.063  0.00  0.00    +0.000 A 
ATOM      6  C   UNL     1      46.703   5.602  13.578  0.00  0.00    +0.000 A 
ATOM      7  C   UNL     1      45.680   4.869  12.946  0.00  0.00    +0.000 A 
BRANCH   6   8
ATOM      8  C   UNL     1      47.379   5.081  14.791  0.00  0.00    +0.000 A 
ATOM      9  C   UNL     1      48.253   5.900  15.538  0.00  0.00    +0.000 A 
ATOM     10  C   UNL     1      48.815   5.466  16.741  0.00  0.00    +0.000 A 
ATOM     11  C   UNL     1      48.508   4.202  17.222  0.00  0.00    +0.000 A 
ATOM     12  F   UNL     1      49.014   3.800  18.394  0.00  0.00    +0.000 F 
ATOM     13  C   UNL     1      47.673   3.356  16.505  0.00  0.00    +0.000 A 
ATOM     14  C   UNL     1      47.122   3.790  15.295  0.00  0.00    +0.000 A 
ENDBRANCH   6   8
ENDBRANCH   1   2
BRANCH   1  15
ATOM     15  N   UNL     1      43.797   4.787   9.836  0.00  0.00    +0.000 N 
ATOM     16  H   UNL     1      42.874   4.658   9.432  0.00  0.00    +0.000 HD
BRANCH  15  20
ATOM     17  C   UNL     1      46.419   2.370   7.791  0.00  0.00    +0.000 A 
ATOM     18  C   UNL     1      46.410   3.737   7.581  0.00  0.00    +0.000 A 
ATOM     19  N   UNL     1      45.577   4.575   8.253  0.00  0.00    +0.000 NA
ATOM     20  C   UNL     1      44.749   4.010   9.160  0.00  0.00    +0.000 A 
ATOM     21  C   UNL     1      44.787   2.624   9.368  0.00  0.00    +0.000 A 
ATOM     22  N   UNL     1      45.608   1.767   8.703  0.00  0.00    +0.000 NA
BRANCH  17  24
ATOM     23  N   UNL     1      48.416   2.104   6.445  0.00  0.00    +0.000 N 
ATOM     24  C   UNL     1      47.310   1.498   6.978  0.00  0.00    +0.000 C 
ATOM     25  O   UNL     1      47.083   0.307   6.810  0.00  0.00    +0.000 OA
ATOM     26  H   UNL     1      49.084   1.558   5.925  0.00  0.00    +0.000 HD
ATOM     27  H   UNL     1      48.593   3.086   6.634  0.00  0.00    +0.000 HD
ENDBRANCH  17  24
ENDBRANCH  15  20
ENDBRANCH   1  15
TORSDOF 5
ENDMDL
MODEL 3
REMARK VINA RESULT:    -8.299      3.971      6.711
REMARK INTER + INTRA:         -11.471
REMARK INTER:                 -10.627
REMARK INTRA:                  -0.844
REMARK UNBOUND:                -0.747
REMARK  Name = 
REMARK  5 active torsions:
REMARK  status: ('A' for Active; 'I' for Inactive)
REMARK    1  A    between atoms: C_2  and  C_4
REMARK    2  A    between atoms: C_7  and  N_8
REMARK    3  A    between atoms: N_8  and  C_9
REMARK    4  A    between atoms: C_9  and  C_10
REMARK    5  A    between atoms: C_14  and  C_15
REMARK                            x       y       z     vdW  Elec       q    Type
REMARK                         _______ _______ _______ _____ _____    ______ ____
ROOT
ATOM      1  C   UNL     1      43.436   6.269  11.316  0.00  0.00    +0.000 C 
ENDROOT
BRANCH   1   2
ATOM      2  C   UNL     1      43.713   4.814  11.011  0.00  0.00    +0.000 A 
ATOM      3  C   UNL     1      43.095   3.798  11.750  0.00  0.00    +0.000 A 
ATOM      4  C   UNL     1      43.351   2.463  11.449  0.00  0.00    +0.000 A 
ATOM      5  C   UNL     1      44.215   2.131  10.401  0.00  0.00    +0.000 A 
ATOM      6  C   UNL     1      44.833   3.121   9.616  0.00  0.00    +0.000 A 
ATOM      7  C   UNL     1      44.590   4.463   9.969  0.00  0.00    +0.000 A 
BRANCH   6   8
ATOM      8  C   UNL     1      45.629   2.779   8.413  0.00  0.00    +0.000 A 
ATOM      9  C   UNL     1      45.919   3.757   7.437  0.00  0.00    +0.000 A 
ATOM     10  C   UNL     1      46.755   3.483   6.351  0.00  0.00    +0.000 A 
ATOM     11  C   UNL     1      47.320   2.223   6.224  0.00  0.00    +0.000 A 
ATOM     12  F   UNL     1      48.152   1.972   5.207  0.00  0.00    +0.000 F 
ATOM     13  C   UNL     1      47.040   1.226   7.148  0.00  0.00    +0.000 A 
ATOM     14  C   UNL     1      46.193   1.499   8.227  0.00  0.00    +0.000 A 
ENDBRANCH   6   8
ENDBRANCH   1   2
BRANCH   1  15
ATOM     15  N   UNL     1      43.942   6.588  12.644  0.00  0.00    +0.000 N 
ATOM     16  H   UNL     1      43.416   7.339  13.081  0.00  0.00    +0.000 HD
BRANCH  15  20
ATOM     17  C   UNL     1      48.011   7.169  12.668  0.00  0.00    +0.000 A 
ATOM     18  C   UNL     1      47.160   8.159  12.213  0.00  0.00    +0.000 A 
ATOM     19  N   UNL     1      45.807   8.018  12.211  0.00  0.00    +0.000 NA
ATOM     20  C   UNL     1      45.318   6.853  12.689  0.00  0.00    +0.000 A 
ATOM     21  C   UNL     1      46.199   5.869  13.160  0.00  0.00    +0.000 A 
ATOM     22  N   UNL     1      47.554   5.987  13.167  0.00  0.00    +0.000 NA
BRANCH  17  24
ATOM     23  N   UNL     1      50.151   7.388  13.780  0.00  0.00    +0.000 N 
ATOM     24  C   UNL     1      49.485   7.358  12.585  0.00  0.00    +0.000 C 
ATOM     25  O   UNL     1      50.072   7.461  11.516  0.00  0.00    +0.000 OA
ATOM     26  H   UNL     1      51.156   7.466  13.790  0.00  0.00    +0.000 HD
ATOM     27  H   UNL     1      49.638   7.265  14.648  0.00  0.00    +0.000 HD
ENDBRANCH  17  24
ENDBRANCH  15  20
ENDBRANCH   1  15
TORSDOF 5
ENDMDL
MODEL 4
REMARK VINA RESULT:    -8.063      4.629      7.386
REMARK INTER + INTRA:         -11.167
REMARK INTER:                 -10.689
REMARK INTRA:                  -0.478
REMARK UNBOUND:                -0.747
REMARK  Name = 
REMARK  5 active torsions:
REMARK  status: ('A' for Active; 'I' for Inactive)
REMARK    1  A    between atoms: C_2  and  C_4
REMARK    2  A    between atoms: C_7  and  N_8
REMARK    3  A    between atoms: N_8  and  C_9
REMARK    4  A    between atoms: C_9  and  C_10
REMARK    5  A    between atoms: C_14  and  C_15
REMARK                            x       y       z     vdW  Elec       q    Type
REMARK                         _______ _______ _______ _____ _____    ______ ____
ROOT
ATOM      1  C   UNL     1      46.229   7.126  12.453  0.00  0.00    +0.000 C 
ENDROOT
BRANCH   1   2
ATOM      2  C   UNL     1      45.295   6.225  11.677  0.00  0.00    +0.000 A 
ATOM      3  C   UNL     1      43.909   6.320  11.843  0.00  0.00    +0.000 A 
ATOM      4  C   UNL     1      43.061   5.491  11.113  0.00  0.00    +0.000 A 
ATOM      5  C   UNL     1      43.589   4.573  10.201  0.00  0.00    +0.000 A 
ATOM      6  C   UNL     1      44.974   4.466   9.983  0.00  0.00    +0.000 A 
ATOM      7  C   UNL     1      45.811   5.286  10.765  0.00  0.00    +0.000 A 
BRANCH   6   8
ATOM      8  C   UNL     1      45.532   3.605   8.913  0.00  0.00    +0.000 A 
ATOM      9  C   UNL     1      46.164   4.172   7.786  0.00  0.00    +0.000 A 
ATOM     10  C   UNL     1      46.790   3.378   6.820  0.00  0.00    +0.000 A 
ATOM     11  C   UNL     1      46.799   2.000   6.969  0.00  0.00    +0.000 A 
ATOM     12  F   UNL     1      47.432   1.242   6.067  0.00  0.00    +0.000 F 
ATOM     13  C   UNL     1      46.167   1.402   8.050  0.00  0.00    +0.000 A 
ATOM     14  C   UNL     1      45.530   2.198   9.008  0.00  0.00    +0.000 A 
ENDBRANCH   6   8
ENDBRANCH   1   2
BRANCH   1  15
ATOM     15  N   UNL     1      47.472   6.415  12.720  0.00  0.00    +0.000 N 
ATOM     16  H   UNL     1      47.735   5.806  11.950  0.00  0.00    +0.000 HD
BRANCH  15  20
ATOM     17  C   UNL     1      47.570   4.173  16.164  0.00  0.00    +0.000 A 
ATOM     18  C   UNL     1      48.251   5.373  16.085  0.00  0.00    +0.000 A 
ATOM     19  N   UNL     1      48.226   6.158  14.975  0.00  0.00    +0.000 NA
ATOM     20  C   UNL     1      47.486   5.713  13.935  0.00  0.00    +0.000 A 
ATOM     21  C   UNL     1      46.790   4.501  14.043  0.00  0.00    +0.000 A 
ATOM     22  N   UNL     1      46.806   3.699  15.142  0.00  0.00    +0.000 NA
BRANCH  17  24
ATOM     23  N   UNL     1      48.876   3.418  18.059  0.00  0.00    +0.000 N 
ATOM     24  C   UNL     1      47.689   3.329  17.384  0.00  0.00    +0.000 C 
ATOM     25  O   UNL     1      46.777   2.612  17.775  0.00  0.00    +0.000 OA
ATOM     26  H   UNL     1      49.002   2.908  18.919  0.00  0.00    +0.000 HD
ATOM     27  H   UNL     1      49.600   4.049  17.727  0.00  0.00    +0.000 HD
ENDBRANCH  17  24
ENDBRANCH  15  20
ENDBRANCH   1  15
TORSDOF 5
ENDMDL
MODEL 5
REMARK VINA RESULT:    -7.870      5.591      8.373
REMARK INTER + INTRA:         -10.917
REMARK INTER:                 -10.310
REMARK INTRA:                  -0.607
REMARK UNBOUND:                -0.747
REMARK  Name = 
REMARK  5 active torsions:
REMARK  status: ('A' for Active; 'I' for Inactive)
REMARK    1  A    between atoms: C_2  and  C_4
REMARK    2  A    between atoms: C_7  and  N_8
REMARK    3  A    between atoms: N_8  and  C_9
REMARK    4  A    between atoms: C_9  and  C_10
REMARK    5  A    between atoms: C_14  and  C_15
REMARK                            x       y       z     vdW  Elec       q    Type
REMARK                         _______ _______ _______ _____ _____    ______ ____
ROOT
ATOM      1  C   UNL     1      46.077   5.305  13.915  0.00  0.00    +0.000 C 
ENDROOT
BRANCH   1   2
ATOM      2  C   UNL     1      45.133   5.014  12.770  0.00  0.00    +0.000 A 
ATOM      3  C   UNL     1      43.809   5.468  12.801  0.00  0.00    +0.000 A 
ATOM      4  C   UNL     1      42.955   5.202  11.733  0.00  0.00    +0.000 A 
ATOM      5  C   UNL     1      43.420   4.494  10.621  0.00  0.00    +0.000 A 
ATOM      6  C   UNL     1      44.750   4.046  10.537  0.00  0.00    +0.000 A 
ATOM      7  C   UNL     1      45.580   4.292  11.649  0.00  0.00    +0.000 A 
BRANCH   6   8
ATOM      8  C   UNL     1      45.290   3.429   9.302  0.00  0.00    +0.000 A 
ATOM      9  C   UNL     1      45.750   4.232   8.236  0.00  0.00    +0.000 A 
ATOM     10  C   UNL     1      46.360   3.674   7.109  0.00  0.00    +0.000 A 
ATOM     11  C   UNL     1      46.524   2.299   7.030  0.00  0.00    +0.000 A 
ATOM     12  F   UNL     1      47.143   1.767   5.970  0.00  0.00    +0.000 F 
ATOM     13  C   UNL     1      46.062   1.473   8.046  0.00  0.00    +0.000 A 
ATOM     14  C   UNL     1      45.441   2.034   9.167  0.00  0.00    +0.000 A 
ENDBRANCH   6   8
ENDBRANCH   1   2
BRANCH   1  15
ATOM     15  N   UNL     1      46.534   4.049  14.493  0.00  0.00    +0.000 N 
ATOM     16  H   UNL     1      45.795   3.352  14.520  0.00  0.00    +0.000 HD
BRANCH  15  20
ATOM     17  C   UNL     1      48.245   4.648  18.182  0.00  0.00    +0.000 A 
ATOM     18  C   UNL     1      47.390   3.583  17.966  0.00  0.00    +0.000 A 
ATOM     19  N   UNL     1      46.823   3.334  16.756  0.00  0.00    +0.000 NA
ATOM     20  C   UNL     1      47.141   4.179  15.751  0.00  0.00    +0.000 A 
ATOM     21  C   UNL     1      48.022   5.243  15.988  0.00  0.00    +0.000 A 
ATOM     22  N   UNL     1      48.597   5.513  17.191  0.00  0.00    +0.000 NA
BRANCH  17  24
ATOM     23  N   UNL     1      48.627   3.891  20.451  0.00  0.00    +0.000 N 
ATOM     24  C   UNL     1      48.784   4.905  19.545  0.00  0.00    +0.000 C 
ATOM     25  O   UNL     1      49.353   5.949  19.837  0.00  0.00    +0.000 OA
ATOM     26  H   UNL     1      49.012   3.983  21.378  0.00  0.00    +0.000 HD
ATOM     27  H   UNL     1      48.182   3.023  20.166  0.00  0.00    +0.000 HD
ENDBRANCH  17  24
ENDBRANCH  15  20
ENDBRANCH   1  15
TORSDOF 5
ENDMDL
MODEL 6
REMARK VINA RESULT:    -6.550      5.192      7.776
REMARK INTER + INTRA:          -9.211
REMARK INTER:                  -8.643
REMARK INTRA:                  -0.568
REMARK UNBOUND:                -0.747
REMARK  Name = 
REMARK  5 active torsions:
REMARK  status: ('A' for Active; 'I' for Inactive)
REMARK    1  A    between atoms: C_2  and  C_4
REMARK    2  A    between atoms: C_7  and  N_8
REMARK    3  A    between atoms: N_8  and  C_9
REMARK    4  A    between atoms: C_9  and  C_10
REMARK    5  A    between atoms: C_14  and  C_15
REMARK                            x       y       z     vdW  Elec       q    Type
REMARK                         _______ _______ _______ _____ _____    ______ ____
ROOT
ATOM      1  C   UNL     1      48.616   7.503  13.358  0.00  0.00    +0.000 C 
ENDROOT
BRANCH   1   2
ATOM      2  C   UNL     1      47.271   7.495  12.668  0.00  0.00    +0.000 A 
ATOM      3  C   UNL     1      46.503   8.662  12.585  0.00  0.00    +0.000 A 
ATOM      4  C   UNL     1      45.271   8.641  11.935  0.00  0.00    +0.000 A 
ATOM      5  C   UNL     1      44.805   7.460  11.350  0.00  0.00    +0.000 A 
ATOM      6  C   UNL     1      45.559   6.273  11.385  0.00  0.00    +0.000 A 
ATOM      7  C   UNL     1      46.781   6.312  12.085  0.00  0.00    +0.000 A 
BRANCH   6   8
ATOM      8  C   UNL     1      45.143   5.061  10.641  0.00  0.00    +0.000 A 
ATOM      9  C   UNL     1      45.517   4.878   9.292  0.00  0.00    +0.000 A 
ATOM     10  C   UNL     1      45.227   3.696   8.605  0.00  0.00    +0.000 A 
ATOM     11  C   UNL     1      44.558   2.672   9.258  0.00  0.00    +0.000 A 
ATOM     12  F   UNL     1      44.315   1.524   8.614  0.00  0.00    +0.000 F 
ATOM     13  C   UNL     1      44.151   2.822  10.577  0.00  0.00    +0.000 A 
ATOM     14  C   UNL     1      44.432   4.011  11.258  0.00  0.00    +0.000 A 
ENDBRANCH   6   8
ENDBRANCH   1   2
BRANCH   1  15
ATOM     15  N   UNL     1      48.427   7.777  14.777  0.00  0.00    +0.000 N 
ATOM     16  H   UNL     1      49.008   8.547  15.096  0.00  0.00    +0.000 HD
BRANCH  15  20
ATOM     17  C   UNL     1      48.913   4.369  17.023  0.00  0.00    +0.000 A 
ATOM     18  C   UNL     1      49.677   5.494  17.274  0.00  0.00    +0.000 A 
ATOM     19  N   UNL     1      49.532   6.649  16.572  0.00  0.00    +0.000 NA
ATOM     20  C   UNL     1      48.586   6.658  15.607  0.00  0.00    +0.000 A 
ATOM     21  C   UNL     1      47.812   5.511  15.380  0.00  0.00    +0.000 A 
ATOM     22  N   UNL     1      47.944   4.344  16.067  0.00  0.00    +0.000 NA
BRANCH  17  24
ATOM     23  N   UNL     1      48.523   3.008  18.989  0.00  0.00    +0.000 N 
ATOM     24  C   UNL     1      49.163   3.114  17.783  0.00  0.00    +0.000 C 
ATOM     25  O   UNL     1      49.880   2.221  17.352  0.00  0.00    +0.000 OA
ATOM     26  H   UNL     1      48.613   2.163  19.530  0.00  0.00    +0.000 HD
ATOM     27  H   UNL     1      47.907   3.753  19.301  0.00  0.00    +0.000 HD
ENDBRANCH  17  24
ENDBRANCH  15  20
ENDBRANCH   1  15
TORSDOF 5
ENDMDL
MODEL 7
REMARK VINA RESULT:    -6.487      5.776      7.948
REMARK INTER + INTRA:          -9.129
REMARK INTER:                  -8.302
REMARK INTRA:                  -0.828
REMARK UNBOUND:                -0.747
REMARK  Name = 
REMARK  5 active torsions:
REMARK  status: ('A' for Active; 'I' for Inactive)
REMARK    1  A    between atoms: C_2  and  C_4
REMARK    2  A    between atoms: C_7  and  N_8
REMARK    3  A    between atoms: N_8  and  C_9
REMARK    4  A    between atoms: C_9  and  C_10
REMARK    5  A    between atoms: C_14  and  C_15
REMARK                            x       y       z     vdW  Elec       q    Type
REMARK                         _______ _______ _______ _____ _____    ______ ____
ROOT
ATOM      1  C   UNL     1      49.169   7.660  15.641  0.00  0.00    +0.000 C 
ENDROOT
BRANCH   1   2
ATOM      2  C   UNL     1      48.714   7.544  14.203  0.00  0.00    +0.000 A 
ATOM      3  C   UNL     1      49.469   8.105  13.167  0.00  0.00    +0.000 A 
ATOM      4  C   UNL     1      49.044   7.979  11.847  0.00  0.00    +0.000 A 
ATOM      5  C   UNL     1      47.870   7.280  11.550  0.00  0.00    +0.000 A 
ATOM      6  C   UNL     1      47.099   6.676  12.559  0.00  0.00    +0.000 A 
ATOM      7  C   UNL     1      47.529   6.855  13.888  0.00  0.00    +0.000 A 
BRANCH   6   8
ATOM      8  C   UNL     1      45.939   5.808  12.241  0.00  0.00    +0.000 A 
ATOM      9  C   UNL     1      45.600   5.519  10.901  0.00  0.00    +0.000 A 
ATOM     10  C   UNL     1      44.579   4.619  10.582  0.00  0.00    +0.000 A 
ATOM     11  C   UNL     1      43.881   3.988  11.600  0.00  0.00    +0.000 A 
ATOM     12  F   UNL     1      42.931   3.097  11.295  0.00  0.00    +0.000 F 
ATOM     13  C   UNL     1      44.167   4.264  12.930  0.00  0.00    +0.000 A 
ATOM     14  C   UNL     1      45.181   5.174  13.246  0.00  0.00    +0.000 A 
ENDBRANCH   6   8
ENDBRANCH   1   2
BRANCH   1  15
ATOM     15  N   UNL     1      48.438   6.698  16.456  0.00  0.00    +0.000 N 
ATOM     16  H   UNL     1      48.013   7.134  17.269  0.00  0.00    +0.000 HD
BRANCH  15  20
ATOM     17  C   UNL     1      50.565   3.299  17.358  0.00  0.00    +0.000 A 
ATOM     18  C   UNL     1      51.166   4.542  17.415  0.00  0.00    +0.000 A 
ATOM     19  N   UNL     1      50.493   5.694  17.149  0.00  0.00    +0.000 NA
ATOM     20  C   UNL     1      49.186   5.572  16.829  0.00  0.00    +0.000 A 
ATOM     21  C   UNL     1      48.593   4.303  16.793  0.00  0.00    +0.000 A 
ATOM     22  N   UNL     1      49.248   3.139  17.051  0.00  0.00    +0.000 NA
BRANCH  17  24
ATOM     23  N   UNL     1      52.378   2.187  18.517  0.00  0.00    +0.000 N 
ATOM     24  C   UNL     1      51.371   2.071  17.598  0.00  0.00    +0.000 C 
ATOM     25  O   UNL     1      51.138   1.014  17.027  0.00  0.00    +0.000 OA
ATOM     26  H   UNL     1      52.930   1.379  18.760  0.00  0.00    +0.000 HD
ATOM     27  H   UNL     1      52.522   3.069  18.999  0.00  0.00    +0.000 HD
ENDBRANCH  17  24
ENDBRANCH  15  20
ENDBRANCH   1  15
TORSDOF 5
ENDMDL
MODEL 8
REMARK VINA RESULT:    -6.300      5.810      7.881
REMARK INTER + INTRA:          -8.888
REMARK INTER:                  -8.081
REMARK INTRA:                  -0.807
REMARK UNBOUND:                -0.747
REMARK  Name = 
REMARK  5 active torsions:
REMARK  status: ('A' for Active; 'I' for Inactive)
REMARK    1  A    between atoms: C_2  and  C_4
REMARK    2  A    between atoms: C_7  and  N_8
REMARK    3  A    between atoms: N_8  and  C_9
REMARK    4  A    between atoms: C_9  and  C_10
REMARK    5  A    between atoms: C_14  and  C_15
REMARK                            x       y       z     vdW  Elec       q    Type
REMARK                         _______ _______ _______ _____ _____    ______ ____
ROOT
ATOM      1  C   UNL     1      48.515   7.667  15.265  0.00  0.00    +0.000 C 
ENDROOT
BRANCH   1   2
ATOM      2  C   UNL     1      48.964   7.070  16.581  0.00  0.00    +0.000 A 
ATOM      3  C   UNL     1      48.585   7.652  17.796  0.00  0.00    +0.000 A 
ATOM      4  C   UNL     1      48.997   7.084  18.999  0.00  0.00    +0.000 A 
ATOM      5  C   UNL     1      49.777   5.924  18.998  0.00  0.00    +0.000 A 
ATOM      6  C   UNL     1      50.154   5.292  17.800  0.00  0.00    +0.000 A 
ATOM      7  C   UNL     1      49.760   5.911  16.598  0.00  0.00    +0.000 A 
BRANCH   6   8
ATOM      8  C   UNL     1      50.851   3.983  17.794  0.00  0.00    +0.000 A 
ATOM      9  C   UNL     1      50.197   2.820  17.334  0.00  0.00    +0.000 A 
ATOM     10  C   UNL     1      50.868   1.599  17.219  0.00  0.00    +0.000 A 
ATOM     11  C   UNL     1      52.210   1.522  17.559  0.00  0.00    +0.000 A 
ATOM     12  F   UNL     1      52.864   0.364  17.412  0.00  0.00    +0.000 F 
ATOM     13  C   UNL     1      52.882   2.637  18.040  0.00  0.00    +0.000 A 
ATOM     14  C   UNL     1      52.205   3.854  18.166  0.00  0.00    +0.000 A 
ENDBRANCH   6   8
ENDBRANCH   1   2
BRANCH   1  15
ATOM     15  N   UNL     1      48.631   6.661  14.217  0.00  0.00    +0.000 N 
ATOM     16  H   UNL     1      49.145   7.009  13.413  0.00  0.00    +0.000 HD
BRANCH  15  20
ATOM     17  C   UNL     1      45.019   4.944  13.267  0.00  0.00    +0.000 A 
ATOM     18  C   UNL     1      45.296   6.249  12.905  0.00  0.00    +0.000 A 
ATOM     19  N   UNL     1      46.486   6.847  13.177  0.00  0.00    +0.000 NA
ATOM     20  C   UNL     1      47.409   6.098  13.820  0.00  0.00    +0.000 A 
ATOM     21  C   UNL     1      47.113   4.772  14.164  0.00  0.00    +0.000 A 
ATOM     22  N   UNL     1      45.927   4.156  13.906  0.00  0.00    +0.000 NA
BRANCH  17  24
ATOM     23  N   UNL     1      43.645   3.025  12.721  0.00  0.00    +0.000 N 
ATOM     24  C   UNL     1      43.674   4.366  12.998  0.00  0.00    +0.000 C 
ATOM     25  O   UNL     1      42.653   5.038  13.040  0.00  0.00    +0.000 OA
ATOM     26  H   UNL     1      42.760   2.564  12.577  0.00  0.00    +0.000 HD
ATOM     27  H   UNL     1      44.507   2.489  12.729  0.00  0.00    +0.000 HD
ENDBRANCH  17  24
ENDBRANCH  15  20
ENDBRANCH   1  15
TORSDOF 5
ENDMDL
MODEL 9
REMARK VINA RESULT:    -6.261      5.866      7.604
REMARK INTER + INTRA:          -8.838
REMARK INTER:                  -8.216
REMARK INTRA:                  -0.622
REMARK UNBOUND:                -0.747
REMARK  Name = 
REMARK  5 active torsions:
REMARK  status: ('A' for Active; 'I' for Inactive)
REMARK    1  A    between atoms: C_2  and  C_4
REMARK    2  A    between atoms: C_7  and  N_8
REMARK    3  A    between atoms: N_8  and  C_9
REMARK    4  A    between atoms: C_9  and  C_10
REMARK    5  A    between atoms: C_14  and  C_15
REMARK                            x       y       z     vdW  Elec       q    Type
REMARK                         _______ _______ _______ _____ _____    ______ ____
ROOT
ATOM      1  C   UNL     1      47.119   4.234  15.925  0.00  0.00    +0.000 C 
ENDROOT
BRANCH   1   2
ATOM      2  C   UNL     1      48.226   4.500  16.921  0.00  0.00    +0.000 A 
ATOM      3  C   UNL     1      48.087   5.494  17.896  0.00  0.00    +0.000 A 
ATOM      4  C   UNL     1      49.111   5.719  18.813  0.00  0.00    +0.000 A 
ATOM      5  C   UNL     1      50.273   4.944  18.773  0.00  0.00    +0.000 A 
ATOM      6  C   UNL     1      50.440   3.916  17.827  0.00  0.00    +0.000 A 
ATOM      7  C   UNL     1      49.408   3.739  16.886  0.00  0.00    +0.000 A 
BRANCH   6   8
ATOM      8  C   UNL     1      51.601   2.994  17.873  0.00  0.00    +0.000 A 
ATOM      9  C   UNL     1      51.464   1.642  17.494  0.00  0.00    +0.000 A 
ATOM     10  C   UNL     1      52.565   0.784  17.427  0.00  0.00    +0.000 A 
ATOM     11  C   UNL     1      53.827   1.267  17.735  0.00  0.00    +0.000 A 
ATOM     12  F   UNL     1      54.888   0.458  17.633  0.00  0.00    +0.000 F 
ATOM     13  C   UNL     1      54.001   2.585  18.137  0.00  0.00    +0.000 A 
ATOM     14  C   UNL     1      52.895   3.437  18.215  0.00  0.00    +0.000 A 
ENDBRANCH   6   8
ENDBRANCH   1   2
BRANCH   1  15
ATOM     15  N   UNL     1      47.127   5.276  14.907  0.00  0.00    +0.000 N 
ATOM     16  H   UNL     1      46.783   6.162  15.266  0.00  0.00    +0.000 HD
BRANCH  15  20
ATOM     17  C   UNL     1      45.038   4.133  11.556  0.00  0.00    +0.000 A 
ATOM     18  C   UNL     1      45.306   5.468  11.798  0.00  0.00    +0.000 A 
ATOM     19  N   UNL     1      46.015   5.887  12.881  0.00  0.00    +0.000 NA
ATOM     20  C   UNL     1      46.463   4.928  13.721  0.00  0.00    +0.000 A 
ATOM     21  C   UNL     1      46.194   3.580  13.447  0.00  0.00    +0.000 A 
ATOM     22  N   UNL     1      45.483   3.140  12.374  0.00  0.00    +0.000 NA
BRANCH  17  24
ATOM     23  N   UNL     1      43.869   4.753   9.527  0.00  0.00    +0.000 N 
ATOM     24  C   UNL     1      44.203   3.742  10.388  0.00  0.00    +0.000 C 
ATOM     25  O   UNL     1      43.850   2.587  10.194  0.00  0.00    +0.000 OA
ATOM     26  H   UNL     1      43.345   4.546   8.691  0.00  0.00    +0.000 HD
ATOM     27  H   UNL     1      44.207   5.695   9.699  0.00  0.00    +0.000 HD
ENDBRANCH  17  24
ENDBRANCH  15  20
ENDBRANCH   1  15
TORSDOF 5
ENDMDL
