MODEL 1
REMARK VINA RESULT:    -7.754      0.000      0.000
REMARK INTER + INTRA:         -10.412
REMARK INTER:                 -10.474
REMARK INTRA:                   0.062
REMARK UNBOUND:                 0.062
REMARK  Name = 
REMARK  8 active torsions:
REMARK  status: ('A' for Active; 'I' for Inactive)
REMARK    1  A    between atoms: C_1  and  O_2
REMARK    2  A    between atoms: O_2  and  C_3
REMARK    3  A    between atoms: C_6  and  C_7
REMARK    4  A    between atoms: C_7  and  N_8
REMARK    5  A    between atoms: N_8  and  C_9
REMARK    6  A    between atoms: C_12  and  C_13
REMARK    7  A    between atoms: C_17  and  O_18
REMARK    8  A    between atoms: O_18  and  C_19
REMARK                            x       y       z     vdW  Elec       q    Type
REMARK                         _______ _______ _______ _____ _____    ______ ____
ROOT
ATOM      1  N   UNL     1      43.590   5.199   9.858  0.00  0.00    +0.000 N 
ATOM      2  H   UNL     1      43.252   5.831   9.144  0.00  0.00    +0.000 HD
ENDROOT
BRANCH   1   3
ATOM      3  C   UNL     1      44.445   4.221   9.316  0.00  0.00    +0.000 A 
ATOM      4  N   UNL     1      45.404   4.610   8.443  0.00  0.00    +0.000 NA
ATOM      5  C   UNL     1      46.197   3.657   7.905  0.00  0.00    +0.000 A 
ATOM      6  C   UNL     1      46.129   2.311   8.224  0.00  0.00    +0.000 A 
ATOM      7  C   UNL     1      45.155   1.923   9.154  0.00  0.00    +0.000 A 
ATOM      8  C   UNL     1      44.283   2.871   9.699  0.00  0.00    +0.000 A 
BRANCH   6   9
ATOM      9  C   UNL     1      47.025   1.285   7.643  0.00  0.00    +0.000 C 
ATOM     10  N   UNL     1      48.113   1.692   6.925  0.00  0.00    +0.000 N 
ATOM     11  O   UNL     1      46.798   0.093   7.789  0.00  0.00    +0.000 OA
ATOM     12  H   UNL     1      48.387   2.641   6.733  0.00  0.00    +0.000 HD
ATOM     13  H   UNL     1      48.696   0.954   6.546  0.00  0.00    +0.000 HD
ENDBRANCH   6   9
BRANCH   8  14
ATOM     14  O   UNL     1      43.290   2.589  10.605  0.00  0.00    +0.000 OA
ATOM     15  C   UNL     1      43.686   2.034  11.856  0.00  0.00    +0.000 C 
ENDBRANCH   8  14
ENDBRANCH   1   3
BRANCH   1  16
ATOM     16  C   UNL     1      43.693   5.645  11.254  0.00  0.00    +0.000 C 
ATOM     17  C   UNL     1      42.671   6.561  11.896  0.00  0.00    +0.000 C 
ATOM     18  C   UNL     1      42.657   5.106  12.230  0.00  0.00    +0.000 C 
BRANCH  16  22
ATOM     19  C   UNL     1      47.743   6.096  12.792  0.00  0.00    +0.000 A 
ATOM     20  C   UNL     1      46.970   4.999  13.168  0.00  0.00    +0.000 A 
ATOM     21  C   UNL     1      45.685   4.824  12.636  0.00  0.00    +0.000 A 
ATOM     22  C   UNL     1      45.146   5.730  11.705  0.00  0.00    +0.000 A 
ATOM     23  C   UNL     1      45.970   6.785  11.286  0.00  0.00    +0.000 A 
ATOM     24  C   UNL     1      47.245   6.965  11.821  0.00  0.00    +0.000 A 
ATOM     25  F   UNL     1      47.969   8.001  11.375  0.00  0.00    +0.000 F 
BRANCH  19  27
ATOM     26  C   UNL     1      48.933   6.986  14.619  0.00  0.00    +0.000 C 
ATOM     27  O   UNL     1      48.955   6.209  13.422  0.00  0.00    +0.000 OA
ENDBRANCH  19  27
ENDBRANCH  16  22
ENDBRANCH   1  16
TORSDOF 6
ENDMDL
MODEL 2
REMARK VINA RESULT:    -7.715      2.902      6.640
REMARK INTER + INTRA:         -10.359
REMARK INTER:                  -9.788
REMARK INTRA:                  -0.571
REMARK UNBOUND:                 0.062
REMARK  Name = 
REMARK  8 active torsions:
REMARK  status: ('A' for Active; 'I' for Inactive)
REMARK    1  A    between atoms: C_1  and  O_2
REMARK    2  A    between atoms: O_2  and  C_3
REMARK    3  A    between atoms: C_6  and  C_7
REMARK    4  A    between atoms: C_7  and  N_8
REMARK    5  A    between atoms: N_8  and  C_9
REMARK    6  A    between atoms: C_12  and  C_13
REMARK    7  A    between atoms: C_17  and  O_18
REMARK    8  A    between atoms: O_18  and  C_19
REMARK                            x       y       z     vdW  Elec       q    Type
REMARK                         _______ _______ _______ _____ _____    ______ ____
ROOT
ATOM      1  N   UNL     1      45.054   6.311  10.638  0.00  0.00    +0.000 N 
ATOM      2  H   UNL     1      44.644   7.049  10.081  0.00  0.00    +0.000 HD
ENDROOT
BRANCH   1   3
ATOM      3  C   UNL     1      45.852   6.831  11.674  0.00  0.00    +0.000 A 
ATOM      4  N   UNL     1      46.877   6.079  12.142  0.00  0.00    +0.000 NA
ATOM      5  C   UNL     1      47.616   6.576  13.159  0.00  0.00    +0.000 A 
ATOM      6  C   UNL     1      47.428   7.825  13.725  0.00  0.00    +0.000 A 
ATOM      7  C   UNL     1      46.386   8.610  13.211  0.00  0.00    +0.000 A 
ATOM      8  C   UNL     1      45.568   8.114  12.190  0.00  0.00    +0.000 A 
BRANCH   6   9
ATOM      9  C   UNL     1      48.265   8.363  14.822  0.00  0.00    +0.000 C 
ATOM     10  N   UNL     1      47.707   9.248  15.700  0.00  0.00    +0.000 N 
ATOM     11  O   UNL     1      49.435   8.033  14.943  0.00  0.00    +0.000 OA
ATOM     12  H   UNL     1      46.763   9.595  15.687  0.00  0.00    +0.000 HD
ATOM     13  H   UNL     1      48.318   9.589  16.433  0.00  0.00    +0.000 HD
ENDBRANCH   6   9
BRANCH   8  14
ATOM     14  O   UNL     1      44.517   8.799  11.631  0.00  0.00    +0.000 OA
ATOM     15  C   UNL     1      44.544  10.221  11.715  0.00  0.00    +0.000 C 
ENDBRANCH   8  14
ENDBRANCH   1   3
BRANCH   1  16
ATOM     16  C   UNL     1      44.392   5.003  10.738  0.00  0.00    +0.000 C 
ATOM     17  C   UNL     1      43.896   4.438  12.053  0.00  0.00    +0.000 C 
ATOM     18  C   UNL     1      42.910   5.001  11.084  0.00  0.00    +0.000 C 
BRANCH  16  22
ATOM     19  C   UNL     1      46.123   2.259   7.831  0.00  0.00    +0.000 A 
ATOM     20  C   UNL     1      45.384   1.766   8.905  0.00  0.00    +0.000 A 
ATOM     21  C   UNL     1      44.783   2.648   9.813  0.00  0.00    +0.000 A 
ATOM     22  C   UNL     1      44.893   4.042   9.665  0.00  0.00    +0.000 A 
ATOM     23  C   UNL     1      45.578   4.516   8.537  0.00  0.00    +0.000 A 
ATOM     24  C   UNL     1      46.183   3.640   7.637  0.00  0.00    +0.000 A 
ATOM     25  F   UNL     1      46.827   4.169   6.587  0.00  0.00    +0.000 F 
BRANCH  19  27
ATOM     26  C   UNL     1      46.770   0.006   7.611  0.00  0.00    +0.000 C 
ATOM     27  O   UNL     1      46.725   1.314   7.042  0.00  0.00    +0.000 OA
ENDBRANCH  19  27
ENDBRANCH  16  22
ENDBRANCH   1  16
TORSDOF 6
ENDMDL
MODEL 3
REMARK VINA RESULT:    -7.410      2.790      6.430
REMARK INTER + INTRA:          -9.947
REMARK INTER:                  -9.630
REMARK INTRA:                  -0.317
REMARK UNBOUND:                 0.062
REMARK  Name = 
REMARK  8 active torsions:
REMARK  status: ('A' for Active; 'I' for Inactive)
REMARK    1  A    between atoms: C_1  and  O_2
REMARK    2  A    between atoms: O_2  and  C_3
REMARK    3  A    between atoms: C_6  and  C_7
REMARK    4  A    between atoms: C_7  and  N_8
REMARK    5  A    between atoms: N_8  and  C_9
REMARK    6  A    between atoms: C_12  and  C_13
REMARK    7  A    between atoms: C_17  and  O_18
REMARK    8  A    between atoms: O_18  and  C_19
REMARK                            x       y       z     vdW  Elec       q    Type
REMARK                         _______ _______ _______ _____ _____    ______ ____
ROOT
ATOM      1  N   UNL     1      45.504   5.897  11.553  0.00  0.00    +0.000 N 
ATOM      2  H   UNL     1      45.500   6.881  11.319  0.00  0.00    +0.000 HD
ENDROOT
BRANCH   1   3
ATOM      3  C   UNL     1      46.197   5.657  12.754  0.00  0.00    +0.000 A 
ATOM      4  N   UNL     1      45.897   4.543  13.464  0.00  0.00    +0.000 NA
ATOM      5  C   UNL     1      46.546   4.341  14.632  0.00  0.00    +0.000 A 
ATOM      6  C   UNL     1      47.536   5.170  15.130  0.00  0.00    +0.000 A 
ATOM      7  C   UNL     1      47.864   6.303  14.372  0.00  0.00    +0.000 A 
ATOM      8  C   UNL     1      47.183   6.574  13.181  0.00  0.00    +0.000 A 
BRANCH   6   9
ATOM      9  C   UNL     1      48.255   4.918  16.400  0.00  0.00    +0.000 C 
ATOM     10  N   UNL     1      47.959   5.689  17.488  0.00  0.00    +0.000 N 
ATOM     11  O   UNL     1      49.105   4.044  16.482  0.00  0.00    +0.000 OA
ATOM     12  H   UNL     1      47.289   6.440  17.529  0.00  0.00    +0.000 HD
ATOM     13  H   UNL     1      48.476   5.481  18.334  0.00  0.00    +0.000 HD
ENDBRANCH   6   9
BRANCH   8  14
ATOM     14  O   UNL     1      47.421   7.661  12.376  0.00  0.00    +0.000 OA
ATOM     15  C   UNL     1      48.700   7.746  11.754  0.00  0.00    +0.000 C 
ENDBRANCH   8  14
ENDBRANCH   1   3
BRANCH   1  16
ATOM     16  C   UNL     1      44.425   5.018  11.081  0.00  0.00    +0.000 C 
ATOM     17  C   UNL     1      43.322   4.519  11.991  0.00  0.00    +0.000 C 
ATOM     18  C   UNL     1      43.025   5.612  11.019  0.00  0.00    +0.000 C 
BRANCH  16  22
ATOM     19  C   UNL     1      46.061   2.453   7.963  0.00  0.00    +0.000 A 
ATOM     20  C   UNL     1      45.285   1.906   8.984  0.00  0.00    +0.000 A 
ATOM     21  C   UNL     1      44.715   2.735   9.960  0.00  0.00    +0.000 A 
ATOM     22  C   UNL     1      44.893   4.130   9.934  0.00  0.00    +0.000 A 
ATOM     23  C   UNL     1      45.615   4.664   8.856  0.00  0.00    +0.000 A 
ATOM     24  C   UNL     1      46.189   3.840   7.890  0.00  0.00    +0.000 A 
ATOM     25  F   UNL     1      46.872   4.425   6.895  0.00  0.00    +0.000 F 
BRANCH  19  27
ATOM     26  C   UNL     1      46.777   0.234   7.633  0.00  0.00    +0.000 C 
ATOM     27  O   UNL     1      46.627   1.550   7.102  0.00  0.00    +0.000 OA
ENDBRANCH  19  27
ENDBRANCH  16  22
ENDBRANCH   1  16
TORSDOF 6
ENDMDL
MODEL 4
REMARK VINA RESULT:    -6.762      3.684      7.039
REMARK INTER + INTRA:          -9.071
REMARK INTER:                  -8.378
REMARK INTRA:                  -0.693
REMARK UNBOUND:                 0.062
REMARK  Name = 
REMARK  8 active torsions:
REMARK  status: ('A' for Active; 'I' for Inactive)
REMARK    1  A    between atoms: C_1  and  O_2
REMARK    2  A    between atoms: O_2  and  C_3
REMARK    3  A    between atoms: C_6  and  C_7
REMARK    4  A    between atoms: C_7  and  N_8
REMARK    5  A    between atoms: N_8  and  C_9
REMARK    6  A    between atoms: C_12  and  C_13
REMARK    7  A    between atoms: C_17  and  O_18
REMARK    8  A    between atoms: O_18  and  C_19
REMARK                            x       y       z     vdW  Elec       q    Type
REMARK                         _______ _______ _______ _____ _____    ______ ____
ROOT
ATOM      1  N   UNL     1      48.382   6.859  13.331  0.00  0.00    +0.000 N 
ATOM      2  H   UNL     1      49.352   7.136  13.261  0.00  0.00    +0.000 HD
ENDROOT
BRANCH   1   3
ATOM      3  C   UNL     1      48.167   6.010  14.433  0.00  0.00    +0.000 A 
ATOM      4  N   UNL     1      47.525   4.835  14.231  0.00  0.00    +0.000 NA
ATOM      5  C   UNL     1      47.296   4.044  15.303  0.00  0.00    +0.000 A 
ATOM      6  C   UNL     1      47.719   4.329  16.590  0.00  0.00    +0.000 A 
ATOM      7  C   UNL     1      48.413   5.532  16.783  0.00  0.00    +0.000 A 
ATOM      8  C   UNL     1      48.629   6.401  15.709  0.00  0.00    +0.000 A 
BRANCH   6   9
ATOM      9  C   UNL     1      47.481   3.437  17.747  0.00  0.00    +0.000 C 
ATOM     10  N   UNL     1      48.216   3.624  18.884  0.00  0.00    +0.000 N 
ATOM     11  O   UNL     1      46.652   2.541  17.695  0.00  0.00    +0.000 OA
ATOM     12  H   UNL     1      48.929   4.319  19.032  0.00  0.00    +0.000 HD
ATOM     13  H   UNL     1      48.019   2.989  19.649  0.00  0.00    +0.000 HD
ENDBRANCH   6   9
BRANCH   8  14
ATOM     14  O   UNL     1      49.285   7.604  15.799  0.00  0.00    +0.000 OA
ATOM     15  C   UNL     1      48.727   8.590  16.664  0.00  0.00    +0.000 C 
ENDBRANCH   8  14
ENDBRANCH   1   3
BRANCH   1  16
ATOM     16  C   UNL     1      47.323   7.721  12.787  0.00  0.00    +0.000 C 
ATOM     17  C   UNL     1      47.003   9.084  13.365  0.00  0.00    +0.000 C 
ATOM     18  C   UNL     1      47.762   8.996  12.083  0.00  0.00    +0.000 C 
BRANCH  16  22
ATOM     19  C   UNL     1      44.239   5.096  11.182  0.00  0.00    +0.000 A 
ATOM     20  C   UNL     1      44.006   5.816  12.352  0.00  0.00    +0.000 A 
ATOM     21  C   UNL     1      44.976   6.699  12.844  0.00  0.00    +0.000 A 
ATOM     22  C   UNL     1      46.197   6.898  12.173  0.00  0.00    +0.000 A 
ATOM     23  C   UNL     1      46.379   6.219  10.959  0.00  0.00    +0.000 A 
ATOM     24  C   UNL     1      45.418   5.334  10.473  0.00  0.00    +0.000 A 
ATOM     25  F   UNL     1      45.668   4.717   9.310  0.00  0.00    +0.000 F 
BRANCH  19  27
ATOM     26  C   UNL     1      43.283   2.973  11.537  0.00  0.00    +0.000 C 
ATOM     27  O   UNL     1      43.257   4.210  10.826  0.00  0.00    +0.000 OA
ENDBRANCH  19  27
ENDBRANCH  16  22
ENDBRANCH   1  16
TORSDOF 6
ENDMDL
MODEL 5
REMARK VINA RESULT:    -6.664      3.442      6.989
REMARK INTER + INTRA:          -8.939
REMARK INTER:                  -8.342
REMARK INTRA:                  -0.597
REMARK UNBOUND:                 0.062
REMARK  Name = 
REMARK  8 active torsions:
REMARK  status: ('A' for Active; 'I' for Inactive)
REMARK    1  A    between atoms: C_1  and  O_2
REMARK    2  A    between atoms: O_2  and  C_3
REMARK    3  A    between atoms: C_6  and  C_7
REMARK    4  A    between atoms: C_7  and  N_8
REMARK    5  A    between atoms: N_8  and  C_9
REMARK    6  A    between atoms: C_12  and  C_13
REMARK    7  A    between atoms: C_17  and  O_18
REMARK    8  A    between atoms: O_18  and  C_19
REMARK                            x       y       z     vdW  Elec       q    Type
REMARK                         _______ _______ _______ _____ _____    ______ ____
ROOT
ATOM      1  N   UNL     1      47.348   6.114  12.603  0.00  0.00    +0.000 N 
ATOM      2  H   UNL     1      48.152   6.606  12.237  0.00  0.00    +0.000 HD
ENDROOT
BRANCH   1   3
ATOM      3  C   UNL     1      47.574   5.668  13.919  0.00  0.00    +0.000 A 
ATOM      4  N   UNL     1      47.102   4.451  14.282  0.00  0.00    +0.000 NA
ATOM      5  C   UNL     1      47.297   4.049  15.557  0.00  0.00    +0.000 A 
ATOM      6  C   UNL     1      47.992   4.776  16.509  0.00  0.00    +0.000 A 
ATOM      7  C   UNL     1      48.505   6.020  16.115  0.00  0.00    +0.000 A 
ATOM      8  C   UNL     1      48.285   6.493  14.818  0.00  0.00    +0.000 A 
BRANCH   6   9
ATOM      9  C   UNL     1      48.217   4.307  17.895  0.00  0.00    +0.000 C 
ATOM     10  N   UNL     1      47.607   4.971  18.922  0.00  0.00    +0.000 N 
ATOM     11  O   UNL     1      48.940   3.350  18.128  0.00  0.00    +0.000 OA
ATOM     12  H   UNL     1      47.005   5.773  18.845  0.00  0.00    +0.000 HD
ATOM     13  H   UNL     1      47.792   4.615  19.852  0.00  0.00    +0.000 HD
ENDBRANCH   6   9
BRANCH   8  14
ATOM     14  O   UNL     1      48.735   7.701  14.341  0.00  0.00    +0.000 OA
ATOM     15  C   UNL     1      48.068   8.874  14.798  0.00  0.00    +0.000 C 
ENDBRANCH   8  14
ENDBRANCH   1   3
BRANCH   1  16
ATOM     16  C   UNL     1      46.001   6.411  12.096  0.00  0.00    +0.000 C 
ATOM     17  C   UNL     1      44.996   7.229  12.880  0.00  0.00    +0.000 C 
ATOM     18  C   UNL     1      45.704   7.857  11.726  0.00  0.00    +0.000 C 
BRANCH  16  22
ATOM     19  C   UNL     1      44.863   3.104   9.499  0.00  0.00    +0.000 A 
ATOM     20  C   UNL     1      44.569   3.058  10.861  0.00  0.00    +0.000 A 
ATOM     21  C   UNL     1      44.888   4.142  11.690  0.00  0.00    +0.000 A 
ATOM     22  C   UNL     1      45.495   5.303  11.179  0.00  0.00    +0.000 A 
ATOM     23  C   UNL     1      45.715   5.357   9.795  0.00  0.00    +0.000 A 
ATOM     24  C   UNL     1      45.405   4.276   8.971  0.00  0.00    +0.000 A 
ATOM     25  F   UNL     1      45.651   4.400   7.659  0.00  0.00    +0.000 F 
BRANCH  19  27
ATOM     26  C   UNL     1      45.714   1.224   8.364  0.00  0.00    +0.000 C 
ATOM     27  O   UNL     1      44.573   1.967   8.792  0.00  0.00    +0.000 OA
ENDBRANCH  19  27
ENDBRANCH  16  22
ENDBRANCH   1  16
TORSDOF 6
ENDMDL
MODEL 6
REMARK VINA RESULT:    -6.542      3.380      5.033
REMARK INTER + INTRA:          -8.774
REMARK INTER:                  -8.462
REMARK INTRA:                  -0.312
REMARK UNBOUND:                 0.062
REMARK  Name = 
REMARK  8 active torsions:
REMARK  status: ('A' for Active; 'I' for Inactive)
REMARK    1  A    between atoms: C_1  and  O_2
REMARK    2  A    between atoms: O_2  and  C_3
REMARK    3  A    between atoms: C_6  and  C_7
REMARK    4  A    between atoms: C_7  and  N_8
REMARK    5  A    between atoms: N_8  and  C_9
REMARK    6  A    between atoms: C_12  and  C_13
REMARK    7  A    between atoms: C_17  and  O_18
REMARK    8  A    between atoms: O_18  and  C_19
REMARK                            x       y       z     vdW  Elec       q    Type
REMARK                         _______ _______ _______ _____ _____    ______ ____
ROOT
ATOM      1  N   UNL     1      46.095   5.953  13.697  0.00  0.00    +0.000 N 
ATOM      2  H   UNL     1      45.408   6.659  13.925  0.00  0.00    +0.000 HD
ENDROOT
BRANCH   1   3
ATOM      3  C   UNL     1      45.700   5.192  12.581  0.00  0.00    +0.000 A 
ATOM      4  N   UNL     1      45.523   3.858  12.735  0.00  0.00    +0.000 NA
ATOM      5  C   UNL     1      45.175   3.134  11.648  0.00  0.00    +0.000 A 
ATOM      6  C   UNL     1      44.938   3.670  10.394  0.00  0.00    +0.000 A 
ATOM      7  C   UNL     1      45.092   5.057  10.252  0.00  0.00    +0.000 A 
ATOM      8  C   UNL     1      45.496   5.836  11.340  0.00  0.00    +0.000 A 
BRANCH   6   9
ATOM      9  C   UNL     1      44.533   2.863   9.221  0.00  0.00    +0.000 C 
ATOM     10  N   UNL     1      44.238   3.505   8.051  0.00  0.00    +0.000 N 
ATOM     11  O   UNL     1      44.453   1.646   9.288  0.00  0.00    +0.000 OA
ATOM     12  H   UNL     1      44.259   4.498   7.888  0.00  0.00    +0.000 HD
ATOM     13  H   UNL     1      43.965   2.912   7.277  0.00  0.00    +0.000 HD
ENDBRANCH   6   9
BRANCH   8  14
ATOM     14  O   UNL     1      45.686   7.196  11.299  0.00  0.00    +0.000 OA
ATOM     15  C   UNL     1      44.523   8.020  11.332  0.00  0.00    +0.000 C 
ENDBRANCH   8  14
ENDBRANCH   1   3
BRANCH   1  16
ATOM     16  C   UNL     1      47.508   6.150  14.052  0.00  0.00    +0.000 C 
ATOM     17  C   UNL     1      48.608   6.220  13.012  0.00  0.00    +0.000 C 
ATOM     18  C   UNL     1      48.139   7.479  13.663  0.00  0.00    +0.000 C 
BRANCH  16  22
ATOM     19  C   UNL     1      48.638   4.271  17.815  0.00  0.00    +0.000 A 
ATOM     20  C   UNL     1      49.225   5.476  17.430  0.00  0.00    +0.000 A 
ATOM     21  C   UNL     1      48.827   6.108  16.245  0.00  0.00    +0.000 A 
ATOM     22  C   UNL     1      47.824   5.564  15.422  0.00  0.00    +0.000 A 
ATOM     23  C   UNL     1      47.197   4.391  15.867  0.00  0.00    +0.000 A 
ATOM     24  C   UNL     1      47.598   3.756  17.042  0.00  0.00    +0.000 A 
ATOM     25  F   UNL     1      46.955   2.634  17.397  0.00  0.00    +0.000 F 
BRANCH  19  27
ATOM     26  C   UNL     1      48.835   4.399  20.159  0.00  0.00    +0.000 C 
ATOM     27  O   UNL     1      49.147   3.702  18.953  0.00  0.00    +0.000 OA
ENDBRANCH  19  27
ENDBRANCH  16  22
ENDBRANCH   1  16
TORSDOF 6
ENDMDL
MODEL 7
REMARK VINA RESULT:    -6.494      1.666      2.164
REMARK INTER + INTRA:          -8.709
REMARK INTER:                  -8.447
REMARK INTRA:                  -0.263
REMARK UNBOUND:                 0.062
REMARK  Name = 
REMARK  8 active torsions:
REMARK  status: ('A' for Active; 'I' for Inactive)
REMARK    1  A    between atoms: C_1  and  O_2
REMARK    2  A    between atoms: O_2  and  C_3
REMARK    3  A    between atoms: C_6  and  C_7
REMARK    4  A    between atoms: C_7  and  N_8
REMARK    5  A    between atoms: N_8  and  C_9
REMARK    6  A    between atoms: C_12  and  C_13
REMARK    7  A    between atoms: C_17  and  O_18
REMARK    8  A    between atoms: O_18  and  C_19
REMARK                            x       y       z     vdW  Elec       q    Type
REMARK                         _______ _______ _______ _____ _____    ______ ____
ROOT
ATOM      1  N   UNL     1      43.686   4.682  10.024  0.00  0.00    +0.000 N 
ATOM      2  H   UNL     1      43.444   5.435   9.394  0.00  0.00    +0.000 HD
ENDROOT
BRANCH   1   3
ATOM      3  C   UNL     1      44.500   3.724   9.391  0.00  0.00    +0.000 A 
ATOM      4  N   UNL     1      44.174   2.415   9.512  0.00  0.00    +0.000 NA
ATOM      5  C   UNL     1      44.982   1.502   8.928  0.00  0.00    +0.000 A 
ATOM      6  C   UNL     1      46.096   1.817   8.168  0.00  0.00    +0.000 A 
ATOM      7  C   UNL     1      46.406   3.176   8.021  0.00  0.00    +0.000 A 
ATOM      8  C   UNL     1      45.623   4.150   8.648  0.00  0.00    +0.000 A 
BRANCH   6   9
ATOM      9  C   UNL     1      46.955   0.804   7.514  0.00  0.00    +0.000 C 
ATOM     10  N   UNL     1      46.678  -0.519   7.710  0.00  0.00    +0.000 N 
ATOM     11  O   UNL     1      47.901   1.134   6.816  0.00  0.00    +0.000 OA
ATOM     12  H   UNL     1      45.935  -0.902   8.272  0.00  0.00    +0.000 HD
ATOM     13  H   UNL     1      47.293  -1.176   7.244  0.00  0.00    +0.000 HD
ENDBRANCH   6   9
BRANCH   8  14
ATOM     14  O   UNL     1      45.852   5.502   8.575  0.00  0.00    +0.000 OA
ATOM     15  C   UNL     1      47.090   5.985   9.090  0.00  0.00    +0.000 C 
ENDBRANCH   8  14
ENDBRANCH   1   3
BRANCH   1  16
ATOM     16  C   UNL     1      43.728   4.912  11.475  0.00  0.00    +0.000 C 
ATOM     17  C   UNL     1      42.476   5.046  12.316  0.00  0.00    +0.000 C 
ATOM     18  C   UNL     1      43.257   3.775  12.370  0.00  0.00    +0.000 C 
BRANCH  16  22
ATOM     19  C   UNL     1      47.144   7.190  12.929  0.00  0.00    +0.000 A 
ATOM     20  C   UNL     1      47.151   5.798  12.997  0.00  0.00    +0.000 A 
ATOM     21  C   UNL     1      46.076   5.060  12.484  0.00  0.00    +0.000 A 
ATOM     22  C   UNL     1      44.975   5.691  11.878  0.00  0.00    +0.000 A 
ATOM     23  C   UNL     1      45.024   7.088  11.754  0.00  0.00    +0.000 A 
ATOM     24  C   UNL     1      46.089   7.823  12.272  0.00  0.00    +0.000 A 
ATOM     25  F   UNL     1      46.060   9.155  12.121  0.00  0.00    +0.000 F 
BRANCH  19  27
ATOM     26  C   UNL     1      49.488   7.382  13.060  0.00  0.00    +0.000 C 
ATOM     27  O   UNL     1      48.210   7.817  13.521  0.00  0.00    +0.000 OA
ENDBRANCH  19  27
ENDBRANCH  16  22
ENDBRANCH   1  16
TORSDOF 6
ENDMDL
MODEL 8
REMARK VINA RESULT:    -6.338      3.218      6.932
REMARK INTER + INTRA:          -8.499
REMARK INTER:                  -7.937
REMARK INTRA:                  -0.562
REMARK UNBOUND:                 0.062
REMARK  Name = 
REMARK  8 active torsions:
REMARK  status: ('A' for Active; 'I' for Inactive)
REMARK    1  A    between atoms: C_1  and  O_2
REMARK    2  A    between atoms: O_2  and  C_3
REMARK    3  A    between atoms: C_6  and  C_7
REMARK    4  A    between atoms: C_7  and  N_8
REMARK    5  A    between atoms: N_8  and  C_9
REMARK    6  A    between atoms: C_12  and  C_13
REMARK    7  A    between atoms: C_17  and  O_18
REMARK    8  A    between atoms: O_18  and  C_19
REMARK                            x       y       z     vdW  Elec       q    Type
REMARK                         _______ _______ _______ _____ _____    ______ ____
ROOT
ATOM      1  N   UNL     1      46.953   6.747  11.577  0.00  0.00    +0.000 N 
ATOM      2  H   UNL     1      47.444   7.080  10.757  0.00  0.00    +0.000 HD
ENDROOT
BRANCH   1   3
ATOM      3  C   UNL     1      47.565   7.198  12.761  0.00  0.00    +0.000 A 
ATOM      4  N   UNL     1      47.754   8.529  12.927  0.00  0.00    +0.000 NA
ATOM      5  C   UNL     1      48.373   8.947  14.053  0.00  0.00    +0.000 A 
ATOM      6  C   UNL     1      48.784   8.110  15.076  0.00  0.00    +0.000 A 
ATOM      7  C   UNL     1      48.554   6.737  14.911  0.00  0.00    +0.000 A 
ATOM      8  C   UNL     1      47.959   6.259  13.739  0.00  0.00    +0.000 A 
BRANCH   6   9
ATOM      9  C   UNL     1      49.438   8.590  16.315  0.00  0.00    +0.000 C 
ATOM     10  N   UNL     1      48.939   8.184  17.521  0.00  0.00    +0.000 N 
ATOM     11  O   UNL     1      50.401   9.340  16.272  0.00  0.00    +0.000 OA
ATOM     12  H   UNL     1      48.148   7.581  17.673  0.00  0.00    +0.000 HD
ATOM     13  H   UNL     1      49.418   8.539  18.341  0.00  0.00    +0.000 HD
ENDBRANCH   6   9
BRANCH   8  14
ATOM     14  O   UNL     1      47.704   4.935  13.478  0.00  0.00    +0.000 OA
ATOM     15  C   UNL     1      46.875   4.234  14.401  0.00  0.00    +0.000 C 
ENDBRANCH   8  14
ENDBRANCH   1   3
BRANCH   1  16
ATOM     16  C   UNL     1      45.520   6.431  11.506  0.00  0.00    +0.000 C 
ATOM     17  C   UNL     1      44.552   6.780  12.618  0.00  0.00    +0.000 C 
ATOM     18  C   UNL     1      44.558   7.604  11.374  0.00  0.00    +0.000 C 
BRANCH  16  22
ATOM     19  C   UNL     1      45.118   2.769   9.183  0.00  0.00    +0.000 A 
ATOM     20  C   UNL     1      44.721   2.797  10.519  0.00  0.00    +0.000 A 
ATOM     21  C   UNL     1      44.801   3.987  11.254  0.00  0.00    +0.000 A 
ATOM     22  C   UNL     1      45.266   5.181  10.673  0.00  0.00    +0.000 A 
ATOM     23  C   UNL     1      45.590   5.145   9.308  0.00  0.00    +0.000 A 
ATOM     24  C   UNL     1      45.518   3.960   8.578  0.00  0.00    +0.000 A 
ATOM     25  F   UNL     1      45.851   4.005   7.280  0.00  0.00    +0.000 F 
BRANCH  19  27
ATOM     26  C   UNL     1      46.306   1.084   8.044  0.00  0.00    +0.000 C 
ATOM     27  O   UNL     1      45.064   1.541   8.576  0.00  0.00    +0.000 OA
ENDBRANCH  19  27
ENDBRANCH  16  22
ENDBRANCH   1  16
TORSDOF 6
ENDMDL
MODEL 9
REMARK VINA RESULT:    -6.174      2.933      5.195
REMARK INTER + INTRA:          -8.277
REMARK INTER:                  -7.621
REMARK INTRA:                  -0.656
REMARK UNBOUND:                 0.062
REMARK  Name = 
REMARK  8 active torsions:
REMARK  status: ('A' for Active; 'I' for Inactive)
REMARK    1  A    between atoms: C_1  and  O_2
REMARK    2  A    between atoms: O_2  and  C_3
REMARK    3  A    between atoms: C_6  and  C_7
REMARK    4  A    between atoms: C_7  and  N_8
REMARK    5  A    between atoms: N_8  and  C_9
REMARK    6  A    between atoms: C_12  and  C_13
REMARK    7  A    between atoms: C_17  and  O_18
REMARK    8  A    between atoms: O_18  and  C_19
REMARK                            x       y       z     vdW  Elec       q    Type
REMARK                         _______ _______ _______ _____ _____    ______ ____
ROOT
ATOM      1  N   UNL     1      46.532   7.454  13.607  0.00  0.00    +0.000 N 
ATOM      2  H   UNL     1      45.837   8.065  14.013  0.00  0.00    +0.000 HD
ENDROOT
BRANCH   1   3
ATOM      3  C   UNL     1      45.937   6.341  12.983  0.00  0.00    +0.000 A 
ATOM      4  N   UNL     1      44.938   6.553  12.095  0.00  0.00    +0.000 NA
ATOM      5  C   UNL     1      44.352   5.475  11.528  0.00  0.00    +0.000 A 
ATOM      6  C   UNL     1      44.738   4.166  11.755  0.00  0.00    +0.000 A 
ATOM      7  C   UNL     1      45.796   3.957  12.651  0.00  0.00    +0.000 A 
ATOM      8  C   UNL     1      46.398   5.043  13.295  0.00  0.00    +0.000 A 
BRANCH   6   9
ATOM      9  C   UNL     1      44.101   2.998  11.104  0.00  0.00    +0.000 C 
ATOM     10  N   UNL     1      44.760   2.373  10.085  0.00  0.00    +0.000 N 
ATOM     11  O   UNL     1      43.003   2.598  11.460  0.00  0.00    +0.000 OA
ATOM     12  H   UNL     1      45.658   2.623   9.705  0.00  0.00    +0.000 HD
ATOM     13  H   UNL     1      44.285   1.580   9.669  0.00  0.00    +0.000 HD
ENDBRANCH   6   9
BRANCH   8  14
ATOM     14  O   UNL     1      47.430   4.941  14.196  0.00  0.00    +0.000 OA
ATOM     15  C   UNL     1      47.131   4.381  15.472  0.00  0.00    +0.000 C 
ENDBRANCH   8  14
ENDBRANCH   1   3
BRANCH   1  16
ATOM     16  C   UNL     1      47.834   7.988  13.181  0.00  0.00    +0.000 C 
ATOM     17  C   UNL     1      48.406   7.738  11.801  0.00  0.00    +0.000 C 
ATOM     18  C   UNL     1      47.820   9.074  12.115  0.00  0.00    +0.000 C 
BRANCH  16  22
ATOM     19  C   UNL     1      50.392   8.152  16.703  0.00  0.00    +0.000 A 
ATOM     20  C   UNL     1      50.789   7.424  15.582  0.00  0.00    +0.000 A 
ATOM     21  C   UNL     1      49.992   7.411  14.430  0.00  0.00    +0.000 A 
ATOM     22  C   UNL     1      48.788   8.134  14.361  0.00  0.00    +0.000 A 
ATOM     23  C   UNL     1      48.445   8.917  15.473  0.00  0.00    +0.000 A 
ATOM     24  C   UNL     1      49.233   8.924  16.623  0.00  0.00    +0.000 A 
ATOM     25  F   UNL     1      48.835   9.693  17.647  0.00  0.00    +0.000 F 
BRANCH  19  27
ATOM     26  C   UNL     1      50.835   7.015  18.718  0.00  0.00    +0.000 C 
ATOM     27  O   UNL     1      51.206   8.042  17.799  0.00  0.00    +0.000 OA
ENDBRANCH  19  27
ENDBRANCH  16  22
ENDBRANCH   1  16
TORSDOF 6
ENDMDL
