MODEL 1
REMARK VINA RESULT:    -8.420      0.000      0.000
REMARK INTER + INTRA:         -13.603
REMARK INTER:                 -12.357
REMARK INTRA:                  -1.245
REMARK UNBOUND:                -1.245
REMARK  Name = 
REMARK  9 active torsions:
REMARK  status: ('A' for Active; 'I' for Inactive)
REMARK    1  A    between atoms: C_1  and  O_2
REMARK    2  A    between atoms: O_2  and  C_3
REMARK    3  A    between atoms: C_10  and  C_11
REMARK    4  A    between atoms: N_13  and  C_14
REMARK    5  A    between atoms: C_14  and  C_15
REMARK    6  A    between atoms: C_18  and  C_19
REMARK    7  A    between atoms: C_19  and  N_20
REMARK    8  A    between atoms: N_20  and  C_21
REMARK    9  A    between atoms: C_21  and  C_22
REMARK                            x       y       z     vdW  Elec       q    Type
REMARK                         _______ _______ _______ _____ _____    ______ ____
ROOT
ATOM      1  C   UNL     1      47.966   6.977  13.240  0.00  0.00    +0.000 C 
ENDROOT
BRANCH   1   2
ATOM      2  C   UNL     1      46.873   6.104  12.668  0.00  0.00    +0.000 A 
ATOM      3  C   UNL     1      46.347   5.033  13.404  0.00  0.00    +0.000 A 
ATOM      4  C   UNL     1      45.296   4.260  12.894  0.00  0.00    +0.000 A 
ATOM      5  C   UNL     1      44.752   4.528  11.629  0.00  0.00    +0.000 A 
ATOM      6  C   UNL     1      45.320   5.559  10.868  0.00  0.00    +0.000 A 
ATOM      7  C   UNL     1      46.370   6.334  11.380  0.00  0.00    +0.000 A 
BRANCH   5   8
ATOM      8  C   UNL     1      43.580   3.723  11.100  0.00  0.00    +0.000 C 
BRANCH   8   9
ATOM      9  N   UNL     1      43.778   3.366   9.696  0.00  0.00    +0.000 NA
ATOM     10  H   UNL     1      44.272   4.123   9.225  0.00  0.00    +0.000 HD
BRANCH   9  11
ATOM     11  C   UNL     1      44.552   2.133   9.537  0.00  0.00    +0.000 C 
BRANCH  11  12
ATOM     12  C   UNL     1      45.586   2.281   8.441  0.00  0.00    +0.000 A 
ATOM     13  C   UNL     1      46.410   1.208   8.070  0.00  0.00    +0.000 A 
ATOM     14  C   UNL     1      47.343   1.353   7.039  0.00  0.00    +0.000 A 
ATOM     15  C   UNL     1      47.464   2.568   6.368  0.00  0.00    +0.000 A 
ATOM     16  C   UNL     1      46.658   3.644   6.732  0.00  0.00    +0.000 A 
ATOM     17  C   UNL     1      45.723   3.499   7.759  0.00  0.00    +0.000 A 
ENDBRANCH  11  12
ENDBRANCH   9  11
ENDBRANCH   8   9
ENDBRANCH   5   8
ENDBRANCH   1   2
BRANCH   1  20
ATOM     18  C   UNL     1      49.058   6.960  15.457  0.00  0.00    +0.000 C 
ATOM     19  O   UNL     1      50.178   6.904  14.959  0.00  0.00    +0.000 OA
ATOM     20  N   UNL     1      47.932   6.989  14.680  0.00  0.00    +0.000 N 
ATOM     21  H   UNL     1      47.020   7.005  15.114  0.00  0.00    +0.000 HD
BRANCH  18  29
ATOM     22  C   UNL     1      48.906   4.527  17.886  0.00  0.00    +0.000 A 
ATOM     23  N   UNL     1      48.825   3.793  19.012  0.00  0.00    +0.000 NA
ATOM     24  C   UNL     1      48.629   4.437  20.165  0.00  0.00    +0.000 A 
ATOM     25  N   UNL     1      48.503   5.750  20.339  0.00  0.00    +0.000 NA
ATOM     26  C   UNL     1      48.604   6.444  19.192  0.00  0.00    +0.000 A 
ATOM     27  S   UNL     1      48.464   8.135  19.221  0.00  0.00    +0.000 S 
ATOM     28  C   UNL     1      48.684   8.233  17.537  0.00  0.00    +0.000 A 
ATOM     29  C   UNL     1      48.867   7.000  16.921  0.00  0.00    +0.000 A 
ATOM     30  C   UNL     1      48.814   5.929  17.916  0.00  0.00    +0.000 A 
BRANCH  22  32
ATOM     31  C   UNL     1      48.652   2.518  16.717  0.00  0.00    +0.000 C 
ATOM     32  O   UNL     1      49.123   3.862  16.698  0.00  0.00    +0.000 OA
ENDBRANCH  22  32
ENDBRANCH  18  29
ENDBRANCH   1  20
TORSDOF 8
ENDMDL
MODEL 2
REMARK VINA RESULT:    -8.113      1.381      2.571
REMARK INTER + INTRA:         -13.153
REMARK INTER:                 -11.952
REMARK INTRA:                  -1.201
REMARK UNBOUND:                -1.245
REMARK  Name = 
REMARK  9 active torsions:
REMARK  status: ('A' for Active; 'I' for Inactive)
REMARK    1  A    between atoms: C_1  and  O_2
REMARK    2  A    between atoms: O_2  and  C_3
REMARK    3  A    between atoms: C_10  and  C_11
REMARK    4  A    between atoms: N_13  and  C_14
REMARK    5  A    between atoms: C_14  and  C_15
REMARK    6  A    between atoms: C_18  and  C_19
REMARK    7  A    between atoms: C_19  and  N_20
REMARK    8  A    between atoms: N_20  and  C_21
REMARK    9  A    between atoms: C_21  and  C_22
REMARK                            x       y       z     vdW  Elec       q    Type
REMARK                         _______ _______ _______ _____ _____    ______ ____
ROOT
ATOM      1  C   UNL     1      47.983   6.592  13.671  0.00  0.00    +0.000 C 
ENDROOT
BRANCH   1   2
ATOM      2  C   UNL     1      46.857   5.915  12.924  0.00  0.00    +0.000 A 
ATOM      3  C   UNL     1      46.154   4.846  13.495  0.00  0.00    +0.000 A 
ATOM      4  C   UNL     1      45.074   4.258  12.824  0.00  0.00    +0.000 A 
ATOM      5  C   UNL     1      44.678   4.712  11.557  0.00  0.00    +0.000 A 
ATOM      6  C   UNL     1      45.422   5.739  10.960  0.00  0.00    +0.000 A 
ATOM      7  C   UNL     1      46.500   6.331  11.634  0.00  0.00    +0.000 A 
BRANCH   5   8
ATOM      8  C   UNL     1      43.478   4.108  10.854  0.00  0.00    +0.000 C 
BRANCH   8   9
ATOM      9  N   UNL     1      43.826   3.667   9.504  0.00  0.00    +0.000 NA
ATOM     10  H   UNL     1      44.371   4.395   9.045  0.00  0.00    +0.000 HD
BRANCH   9  11
ATOM     11  C   UNL     1      44.605   2.428   9.505  0.00  0.00    +0.000 C 
BRANCH  11  12
ATOM     12  C   UNL     1      45.604   2.417   8.367  0.00  0.00    +0.000 A 
ATOM     13  C   UNL     1      45.834   3.561   7.590  0.00  0.00    +0.000 A 
ATOM     14  C   UNL     1      46.779   3.541   6.559  0.00  0.00    +0.000 A 
ATOM     15  C   UNL     1      47.502   2.381   6.293  0.00  0.00    +0.000 A 
ATOM     16  C   UNL     1      47.278   1.235   7.052  0.00  0.00    +0.000 A 
ATOM     17  C   UNL     1      46.339   1.254   8.084  0.00  0.00    +0.000 A 
ENDBRANCH  11  12
ENDBRANCH   9  11
ENDBRANCH   8   9
ENDBRANCH   5   8
ENDBRANCH   1   2
BRANCH   1  20
ATOM     18  C   UNL     1      48.991   6.378  15.918  0.00  0.00    +0.000 C 
ATOM     19  O   UNL     1      50.115   6.618  15.490  0.00  0.00    +0.000 OA
ATOM     20  N   UNL     1      47.904   6.339  15.087  0.00  0.00    +0.000 N 
ATOM     21  H   UNL     1      46.994   6.109  15.458  0.00  0.00    +0.000 HD
BRANCH  18  29
ATOM     22  C   UNL     1      47.880   8.338  18.519  0.00  0.00    +0.000 A 
ATOM     23  N   UNL     1      47.463   8.867  19.686  0.00  0.00    +0.000 NA
ATOM     24  C   UNL     1      47.452   8.077  20.762  0.00  0.00    +0.000 A 
ATOM     25  N   UNL     1      47.813   6.798  20.821  0.00  0.00    +0.000 NA
ATOM     26  C   UNL     1      48.209   6.307  19.633  0.00  0.00    +0.000 A 
ATOM     27  S   UNL     1      48.709   4.690  19.519  0.00  0.00    +0.000 S 
ATOM     28  C   UNL     1      49.017   4.849  17.854  0.00  0.00    +0.000 A 
ATOM     29  C   UNL     1      48.751   6.118  17.352  0.00  0.00    +0.000 A 
ATOM     30  C   UNL     1      48.270   6.991  18.423  0.00  0.00    +0.000 A 
BRANCH  22  32
ATOM     31  C   UNL     1      49.087   9.882  17.244  0.00  0.00    +0.000 C 
ATOM     32  O   UNL     1      47.875   9.150  17.406  0.00  0.00    +0.000 OA
ENDBRANCH  22  32
ENDBRANCH  18  29
ENDBRANCH   1  20
TORSDOF 8
ENDMDL
MODEL 3
REMARK VINA RESULT:    -7.733      2.023      3.712
REMARK INTER + INTRA:         -12.594
REMARK INTER:                 -11.110
REMARK INTRA:                  -1.484
REMARK UNBOUND:                -1.245
REMARK  Name = 
REMARK  9 active torsions:
REMARK  status: ('A' for Active; 'I' for Inactive)
REMARK    1  A    between atoms: C_1  and  O_2
REMARK    2  A    between atoms: O_2  and  C_3
REMARK    3  A    between atoms: C_10  and  C_11
REMARK    4  A    between atoms: N_13  and  C_14
REMARK    5  A    between atoms: C_14  and  C_15
REMARK    6  A    between atoms: C_18  and  C_19
REMARK    7  A    between atoms: C_19  and  N_20
REMARK    8  A    between atoms: N_20  and  C_21
REMARK    9  A    between atoms: C_21  and  C_22
REMARK                            x       y       z     vdW  Elec       q    Type
REMARK                         _______ _______ _______ _____ _____    ______ ____
ROOT
ATOM      1  C   UNL     1      47.338   4.538  14.908  0.00  0.00    +0.000 C 
ENDROOT
BRANCH   1   2
ATOM      2  C   UNL     1      46.377   4.524  13.742  0.00  0.00    +0.000 A 
ATOM      3  C   UNL     1      46.074   3.331  13.072  0.00  0.00    +0.000 A 
ATOM      4  C   UNL     1      45.141   3.312  12.028  0.00  0.00    +0.000 A 
ATOM      5  C   UNL     1      44.497   4.488  11.615  0.00  0.00    +0.000 A 
ATOM      6  C   UNL     1      44.847   5.691  12.243  0.00  0.00    +0.000 A 
ATOM      7  C   UNL     1      45.778   5.709  13.291  0.00  0.00    +0.000 A 
BRANCH   5   8
ATOM      8  C   UNL     1      43.449   4.457  10.518  0.00  0.00    +0.000 C 
BRANCH   8   9
ATOM      9  N   UNL     1      43.861   3.582   9.421  0.00  0.00    +0.000 NA
ATOM     10  H   UNL     1      43.040   3.321   8.876  0.00  0.00    +0.000 HD
BRANCH   9  11
ATOM     11  C   UNL     1      44.830   4.222   8.530  0.00  0.00    +0.000 C 
BRANCH  11  12
ATOM     12  C   UNL     1      45.743   3.195   7.896  0.00  0.00    +0.000 A 
ATOM     13  C   UNL     1      46.577   3.529   6.819  0.00  0.00    +0.000 A 
ATOM     14  C   UNL     1      47.433   2.575   6.260  0.00  0.00    +0.000 A 
ATOM     15  C   UNL     1      47.466   1.279   6.770  0.00  0.00    +0.000 A 
ATOM     16  C   UNL     1      46.637   0.931   7.834  0.00  0.00    +0.000 A 
ATOM     17  C   UNL     1      45.785   1.883   8.395  0.00  0.00    +0.000 A 
ENDBRANCH  11  12
ENDBRANCH   9  11
ENDBRANCH   8   9
ENDBRANCH   5   8
ENDBRANCH   1   2
BRANCH   1  20
ATOM     18  C   UNL     1      48.750   6.182  16.097  0.00  0.00    +0.000 C 
ATOM     19  O   UNL     1      49.467   5.302  16.563  0.00  0.00    +0.000 OA
ATOM     20  N   UNL     1      47.687   5.883  15.288  0.00  0.00    +0.000 N 
ATOM     21  H   UNL     1      47.094   6.623  14.942  0.00  0.00    +0.000 HD
BRANCH  18  29
ATOM     22  C   UNL     1      48.736   9.017  14.146  0.00  0.00    +0.000 A 
ATOM     23  N   UNL     1      48.782  10.259  13.625  0.00  0.00    +0.000 NA
ATOM     24  C   UNL     1      49.085  11.269  14.444  0.00  0.00    +0.000 A 
ATOM     25  N   UNL     1      49.353  11.194  15.745  0.00  0.00    +0.000 NA
ATOM     26  C   UNL     1      49.283   9.940  16.225  0.00  0.00    +0.000 A 
ATOM     27  S   UNL     1      49.599   9.653  17.868  0.00  0.00    +0.000 S 
ATOM     28  C   UNL     1      49.330   7.984  17.679  0.00  0.00    +0.000 A 
ATOM     29  C   UNL     1      48.998   7.610  16.382  0.00  0.00    +0.000 A 
ATOM     30  C   UNL     1      48.975   8.786  15.512  0.00  0.00    +0.000 A 
BRANCH  22  32
ATOM     31  C   UNL     1      49.512   7.519  12.527  0.00  0.00    +0.000 C 
ATOM     32  O   UNL     1      48.409   7.978  13.303  0.00  0.00    +0.000 OA
ENDBRANCH  22  32
ENDBRANCH  18  29
ENDBRANCH   1  20
TORSDOF 8
ENDMDL
MODEL 4
REMARK VINA RESULT:    -7.718      1.795      2.196
REMARK INTER + INTRA:         -12.573
REMARK INTER:                 -11.274
REMARK INTRA:                  -1.299
REMARK UNBOUND:                -1.245
REMARK  Name = 
REMARK  9 active torsions:
REMARK  status: ('A' for Active; 'I' for Inactive)
REMARK    1  A    between atoms: C_1  and  O_2
REMARK    2  A    between atoms: O_2  and  C_3
REMARK    3  A    between atoms: C_10  and  C_11
REMARK    4  A    between atoms: N_13  and  C_14
REMARK    5  A    between atoms: C_14  and  C_15
REMARK    6  A    between atoms: C_18  and  C_19
REMARK    7  A    between atoms: C_19  and  N_20
REMARK    8  A    between atoms: N_20  and  C_21
REMARK    9  A    between atoms: C_21  and  C_22
REMARK                            x       y       z     vdW  Elec       q    Type
REMARK                         _______ _______ _______ _____ _____    ______ ____
ROOT
ATOM      1  C   UNL     1      48.085   7.704  12.989  0.00  0.00    +0.000 C 
ENDROOT
BRANCH   1   2
ATOM      2  C   UNL     1      47.115   6.630  12.551  0.00  0.00    +0.000 A 
ATOM      3  C   UNL     1      46.834   5.534  13.377  0.00  0.00    +0.000 A 
ATOM      4  C   UNL     1      45.893   4.569  12.993  0.00  0.00    +0.000 A 
ATOM      5  C   UNL     1      45.220   4.667  11.766  0.00  0.00    +0.000 A 
ATOM      6  C   UNL     1      45.548   5.730  10.914  0.00  0.00    +0.000 A 
ATOM      7  C   UNL     1      46.487   6.697  11.300  0.00  0.00    +0.000 A 
BRANCH   5   8
ATOM      8  C   UNL     1      44.164   3.651  11.374  0.00  0.00    +0.000 C 
BRANCH   8   9
ATOM      9  N   UNL     1      44.771   2.480  10.743  0.00  0.00    +0.000 NA
ATOM     10  H   UNL     1      44.518   1.646  11.271  0.00  0.00    +0.000 HD
BRANCH   9  11
ATOM     11  C   UNL     1      44.335   2.305   9.356  0.00  0.00    +0.000 C 
BRANCH  11  12
ATOM     12  C   UNL     1      45.509   2.399   8.404  0.00  0.00    +0.000 A 
ATOM     13  C   UNL     1      45.888   3.624   7.836  0.00  0.00    +0.000 A 
ATOM     14  C   UNL     1      46.990   3.698   6.978  0.00  0.00    +0.000 A 
ATOM     15  C   UNL     1      47.724   2.552   6.679  0.00  0.00    +0.000 A 
ATOM     16  C   UNL     1      47.354   1.328   7.230  0.00  0.00    +0.000 A 
ATOM     17  C   UNL     1      46.257   1.253   8.090  0.00  0.00    +0.000 A 
ENDBRANCH  11  12
ENDBRANCH   9  11
ENDBRANCH   8   9
ENDBRANCH   5   8
ENDBRANCH   1   2
BRANCH   1  20
ATOM     18  C   UNL     1      49.432   7.656  15.061  0.00  0.00    +0.000 C 
ATOM     19  O   UNL     1      48.827   8.613  15.534  0.00  0.00    +0.000 OA
ATOM     20  N   UNL     1      49.130   7.163  13.820  0.00  0.00    +0.000 N 
ATOM     21  H   UNL     1      49.662   6.394  13.440  0.00  0.00    +0.000 HD
BRANCH  18  29
ATOM     22  C   UNL     1      49.548   4.839  17.034  0.00  0.00    +0.000 A 
ATOM     23  N   UNL     1      49.869   3.793  17.820  0.00  0.00    +0.000 NA
ATOM     24  C   UNL     1      51.135   3.684  18.229  0.00  0.00    +0.000 A 
ATOM     25  N   UNL     1      52.143   4.505  17.946  0.00  0.00    +0.000 NA
ATOM     26  C   UNL     1      51.782   5.526  17.149  0.00  0.00    +0.000 A 
ATOM     27  S   UNL     1      52.939   6.677  16.686  0.00  0.00    +0.000 S 
ATOM     28  C   UNL     1      51.789   7.542  15.779  0.00  0.00    +0.000 A 
ATOM     29  C   UNL     1      50.516   6.985  15.806  0.00  0.00    +0.000 A 
ATOM     30  C   UNL     1      50.515   5.778  16.633  0.00  0.00    +0.000 A 
BRANCH  22  32
ATOM     31  C   UNL     1      47.330   4.199  17.400  0.00  0.00    +0.000 C 
ATOM     32  O   UNL     1      48.245   4.942  16.600  0.00  0.00    +0.000 OA
ENDBRANCH  22  32
ENDBRANCH  18  29
ENDBRANCH   1  20
TORSDOF 8
ENDMDL
MODEL 5
REMARK VINA RESULT:    -7.348      1.674      2.479
REMARK INTER + INTRA:         -12.030
REMARK INTER:                 -10.986
REMARK INTRA:                  -1.044
REMARK UNBOUND:                -1.245
REMARK  Name = 
REMARK  9 active torsions:
REMARK  status: ('A' for Active; 'I' for Inactive)
REMARK    1  A    between atoms: C_1  and  O_2
REMARK    2  A    between atoms: O_2  and  C_3
REMARK    3  A    between atoms: C_10  and  C_11
REMARK    4  A    between atoms: N_13  and  C_14
REMARK    5  A    between atoms: C_14  and  C_15
REMARK    6  A    between atoms: C_18  and  C_19
REMARK    7  A    between atoms: C_19  and  N_20
REMARK    8  A    between atoms: N_20  and  C_21
REMARK    9  A    between atoms: C_21  and  C_22
REMARK                            x       y       z     vdW  Elec       q    Type
REMARK                         _______ _______ _______ _____ _____    ______ ____
ROOT
ATOM      1  C   UNL     1      47.219   4.218  15.067  0.00  0.00    +0.000 C 
ENDROOT
BRANCH   1   2
ATOM      2  C   UNL     1      46.349   4.354  13.838  0.00  0.00    +0.000 A 
ATOM      3  C   UNL     1      46.051   3.241  13.040  0.00  0.00    +0.000 A 
ATOM      4  C   UNL     1      45.200   3.360  11.933  0.00  0.00    +0.000 A 
ATOM      5  C   UNL     1      44.636   4.596  11.587  0.00  0.00    +0.000 A 
ATOM      6  C   UNL     1      44.985   5.720  12.348  0.00  0.00    +0.000 A 
ATOM      7  C   UNL     1      45.834   5.601  13.458  0.00  0.00    +0.000 A 
BRANCH   5   8
ATOM      8  C   UNL     1      43.674   4.713  10.420  0.00  0.00    +0.000 C 
BRANCH   8   9
ATOM      9  N   UNL     1      44.015   3.766   9.360  0.00  0.00    +0.000 NA
ATOM     10  H   UNL     1      43.169   3.513   8.852  0.00  0.00    +0.000 HD
BRANCH   9  11
ATOM     11  C   UNL     1      44.984   4.315   8.410  0.00  0.00    +0.000 C 
BRANCH  11  12
ATOM     12  C   UNL     1      45.841   3.218   7.815  0.00  0.00    +0.000 A 
ATOM     13  C   UNL     1      45.892   1.941   8.393  0.00  0.00    +0.000 A 
ATOM     14  C   UNL     1      46.668   0.931   7.816  0.00  0.00    +0.000 A 
ATOM     15  C   UNL     1      47.401   1.184   6.658  0.00  0.00    +0.000 A 
ATOM     16  C   UNL     1      47.365   2.450   6.078  0.00  0.00    +0.000 A 
ATOM     17  C   UNL     1      46.588   3.458   6.651  0.00  0.00    +0.000 A 
ENDBRANCH  11  12
ENDBRANCH   9  11
ENDBRANCH   8   9
ENDBRANCH   5   8
ENDBRANCH   1   2
BRANCH   1  20
ATOM     18  C   UNL     1      48.683   5.744  16.347  0.00  0.00    +0.000 C 
ATOM     19  O   UNL     1      49.497   4.854  16.569  0.00  0.00    +0.000 OA
ATOM     20  N   UNL     1      47.542   5.505  15.629  0.00  0.00    +0.000 N 
ATOM     21  H   UNL     1      46.872   6.246  15.485  0.00  0.00    +0.000 HD
BRANCH  18  29
ATOM     22  C   UNL     1      49.575   7.043  19.406  0.00  0.00    +0.000 A 
ATOM     23  N   UNL     1      49.917   7.799  20.469  0.00  0.00    +0.000 NA
ATOM     24  C   UNL     1      49.941   9.124  20.311  0.00  0.00    +0.000 A 
ATOM     25  N   UNL     1      49.662   9.805  19.203  0.00  0.00    +0.000 NA
ATOM     26  C   UNL     1      49.339   9.013  18.165  0.00  0.00    +0.000 A 
ATOM     27  S   UNL     1      48.949   9.710  16.668  0.00  0.00    +0.000 S 
ATOM     28  C   UNL     1      48.689   8.182  15.968  0.00  0.00    +0.000 A 
ATOM     29  C   UNL     1      48.889   7.120  16.843  0.00  0.00    +0.000 A 
ATOM     30  C   UNL     1      49.276   7.623  18.161  0.00  0.00    +0.000 A 
BRANCH  22  32
ATOM     31  C   UNL     1      48.348   5.186  20.122  0.00  0.00    +0.000 C 
ATOM     32  O   UNL     1      49.565   5.675  19.566  0.00  0.00    +0.000 OA
ENDBRANCH  22  32
ENDBRANCH  18  29
ENDBRANCH   1  20
TORSDOF 8
ENDMDL
MODEL 6
REMARK VINA RESULT:    -7.236      2.222      2.923
REMARK INTER + INTRA:         -11.865
REMARK INTER:                 -10.637
REMARK INTRA:                  -1.229
REMARK UNBOUND:                -1.245
REMARK  Name = 
REMARK  9 active torsions:
REMARK  status: ('A' for Active; 'I' for Inactive)
REMARK    1  A    between atoms: C_1  and  O_2
REMARK    2  A    between atoms: O_2  and  C_3
REMARK    3  A    between atoms: C_10  and  C_11
REMARK    4  A    between atoms: N_13  and  C_14
REMARK    5  A    between atoms: C_14  and  C_15
REMARK    6  A    between atoms: C_18  and  C_19
REMARK    7  A    between atoms: C_19  and  N_20
REMARK    8  A    between atoms: N_20  and  C_21
REMARK    9  A    between atoms: C_21  and  C_22
REMARK                            x       y       z     vdW  Elec       q    Type
REMARK                         _______ _______ _______ _____ _____    ______ ____
ROOT
ATOM      1  C   UNL     1      46.969   8.237  12.630  0.00  0.00    +0.000 C 
ENDROOT
BRANCH   1   2
ATOM      2  C   UNL     1      46.252   6.945  12.311  0.00  0.00    +0.000 A 
ATOM      3  C   UNL     1      45.645   6.747  11.064  0.00  0.00    +0.000 A 
ATOM      4  C   UNL     1      45.030   5.527  10.752  0.00  0.00    +0.000 A 
ATOM      5  C   UNL     1      44.993   4.479  11.683  0.00  0.00    +0.000 A 
ATOM      6  C   UNL     1      45.545   4.701  12.953  0.00  0.00    +0.000 A 
ATOM      7  C   UNL     1      46.164   5.920  13.263  0.00  0.00    +0.000 A 
BRANCH   5   8
ATOM      8  C   UNL     1      44.372   3.142  11.326  0.00  0.00    +0.000 C 
BRANCH   8   9
ATOM      9  N   UNL     1      43.999   3.096   9.913  0.00  0.00    +0.000 NA
ATOM     10  H   UNL     1      44.392   3.907   9.437  0.00  0.00    +0.000 HD
BRANCH   9  11
ATOM     11  C   UNL     1      44.480   1.885   9.248  0.00  0.00    +0.000 C 
BRANCH  11  12
ATOM     12  C   UNL     1      45.603   2.206   8.284  0.00  0.00    +0.000 A 
ATOM     13  C   UNL     1      45.772   3.500   7.770  0.00  0.00    +0.000 A 
ATOM     14  C   UNL     1      46.829   3.786   6.900  0.00  0.00    +0.000 A 
ATOM     15  C   UNL     1      47.727   2.785   6.535  0.00  0.00    +0.000 A 
ATOM     16  C   UNL     1      47.567   1.494   7.032  0.00  0.00    +0.000 A 
ATOM     17  C   UNL     1      46.514   1.208   7.903  0.00  0.00    +0.000 A 
ENDBRANCH  11  12
ENDBRANCH   9  11
ENDBRANCH   8   9
ENDBRANCH   5   8
ENDBRANCH   1   2
BRANCH   1  20
ATOM     18  C   UNL     1      48.792   8.604  14.257  0.00  0.00    +0.000 C 
ATOM     19  O   UNL     1      48.130   9.419  14.890  0.00  0.00    +0.000 OA
ATOM     20  N   UNL     1      48.295   7.994  13.137  0.00  0.00    +0.000 N 
ATOM     21  H   UNL     1      48.871   7.349  12.616  0.00  0.00    +0.000 HD
BRANCH  18  29
ATOM     22  C   UNL     1      50.061   6.184  16.350  0.00  0.00    +0.000 A 
ATOM     23  N   UNL     1      50.807   5.338  17.087  0.00  0.00    +0.000 NA
ATOM     24  C   UNL     1      52.133   5.496  17.070  0.00  0.00    +0.000 A 
ATOM     25  N   UNL     1      52.822   6.412  16.394  0.00  0.00    +0.000 NA
ATOM     26  C   UNL     1      52.040   7.226  15.663  0.00  0.00    +0.000 A 
ATOM     27  S   UNL     1      52.749   8.459  14.737  0.00  0.00    +0.000 S 
ATOM     28  C   UNL     1      51.230   8.979  14.174  0.00  0.00    +0.000 A 
ATOM     29  C   UNL     1      50.163   8.238  14.670  0.00  0.00    +0.000 A 
ATOM     30  C   UNL     1      50.653   7.190  15.566  0.00  0.00    +0.000 A 
BRANCH  22  32
ATOM     31  C   UNL     1      48.293   4.764  16.917  0.00  0.00    +0.000 C 
ATOM     32  O   UNL     1      48.694   6.010  16.357  0.00  0.00    +0.000 OA
ENDBRANCH  22  32
ENDBRANCH  18  29
ENDBRANCH   1  20
TORSDOF 8
ENDMDL
MODEL 7
REMARK VINA RESULT:    -6.921      2.111      3.275
REMARK INTER + INTRA:         -11.403
REMARK INTER:                 -10.799
REMARK INTRA:                  -0.604
REMARK UNBOUND:                -1.245
REMARK  Name = 
REMARK  9 active torsions:
REMARK  status: ('A' for Active; 'I' for Inactive)
REMARK    1  A    between atoms: C_1  and  O_2
REMARK    2  A    between atoms: O_2  and  C_3
REMARK    3  A    between atoms: C_10  and  C_11
REMARK    4  A    between atoms: N_13  and  C_14
REMARK    5  A    between atoms: C_14  and  C_15
REMARK    6  A    between atoms: C_18  and  C_19
REMARK    7  A    between atoms: C_19  and  N_20
REMARK    8  A    between atoms: N_20  and  C_21
REMARK    9  A    between atoms: C_21  and  C_22
REMARK                            x       y       z     vdW  Elec       q    Type
REMARK                         _______ _______ _______ _____ _____    ______ ____
ROOT
ATOM      1  C   UNL     1      47.300   4.818  14.765  0.00  0.00    +0.000 C 
ENDROOT
BRANCH   1   2
ATOM      2  C   UNL     1      46.347   4.634  13.606  0.00  0.00    +0.000 A 
ATOM      3  C   UNL     1      46.088   3.360  13.082  0.00  0.00    +0.000 A 
ATOM      4  C   UNL     1      45.163   3.187  12.045  0.00  0.00    +0.000 A 
ATOM      5  C   UNL     1      44.483   4.283  11.494  0.00  0.00    +0.000 A 
ATOM      6  C   UNL     1      44.789   5.563  11.977  0.00  0.00    +0.000 A 
ATOM      7  C   UNL     1      45.712   5.736  13.018  0.00  0.00    +0.000 A 
BRANCH   5   8
ATOM      8  C   UNL     1      43.444   4.088  10.406  0.00  0.00    +0.000 C 
BRANCH   8   9
ATOM      9  N   UNL     1      43.943   4.551   9.112  0.00  0.00    +0.000 NA
ATOM     10  H   UNL     1      43.582   5.486   8.929  0.00  0.00    +0.000 HD
BRANCH   9  11
ATOM     11  C   UNL     1      45.405   4.596   9.062  0.00  0.00    +0.000 C 
BRANCH  11  12
ATOM     12  C   UNL     1      45.955   3.448   8.241  0.00  0.00    +0.000 A 
ATOM     13  C   UNL     1      46.673   3.679   7.058  0.00  0.00    +0.000 A 
ATOM     14  C   UNL     1      47.195   2.609   6.324  0.00  0.00    +0.000 A 
ATOM     15  C   UNL     1      47.006   1.300   6.762  0.00  0.00    +0.000 A 
ATOM     16  C   UNL     1      46.289   1.056   7.930  0.00  0.00    +0.000 A 
ATOM     17  C   UNL     1      45.770   2.123   8.666  0.00  0.00    +0.000 A 
ENDBRANCH  11  12
ENDBRANCH   9  11
ENDBRANCH   8   9
ENDBRANCH   5   8
ENDBRANCH   1   2
BRANCH   1  20
ATOM     18  C   UNL     1      48.724   6.653  15.610  0.00  0.00    +0.000 C 
ATOM     19  O   UNL     1      49.580   5.871  16.008  0.00  0.00    +0.000 OA
ATOM     20  N   UNL     1      47.579   6.211  15.002  0.00  0.00    +0.000 N 
ATOM     21  H   UNL     1      46.875   6.873  14.711  0.00  0.00    +0.000 HD
BRANCH  18  29
ATOM     22  C   UNL     1      47.921   8.862  18.124  0.00  0.00    +0.000 A 
ATOM     23  N   UNL     1      47.729   9.916  18.941  0.00  0.00    +0.000 NA
ATOM     24  C   UNL     1      48.111  11.120  18.507  0.00  0.00    +0.000 A 
ATOM     25  N   UNL     1      48.673  11.410  17.337  0.00  0.00    +0.000 NA
ATOM     26  C   UNL     1      48.858  10.328  16.560  0.00  0.00    +0.000 A 
ATOM     27  S   UNL     1      49.561  10.508  15.026  0.00  0.00    +0.000 S 
ATOM     28  C   UNL     1      49.448   8.838  14.722  0.00  0.00    +0.000 A 
ATOM     29  C   UNL     1      48.882   8.113  15.765  0.00  0.00    +0.000 A 
ATOM     30  C   UNL     1      48.525   9.011  16.864  0.00  0.00    +0.000 A 
BRANCH  22  32
ATOM     31  C   UNL     1      48.478   7.043  19.482  0.00  0.00    +0.000 C 
ATOM     32  O   UNL     1      47.540   7.618  18.579  0.00  0.00    +0.000 OA
ENDBRANCH  22  32
ENDBRANCH  18  29
ENDBRANCH   1  20
TORSDOF 8
ENDMDL
MODEL 8
REMARK VINA RESULT:    -6.913      2.352      3.312
REMARK INTER + INTRA:         -11.391
REMARK INTER:                 -10.527
REMARK INTRA:                  -0.864
REMARK UNBOUND:                -1.245
REMARK  Name = 
REMARK  9 active torsions:
REMARK  status: ('A' for Active; 'I' for Inactive)
REMARK    1  A    between atoms: C_1  and  O_2
REMARK    2  A    between atoms: O_2  and  C_3
REMARK    3  A    between atoms: C_10  and  C_11
REMARK    4  A    between atoms: N_13  and  C_14
REMARK    5  A    between atoms: C_14  and  C_15
REMARK    6  A    between atoms: C_18  and  C_19
REMARK    7  A    between atoms: C_19  and  N_20
REMARK    8  A    between atoms: N_20  and  C_21
REMARK    9  A    between atoms: C_21  and  C_22
REMARK                            x       y       z     vdW  Elec       q    Type
REMARK                         _______ _______ _______ _____ _____    ______ ____
ROOT
ATOM      1  C   UNL     1      46.760   7.592  13.250  0.00  0.00    +0.000 C 
ENDROOT
BRANCH   1   2
ATOM      2  C   UNL     1      45.895   6.432  12.812  0.00  0.00    +0.000 A 
ATOM      3  C   UNL     1      44.690   6.650  12.132  0.00  0.00    +0.000 A 
ATOM      4  C   UNL     1      43.918   5.573  11.678  0.00  0.00    +0.000 A 
ATOM      5  C   UNL     1      44.323   4.249  11.905  0.00  0.00    +0.000 A 
ATOM      6  C   UNL     1      45.497   4.033  12.640  0.00  0.00    +0.000 A 
ATOM      7  C   UNL     1      46.271   5.111  13.091  0.00  0.00    +0.000 A 
BRANCH   5   8
ATOM      8  C   UNL     1      43.513   3.084  11.368  0.00  0.00    +0.000 C 
BRANCH   8   9
ATOM      9  N   UNL     1      44.216   2.414  10.275  0.00  0.00    +0.000 NA
ATOM     10  H   UNL     1      43.660   1.622   9.956  0.00  0.00    +0.000 HD
BRANCH   9  11
ATOM     11  C   UNL     1      44.459   3.304   9.138  0.00  0.00    +0.000 C 
BRANCH  11  12
ATOM     12  C   UNL     1      45.560   2.762   8.252  0.00  0.00    +0.000 A 
ATOM     13  C   UNL     1      45.996   1.433   8.363  0.00  0.00    +0.000 A 
ATOM     14  C   UNL     1      46.996   0.941   7.519  0.00  0.00    +0.000 A 
ATOM     15  C   UNL     1      47.572   1.768   6.557  0.00  0.00    +0.000 A 
ATOM     16  C   UNL     1      47.155   3.092   6.441  0.00  0.00    +0.000 A 
ATOM     17  C   UNL     1      46.153   3.583   7.280  0.00  0.00    +0.000 A 
ENDBRANCH  11  12
ENDBRANCH   9  11
ENDBRANCH   8   9
ENDBRANCH   5   8
ENDBRANCH   1   2
BRANCH   1  20
ATOM     18  C   UNL     1      48.606   8.053  14.828  0.00  0.00    +0.000 C 
ATOM     19  O   UNL     1      48.635   9.240  14.524  0.00  0.00    +0.000 OA
ATOM     20  N   UNL     1      47.724   7.186  14.241  0.00  0.00    +0.000 N 
ATOM     21  H   UNL     1      47.740   6.207  14.487  0.00  0.00    +0.000 HD
BRANCH  18  29
ATOM     22  C   UNL     1      52.024   7.675  14.976  0.00  0.00    +0.000 A 
ATOM     23  N   UNL     1      53.310   7.428  15.292  0.00  0.00    +0.000 NA
ATOM     24  C   UNL     1      53.565   6.851  16.468  0.00  0.00    +0.000 A 
ATOM     25  N   UNL     1      52.678   6.481  17.389  0.00  0.00    +0.000 NA
ATOM     26  C   UNL     1      51.410   6.758  17.039  0.00  0.00    +0.000 A 
ATOM     27  S   UNL     1      50.143   6.354  18.093  0.00  0.00    +0.000 S 
ATOM     28  C   UNL     1      48.982   6.973  17.015  0.00  0.00    +0.000 A 
ATOM     29  C   UNL     1      49.522   7.495  15.845  0.00  0.00    +0.000 A 
ATOM     30  C   UNL     1      50.978   7.360  15.861  0.00  0.00    +0.000 A 
BRANCH  22  32
ATOM     31  C   UNL     1      52.881   9.002  13.252  0.00  0.00    +0.000 C 
ATOM     32  O   UNL     1      51.764   8.285  13.769  0.00  0.00    +0.000 OA
ENDBRANCH  22  32
ENDBRANCH  18  29
ENDBRANCH   1  20
TORSDOF 8
ENDMDL
MODEL 9
REMARK VINA RESULT:    -6.522      4.037      4.918
REMARK INTER + INTRA:         -10.818
REMARK INTER:                  -9.727
REMARK INTRA:                  -1.091
REMARK UNBOUND:                -1.245
REMARK  Name = 
REMARK  9 active torsions:
REMARK  status: ('A' for Active; 'I' for Inactive)
REMARK    1  A    between atoms: C_1  and  O_2
REMARK    2  A    between atoms: O_2  and  C_3
REMARK    3  A    between atoms: C_10  and  C_11
REMARK    4  A    between atoms: N_13  and  C_14
REMARK    5  A    between atoms: C_14  and  C_15
REMARK    6  A    between atoms: C_18  and  C_19
REMARK    7  A    between atoms: C_19  and  N_20
REMARK    8  A    between atoms: N_20  and  C_21
REMARK    9  A    between atoms: C_21  and  C_22
REMARK                            x       y       z     vdW  Elec       q    Type
REMARK                         _______ _______ _______ _____ _____    ______ ____
ROOT
ATOM      1  C   UNL     1      46.811   8.940  12.347  0.00  0.00    +0.000 C 
ENDROOT
BRANCH   1   2
ATOM      2  C   UNL     1      46.261   7.543  12.169  0.00  0.00    +0.000 A 
ATOM      3  C   UNL     1      45.194   7.296  11.295  0.00  0.00    +0.000 A 
ATOM      4  C   UNL     1      44.723   5.992  11.089  0.00  0.00    +0.000 A 
ATOM      5  C   UNL     1      45.296   4.904  11.763  0.00  0.00    +0.000 A 
ATOM      6  C   UNL     1      46.322   5.160  12.684  0.00  0.00    +0.000 A 
ATOM      7  C   UNL     1      46.795   6.464  12.886  0.00  0.00    +0.000 A 
BRANCH   5   8
ATOM      8  C   UNL     1      44.819   3.488  11.502  0.00  0.00    +0.000 C 
BRANCH   8   9
ATOM      9  N   UNL     1      44.217   3.372  10.174  0.00  0.00    +0.000 NA
ATOM     10  H   UNL     1      44.554   4.134   9.587  0.00  0.00    +0.000 HD
BRANCH   9  11
ATOM     11  C   UNL     1      44.541   2.102   9.523  0.00  0.00    +0.000 C 
BRANCH  11  12
ATOM     12  C   UNL     1      45.601   2.294   8.459  0.00  0.00    +0.000 A 
ATOM     13  C   UNL     1      46.425   1.233   8.054  0.00  0.00    +0.000 A 
ATOM     14  C   UNL     1      47.382   1.420   7.052  0.00  0.00    +0.000 A 
ATOM     15  C   UNL     1      47.527   2.666   6.444  0.00  0.00    +0.000 A 
ATOM     16  C   UNL     1      46.720   3.729   6.842  0.00  0.00    +0.000 A 
ATOM     17  C   UNL     1      45.762   3.543   7.839  0.00  0.00    +0.000 A 
ENDBRANCH  11  12
ENDBRANCH   9  11
ENDBRANCH   8   9
ENDBRANCH   5   8
ENDBRANCH   1   2
BRANCH   1  20
ATOM     18  C   UNL     1      49.238   9.407  12.398  0.00  0.00    +0.000 C 
ATOM     19  O   UNL     1      49.221   9.879  11.266  0.00  0.00    +0.000 OA
ATOM     20  N   UNL     1      48.102   8.920  12.987  0.00  0.00    +0.000 N 
ATOM     21  H   UNL     1      48.148   8.509  13.908  0.00  0.00    +0.000 HD
BRANCH  18  29
ATOM     22  C   UNL     1      52.400   8.232  11.718  0.00  0.00    +0.000 A 
ATOM     23  N   UNL     1      53.698   7.868  11.709  0.00  0.00    +0.000 NA
ATOM     24  C   UNL     1      54.411   8.072  12.819  0.00  0.00    +0.000 A 
ATOM     25  N   UNL     1      53.984   8.605  13.961  0.00  0.00    +0.000 NA
ATOM     26  C   UNL     1      52.689   8.966  13.921  0.00  0.00    +0.000 A 
ATOM     27  S   UNL     1      51.970   9.662  15.292  0.00  0.00    +0.000 S 
ATOM     28  C   UNL     1      50.475   9.809  14.495  0.00  0.00    +0.000 A 
ATOM     29  C   UNL     1      50.485   9.339  13.186  0.00  0.00    +0.000 A 
ATOM     30  C   UNL     1      51.814   8.830  12.847  0.00  0.00    +0.000 A 
BRANCH  22  32
ATOM     31  C   UNL     1      52.298   7.145   9.651  0.00  0.00    +0.000 C 
ATOM     32  O   UNL     1      51.669   8.036  10.567  0.00  0.00    +0.000 OA
ENDBRANCH  22  32
ENDBRANCH  18  29
ENDBRANCH   1  20
TORSDOF 8
ENDMDL
