MODEL 1
REMARK VINA RESULT:    -8.336      0.000      0.000
REMARK INTER + INTRA:         -12.177
REMARK INTER:                 -11.747
REMARK INTRA:                  -0.430
REMARK UNBOUND:                -0.430
REMARK  Name = 
REMARK  8 active torsions:
REMARK  status: ('A' for Active; 'I' for Inactive)
REMARK    1  A    between atoms: C_2  and  C_16
REMARK    2  A    between atoms: N_3  and  C_4
REMARK    3  A    between atoms: C_4  and  C_5
REMARK    4  A    between atoms: C_8  and  C_9
REMARK    5  A    between atoms: C_9  and  C_10
REMARK    6  A    between atoms: C_10  and  O_11
REMARK    7  A    between atoms: C_10  and  C_12
REMARK    8  A    between atoms: C_12  and  O_13
REMARK                            x       y       z     vdW  Elec       q    Type
REMARK                         _______ _______ _______ _____ _____    ______ ____
ROOT
ATOM      1  O   UNL     1      46.575   3.401  13.782  0.00  0.00    +0.000 OA
ATOM      2  C   UNL     1      46.460   4.593  14.046  0.00  0.00    +0.000 C 
ATOM      3  N   UNL     1      45.433   5.374  13.597  0.00  0.00    +0.000 N 
ATOM      4  H   UNL     1      45.496   6.378  13.693  0.00  0.00    +0.000 HD
ENDROOT
BRANCH   2   5
ATOM      5  C   UNL     1      47.460   5.315  14.831  0.00  0.00    +0.000 A 
ATOM      6  C   UNL     1      48.263   6.300  14.277  0.00  0.00    +0.000 A 
ATOM      7  S   UNL     1      49.308   7.027  15.420  0.00  0.00    +0.000 S 
ATOM      8  C   UNL     1      48.740   6.018  16.670  0.00  0.00    +0.000 A 
ATOM      9  N   UNL     1      49.218   6.121  17.939  0.00  0.00    +0.000 NA
ATOM     10  C   UNL     1      48.691   5.290  18.777  0.00  0.00    +0.000 A 
ATOM     11  N   UNL     1      47.736   4.361  18.464  0.00  0.00    +0.000 N 
ATOM     12  C   UNL     1      47.276   4.164  17.184  0.00  0.00    +0.000 A 
ATOM     13  O   UNL     1      46.509   3.249  16.938  0.00  0.00    +0.000 OA
ATOM     14  C   UNL     1      47.789   5.124  16.220  0.00  0.00    +0.000 A 
ATOM     15  H   UNL     1      47.392   3.711  19.152  0.00  0.00    +0.000 HD
ENDBRANCH   2   5
BRANCH   3  16
ATOM     16  C   UNL     1      44.287   4.848  12.904  0.00  0.00    +0.000 C 
BRANCH  16  17
ATOM     17  C   UNL     1      44.652   4.461  11.496  0.00  0.00    +0.000 A 
ATOM     18  C   UNL     1      44.326   3.191  11.007  0.00  0.00    +0.000 A 
ATOM     19  C   UNL     1      44.624   2.835   9.689  0.00  0.00    +0.000 A 
ATOM     20  C   UNL     1      45.274   3.730   8.831  0.00  0.00    +0.000 A 
ATOM     21  C   UNL     1      45.640   4.987   9.336  0.00  0.00    +0.000 A 
ATOM     22  C   UNL     1      45.333   5.349  10.654  0.00  0.00    +0.000 A 
BRANCH  20  23
ATOM     23  C   UNL     1      45.602   3.340   7.402  0.00  0.00    +0.000 C 
BRANCH  23  24
ATOM     24  C   UNL     1      46.922   2.559   7.241  0.00  0.00    +0.000 C 
BRANCH  24  25
ATOM     25  O   UNL     1      46.774   1.214   7.707  0.00  0.00    +0.000 OA
ATOM     26  H   UNL     1      46.365   0.690   6.998  0.00  0.00    +0.000 HD
ENDBRANCH  24  25
BRANCH  24  27
ATOM     27  C   UNL     1      47.400   2.530   5.777  0.00  0.00    +0.000 C 
BRANCH  27  28
ATOM     28  O   UNL     1      48.593   1.758   5.631  0.00  0.00    +0.000 OA
ATOM     29  H   UNL     1      48.340   0.819   5.581  0.00  0.00    +0.000 HD
ENDBRANCH  27  28
ENDBRANCH  24  27
ENDBRANCH  23  24
ENDBRANCH  20  23
ENDBRANCH  16  17
ENDBRANCH   3  16
TORSDOF 8
ENDMDL
MODEL 2
REMARK VINA RESULT:    -7.829      1.622      2.586
REMARK INTER + INTRA:         -11.462
REMARK INTER:                 -10.818
REMARK INTRA:                  -0.644
REMARK UNBOUND:                -0.430
REMARK  Name = 
REMARK  8 active torsions:
REMARK  status: ('A' for Active; 'I' for Inactive)
REMARK    1  A    between atoms: C_2  and  C_16
REMARK    2  A    between atoms: N_3  and  C_4
REMARK    3  A    between atoms: C_4  and  C_5
REMARK    4  A    between atoms: C_8  and  C_9
REMARK    5  A    between atoms: C_9  and  C_10
REMARK    6  A    between atoms: C_10  and  O_11
REMARK    7  A    between atoms: C_10  and  C_12
REMARK    8  A    between atoms: C_12  and  O_13
REMARK                            x       y       z     vdW  Elec       q    Type
REMARK                         _______ _______ _______ _____ _____    ______ ____
ROOT
ATOM      1  O   UNL     1      46.401   3.261  13.534  0.00  0.00    +0.000 OA
ATOM      2  C   UNL     1      46.290   4.441  13.846  0.00  0.00    +0.000 C 
ATOM      3  N   UNL     1      45.275   5.249  13.414  0.00  0.00    +0.000 N 
ATOM      4  H   UNL     1      45.343   6.247  13.553  0.00  0.00    +0.000 HD
ENDROOT
BRANCH   2   5
ATOM      5  C   UNL     1      47.282   5.122  14.676  0.00  0.00    +0.000 A 
ATOM      6  C   UNL     1      47.505   4.770  15.998  0.00  0.00    +0.000 A 
ATOM      7  S   UNL     1      48.754   5.684  16.728  0.00  0.00    +0.000 S 
ATOM      8  C   UNL     1      48.998   6.595  15.309  0.00  0.00    +0.000 A 
ATOM      9  N   UNL     1      49.947   7.567  15.243  0.00  0.00    +0.000 NA
ATOM     10  C   UNL     1      50.013   8.171  14.102  0.00  0.00    +0.000 A 
ATOM     11  N   UNL     1      49.216   7.900  13.024  0.00  0.00    +0.000 N 
ATOM     12  C   UNL     1      48.192   6.984  13.063  0.00  0.00    +0.000 A 
ATOM     13  O   UNL     1      47.438   6.859  12.113  0.00  0.00    +0.000 OA
ATOM     14  C   UNL     1      48.125   6.229  14.303  0.00  0.00    +0.000 A 
ATOM     15  H   UNL     1      49.286   8.433  12.172  0.00  0.00    +0.000 HD
ENDBRANCH   2   5
BRANCH   3  16
ATOM     16  C   UNL     1      44.138   4.761  12.681  0.00  0.00    +0.000 C 
BRANCH  16  17
ATOM     17  C   UNL     1      44.538   4.356  11.288  0.00  0.00    +0.000 A 
ATOM     18  C   UNL     1      44.215   3.084  10.803  0.00  0.00    +0.000 A 
ATOM     19  C   UNL     1      44.548   2.712   9.498  0.00  0.00    +0.000 A 
ATOM     20  C   UNL     1      45.230   3.592   8.650  0.00  0.00    +0.000 A 
ATOM     21  C   UNL     1      45.593   4.850   9.153  0.00  0.00    +0.000 A 
ATOM     22  C   UNL     1      45.251   5.229  10.457  0.00  0.00    +0.000 A 
BRANCH  20  23
ATOM     23  C   UNL     1      45.595   3.184   7.234  0.00  0.00    +0.000 C 
BRANCH  23  24
ATOM     24  C   UNL     1      47.030   2.642   7.078  0.00  0.00    +0.000 C 
BRANCH  24  25
ATOM     25  O   UNL     1      47.127   1.309   7.590  0.00  0.00    +0.000 OA
ATOM     26  H   UNL     1      46.500   0.750   7.101  0.00  0.00    +0.000 HD
ENDBRANCH  24  25
BRANCH  24  27
ATOM     27  C   UNL     1      47.491   2.647   5.607  0.00  0.00    +0.000 C 
BRANCH  27  28
ATOM     28  O   UNL     1      48.606   1.777   5.405  0.00  0.00    +0.000 OA
ATOM     29  H   UNL     1      48.285   0.859   5.458  0.00  0.00    +0.000 HD
ENDBRANCH  27  28
ENDBRANCH  24  27
ENDBRANCH  23  24
ENDBRANCH  20  23
ENDBRANCH  16  17
ENDBRANCH   3  16
TORSDOF 8
ENDMDL
MODEL 3
REMARK VINA RESULT:    -7.373      1.591      2.204
REMARK INTER + INTRA:         -10.819
REMARK INTER:                 -10.136
REMARK INTRA:                  -0.684
REMARK UNBOUND:                -0.430
REMARK  Name = 
REMARK  8 active torsions:
REMARK  status: ('A' for Active; 'I' for Inactive)
REMARK    1  A    between atoms: C_2  and  C_16
REMARK    2  A    between atoms: N_3  and  C_4
REMARK    3  A    between atoms: C_4  and  C_5
REMARK    4  A    between atoms: C_8  and  C_9
REMARK    5  A    between atoms: C_9  and  C_10
REMARK    6  A    between atoms: C_10  and  O_11
REMARK    7  A    between atoms: C_10  and  C_12
REMARK    8  A    between atoms: C_12  and  O_13
REMARK                            x       y       z     vdW  Elec       q    Type
REMARK                         _______ _______ _______ _____ _____    ______ ____
ROOT
ATOM      1  O   UNL     1      47.407   7.002  11.394  0.00  0.00    +0.000 OA
ATOM      2  C   UNL     1      46.867   6.679  12.446  0.00  0.00    +0.000 C 
ATOM      3  N   UNL     1      45.520   6.490  12.582  0.00  0.00    +0.000 N 
ATOM      4  H   UNL     1      45.122   6.410  13.507  0.00  0.00    +0.000 HD
ENDROOT
BRANCH   2   5
ATOM      5  C   UNL     1      47.619   6.521  13.690  0.00  0.00    +0.000 A 
ATOM      6  C   UNL     1      48.441   7.519  14.187  0.00  0.00    +0.000 A 
ATOM      7  S   UNL     1      49.162   7.103  15.682  0.00  0.00    +0.000 S 
ATOM      8  C   UNL     1      48.424   5.567  15.679  0.00  0.00    +0.000 A 
ATOM      9  N   UNL     1      48.615   4.685  16.696  0.00  0.00    +0.000 NA
ATOM     10  C   UNL     1      47.990   3.563  16.553  0.00  0.00    +0.000 A 
ATOM     11  N   UNL     1      47.198   3.237  15.486  0.00  0.00    +0.000 N 
ATOM     12  C   UNL     1      47.035   4.060  14.398  0.00  0.00    +0.000 A 
ATOM     13  O   UNL     1      46.411   3.678  13.423  0.00  0.00    +0.000 OA
ATOM     14  C   UNL     1      47.662   5.363  14.546  0.00  0.00    +0.000 A 
ATOM     15  H   UNL     1      46.769   2.329  15.409  0.00  0.00    +0.000 HD
ENDBRANCH   2   5
BRANCH   3  16
ATOM     16  C   UNL     1      44.609   6.488  11.469  0.00  0.00    +0.000 C 
BRANCH  16  17
ATOM     17  C   UNL     1      44.751   5.221  10.669  0.00  0.00    +0.000 A 
ATOM     18  C   UNL     1      45.356   5.248   9.407  0.00  0.00    +0.000 A 
ATOM     19  C   UNL     1      45.529   4.072   8.673  0.00  0.00    +0.000 A 
ATOM     20  C   UNL     1      45.084   2.842   9.169  0.00  0.00    +0.000 A 
ATOM     21  C   UNL     1      44.437   2.823  10.414  0.00  0.00    +0.000 A 
ATOM     22  C   UNL     1      44.272   3.999  11.156  0.00  0.00    +0.000 A 
BRANCH  20  23
ATOM     23  C   UNL     1      45.268   1.566   8.368  0.00  0.00    +0.000 C 
BRANCH  23  24
ATOM     24  C   UNL     1      46.729   1.259   7.985  0.00  0.00    +0.000 C 
BRANCH  24  25
ATOM     25  O   UNL     1      46.971  -0.151   7.995  0.00  0.00    +0.000 OA
ATOM     26  H   UNL     1      46.792  -0.483   8.891  0.00  0.00    +0.000 HD
ENDBRANCH  24  25
BRANCH  24  27
ATOM     27  C   UNL     1      47.089   1.817   6.594  0.00  0.00    +0.000 C 
BRANCH  27  28
ATOM     28  O   UNL     1      48.125   2.797   6.674  0.00  0.00    +0.000 OA
ATOM     29  H   UNL     1      48.312   3.112   5.772  0.00  0.00    +0.000 HD
ENDBRANCH  27  28
ENDBRANCH  24  27
ENDBRANCH  23  24
ENDBRANCH  20  23
ENDBRANCH  16  17
ENDBRANCH   3  16
TORSDOF 8
ENDMDL
MODEL 4
REMARK VINA RESULT:    -7.175      2.229      3.389
REMARK INTER + INTRA:         -10.541
REMARK INTER:                  -9.417
REMARK INTRA:                  -1.124
REMARK UNBOUND:                -0.430
REMARK  Name = 
REMARK  8 active torsions:
REMARK  status: ('A' for Active; 'I' for Inactive)
REMARK    1  A    between atoms: C_2  and  C_16
REMARK    2  A    between atoms: N_3  and  C_4
REMARK    3  A    between atoms: C_4  and  C_5
REMARK    4  A    between atoms: C_8  and  C_9
REMARK    5  A    between atoms: C_9  and  C_10
REMARK    6  A    between atoms: C_10  and  O_11
REMARK    7  A    between atoms: C_10  and  C_12
REMARK    8  A    between atoms: C_12  and  O_13
REMARK                            x       y       z     vdW  Elec       q    Type
REMARK                         _______ _______ _______ _____ _____    ______ ____
ROOT
ATOM      1  O   UNL     1      49.638   7.142  13.712  0.00  0.00    +0.000 OA
ATOM      2  C   UNL     1      48.776   7.108  14.582  0.00  0.00    +0.000 C 
ATOM      3  N   UNL     1      47.555   7.711  14.466  0.00  0.00    +0.000 N 
ATOM      4  H   UNL     1      46.968   7.804  15.284  0.00  0.00    +0.000 HD
ENDROOT
BRANCH   2   5
ATOM      5  C   UNL     1      48.998   6.456  15.872  0.00  0.00    +0.000 A 
ATOM      6  C   UNL     1      49.919   6.933  16.791  0.00  0.00    +0.000 A 
ATOM      7  S   UNL     1      49.946   6.023  18.240  0.00  0.00    +0.000 S 
ATOM      8  C   UNL     1      48.757   4.950  17.658  0.00  0.00    +0.000 A 
ATOM      9  N   UNL     1      48.301   3.916  18.415  0.00  0.00    +0.000 NA
ATOM     10  C   UNL     1      47.400   3.190  17.838  0.00  0.00    +0.000 A 
ATOM     11  N   UNL     1      46.919   3.395  16.575  0.00  0.00    +0.000 N 
ATOM     12  C   UNL     1      47.401   4.375  15.741  0.00  0.00    +0.000 A 
ATOM     13  O   UNL     1      47.019   4.447  14.585  0.00  0.00    +0.000 OA
ATOM     14  C   UNL     1      48.365   5.262  16.371  0.00  0.00    +0.000 A 
ATOM     15  H   UNL     1      46.245   2.770  16.162  0.00  0.00    +0.000 HD
ENDBRANCH   2   5
BRANCH   3  16
ATOM     16  C   UNL     1      47.086   8.312  13.247  0.00  0.00    +0.000 C 
BRANCH  16  17
ATOM     17  C   UNL     1      46.230   7.346  12.473  0.00  0.00    +0.000 A 
ATOM     18  C   UNL     1      46.740   6.702  11.340  0.00  0.00    +0.000 A 
ATOM     19  C   UNL     1      45.968   5.773  10.638  0.00  0.00    +0.000 A 
ATOM     20  C   UNL     1      44.659   5.478  11.036  0.00  0.00    +0.000 A 
ATOM     21  C   UNL     1      44.133   6.157  12.145  0.00  0.00    +0.000 A 
ATOM     22  C   UNL     1      44.909   7.081  12.857  0.00  0.00    +0.000 A 
BRANCH  20  23
ATOM     23  C   UNL     1      43.819   4.473  10.268  0.00  0.00    +0.000 C 
BRANCH  23  24
ATOM     24  C   UNL     1      44.299   3.013  10.396  0.00  0.00    +0.000 C 
BRANCH  24  25
ATOM     25  O   UNL     1      43.357   2.234  11.140  0.00  0.00    +0.000 OA
ATOM     26  H   UNL     1      43.006   1.542  10.554  0.00  0.00    +0.000 HD
ENDBRANCH  24  25
BRANCH  24  27
ATOM     27  C   UNL     1      44.516   2.355   9.020  0.00  0.00    +0.000 C 
BRANCH  27  28
ATOM     28  O   UNL     1      44.415   3.308   7.961  0.00  0.00    +0.000 OA
ATOM     29  H   UNL     1      44.916   4.102   8.223  0.00  0.00    +0.000 HD
ENDBRANCH  27  28
ENDBRANCH  24  27
ENDBRANCH  23  24
ENDBRANCH  20  23
ENDBRANCH  16  17
ENDBRANCH   3  16
TORSDOF 8
ENDMDL
MODEL 5
REMARK VINA RESULT:    -7.165      3.812      8.240
REMARK INTER + INTRA:         -10.527
REMARK INTER:                  -9.810
REMARK INTRA:                  -0.717
REMARK UNBOUND:                -0.430
REMARK  Name = 
REMARK  8 active torsions:
REMARK  status: ('A' for Active; 'I' for Inactive)
REMARK    1  A    between atoms: C_2  and  C_16
REMARK    2  A    between atoms: N_3  and  C_4
REMARK    3  A    between atoms: C_4  and  C_5
REMARK    4  A    between atoms: C_8  and  C_9
REMARK    5  A    between atoms: C_9  and  C_10
REMARK    6  A    between atoms: C_10  and  O_11
REMARK    7  A    between atoms: C_10  and  C_12
REMARK    8  A    between atoms: C_12  and  O_13
REMARK                            x       y       z     vdW  Elec       q    Type
REMARK                         _______ _______ _______ _____ _____    ______ ____
ROOT
ATOM      1  O   UNL     1      49.370   6.647  13.995  0.00  0.00    +0.000 OA
ATOM      2  C   UNL     1      48.226   6.439  14.383  0.00  0.00    +0.000 C 
ATOM      3  N   UNL     1      47.895   6.217  15.690  0.00  0.00    +0.000 N 
ATOM      4  H   UNL     1      46.974   5.870  15.916  0.00  0.00    +0.000 HD
ENDROOT
BRANCH   2   5
ATOM      5  C   UNL     1      47.096   6.351  13.459  0.00  0.00    +0.000 A 
ATOM      6  C   UNL     1      46.525   7.474  12.882  0.00  0.00    +0.000 A 
ATOM      7  S   UNL     1      45.257   7.092  11.799  0.00  0.00    +0.000 S 
ATOM      8  C   UNL     1      45.416   5.424  12.105  0.00  0.00    +0.000 A 
ATOM      9  N   UNL     1      44.625   4.508  11.485  0.00  0.00    +0.000 NA
ATOM     10  C   UNL     1      44.864   3.283  11.819  0.00  0.00    +0.000 A 
ATOM     11  N   UNL     1      45.814   2.887  12.720  0.00  0.00    +0.000 N 
ATOM     12  C   UNL     1      46.584   3.775  13.432  0.00  0.00    +0.000 A 
ATOM     13  O   UNL     1      47.338   3.378  14.305  0.00  0.00    +0.000 OA
ATOM     14  C   UNL     1      46.401   5.162  13.038  0.00  0.00    +0.000 A 
ATOM     15  H   UNL     1      45.926   1.918  12.973  0.00  0.00    +0.000 HD
ENDBRANCH   2   5
BRANCH   3  16
ATOM     16  C   UNL     1      48.828   6.365  16.775  0.00  0.00    +0.000 C 
BRANCH  16  17
ATOM     17  C   UNL     1      49.542   5.068  17.042  0.00  0.00    +0.000 A 
ATOM     18  C   UNL     1      48.826   3.867  17.095  0.00  0.00    +0.000 A 
ATOM     19  C   UNL     1      49.484   2.651  17.302  0.00  0.00    +0.000 A 
ATOM     20  C   UNL     1      50.871   2.606  17.483  0.00  0.00    +0.000 A 
ATOM     21  C   UNL     1      51.582   3.815  17.475  0.00  0.00    +0.000 A 
ATOM     22  C   UNL     1      50.926   5.033  17.256  0.00  0.00    +0.000 A 
BRANCH  20  23
ATOM     23  C   UNL     1      51.584   1.285  17.714  0.00  0.00    +0.000 C 
BRANCH  23  24
ATOM     24  C   UNL     1      53.104   1.412  17.934  0.00  0.00    +0.000 C 
BRANCH  24  25
ATOM     25  O   UNL     1      53.387   1.880  19.257  0.00  0.00    +0.000 OA
ATOM     26  H   UNL     1      54.124   2.512  19.205  0.00  0.00    +0.000 HD
ENDBRANCH  24  25
BRANCH  24  27
ATOM     27  C   UNL     1      53.833   0.072  17.712  0.00  0.00    +0.000 C 
BRANCH  27  28
ATOM     28  O   UNL     1      53.383  -0.926  18.629  0.00  0.00    +0.000 OA
ATOM     29  H   UNL     1      53.541  -0.598  19.533  0.00  0.00    +0.000 HD
ENDBRANCH  27  28
ENDBRANCH  24  27
ENDBRANCH  23  24
ENDBRANCH  20  23
ENDBRANCH  16  17
ENDBRANCH   3  16
TORSDOF 8
ENDMDL
MODEL 6
REMARK VINA RESULT:    -7.042      1.831      2.351
REMARK INTER + INTRA:         -10.353
REMARK INTER:                  -9.763
REMARK INTRA:                  -0.591
REMARK UNBOUND:                -0.430
REMARK  Name = 
REMARK  8 active torsions:
REMARK  status: ('A' for Active; 'I' for Inactive)
REMARK    1  A    between atoms: C_2  and  C_16
REMARK    2  A    between atoms: N_3  and  C_4
REMARK    3  A    between atoms: C_4  and  C_5
REMARK    4  A    between atoms: C_8  and  C_9
REMARK    5  A    between atoms: C_9  and  C_10
REMARK    6  A    between atoms: C_10  and  O_11
REMARK    7  A    between atoms: C_10  and  C_12
REMARK    8  A    between atoms: C_12  and  O_13
REMARK                            x       y       z     vdW  Elec       q    Type
REMARK                         _______ _______ _______ _____ _____    ______ ____
ROOT
ATOM      1  O   UNL     1      47.783   6.225  12.546  0.00  0.00    +0.000 OA
ATOM      2  C   UNL     1      46.994   5.847  13.404  0.00  0.00    +0.000 C 
ATOM      3  N   UNL     1      45.637   5.962  13.292  0.00  0.00    +0.000 N 
ATOM      4  H   UNL     1      45.057   5.805  14.105  0.00  0.00    +0.000 HD
ENDROOT
BRANCH   2   5
ATOM      5  C   UNL     1      47.441   5.281  14.676  0.00  0.00    +0.000 A 
ATOM      6  C   UNL     1      47.055   4.018  15.098  0.00  0.00    +0.000 A 
ATOM      7  S   UNL     1      47.759   3.572  16.592  0.00  0.00    +0.000 S 
ATOM      8  C   UNL     1      48.564   5.068  16.728  0.00  0.00    +0.000 A 
ATOM      9  N   UNL     1      49.365   5.350  17.789  0.00  0.00    +0.000 NA
ATOM     10  C   UNL     1      49.907   6.523  17.752  0.00  0.00    +0.000 A 
ATOM     11  N   UNL     1      49.717   7.443  16.757  0.00  0.00    +0.000 N 
ATOM     12  C   UNL     1      48.858   7.239  15.704  0.00  0.00    +0.000 A 
ATOM     13  O   UNL     1      48.637   8.132  14.904  0.00  0.00    +0.000 OA
ATOM     14  C   UNL     1      48.280   5.905  15.667  0.00  0.00    +0.000 A 
ATOM     15  H   UNL     1      50.134   8.359  16.803  0.00  0.00    +0.000 HD
ENDBRANCH   2   5
BRANCH   3  16
ATOM     16  C   UNL     1      44.979   6.388  12.086  0.00  0.00    +0.000 C 
BRANCH  16  17
ATOM     17  C   UNL     1      45.030   5.305  11.042  0.00  0.00    +0.000 A 
ATOM     18  C   UNL     1      45.625   5.550   9.800  0.00  0.00    +0.000 A 
ATOM     19  C   UNL     1      45.713   4.540   8.839  0.00  0.00    +0.000 A 
ATOM     20  C   UNL     1      45.190   3.265   9.085  0.00  0.00    +0.000 A 
ATOM     21  C   UNL     1      44.554   3.034  10.313  0.00  0.00    +0.000 A 
ATOM     22  C   UNL     1      44.474   4.042  11.282  0.00  0.00    +0.000 A 
BRANCH  20  23
ATOM     23  C   UNL     1      45.281   2.170   8.037  0.00  0.00    +0.000 C 
BRANCH  23  24
ATOM     24  C   UNL     1      46.719   1.714   7.716  0.00  0.00    +0.000 C 
BRANCH  24  25
ATOM     25  O   UNL     1      46.849   0.298   7.877  0.00  0.00    +0.000 OA
ATOM     26  H   UNL     1      47.411  -0.039   7.159  0.00  0.00    +0.000 HD
ENDBRANCH  24  25
BRANCH  24  27
ATOM     27  C   UNL     1      47.137   2.094   6.282  0.00  0.00    +0.000 C 
BRANCH  27  28
ATOM     28  O   UNL     1      48.474   1.678   5.999  0.00  0.00    +0.000 OA
ATOM     29  H   UNL     1      48.452   1.116   5.204  0.00  0.00    +0.000 HD
ENDBRANCH  27  28
ENDBRANCH  24  27
ENDBRANCH  23  24
ENDBRANCH  20  23
ENDBRANCH  16  17
ENDBRANCH   3  16
TORSDOF 8
ENDMDL
MODEL 7
REMARK VINA RESULT:    -6.879      1.830      2.390
REMARK INTER + INTRA:         -10.124
REMARK INTER:                  -9.437
REMARK INTRA:                  -0.687
REMARK UNBOUND:                -0.430
REMARK  Name = 
REMARK  8 active torsions:
REMARK  status: ('A' for Active; 'I' for Inactive)
REMARK    1  A    between atoms: C_2  and  C_16
REMARK    2  A    between atoms: N_3  and  C_4
REMARK    3  A    between atoms: C_4  and  C_5
REMARK    4  A    between atoms: C_8  and  C_9
REMARK    5  A    between atoms: C_9  and  C_10
REMARK    6  A    between atoms: C_10  and  O_11
REMARK    7  A    between atoms: C_10  and  C_12
REMARK    8  A    between atoms: C_12  and  O_13
REMARK                            x       y       z     vdW  Elec       q    Type
REMARK                         _______ _______ _______ _____ _____    ______ ____
ROOT
ATOM      1  O   UNL     1      46.045   8.374  13.317  0.00  0.00    +0.000 OA
ATOM      2  C   UNL     1      46.835   7.440  13.396  0.00  0.00    +0.000 C 
ATOM      3  N   UNL     1      46.477   6.128  13.260  0.00  0.00    +0.000 N 
ATOM      4  H   UNL     1      47.133   5.406  13.520  0.00  0.00    +0.000 HD
ENDROOT
BRANCH   2   5
ATOM      5  C   UNL     1      48.249   7.643  13.708  0.00  0.00    +0.000 A 
ATOM      6  C   UNL     1      49.059   8.478  12.954  0.00  0.00    +0.000 A 
ATOM      7  S   UNL     1      50.655   8.582  13.561  0.00  0.00    +0.000 S 
ATOM      8  C   UNL     1      50.312   7.485  14.820  0.00  0.00    +0.000 A 
ATOM      9  N   UNL     1      51.256   7.132  15.732  0.00  0.00    +0.000 NA
ATOM     10  C   UNL     1      50.847   6.293  16.625  0.00  0.00    +0.000 A 
ATOM     11  N   UNL     1      49.585   5.768  16.689  0.00  0.00    +0.000 N 
ATOM     12  C   UNL     1      48.618   6.032  15.749  0.00  0.00    +0.000 A 
ATOM     13  O   UNL     1      47.546   5.453  15.786  0.00  0.00    +0.000 OA
ATOM     14  C   UNL     1      49.010   7.026  14.764  0.00  0.00    +0.000 A 
ATOM     15  H   UNL     1      49.335   5.085  17.386  0.00  0.00    +0.000 HD
ENDBRANCH   2   5
BRANCH   3  16
ATOM     16  C   UNL     1      45.165   5.709  12.845  0.00  0.00    +0.000 C 
BRANCH  16  17
ATOM     17  C   UNL     1      45.223   5.033  11.502  0.00  0.00    +0.000 A 
ATOM     18  C   UNL     1      45.671   5.735  10.378  0.00  0.00    +0.000 A 
ATOM     19  C   UNL     1      45.767   5.106   9.134  0.00  0.00    +0.000 A 
ATOM     20  C   UNL     1      45.398   3.765   8.975  0.00  0.00    +0.000 A 
ATOM     21  C   UNL     1      44.908   3.075  10.094  0.00  0.00    +0.000 A 
ATOM     22  C   UNL     1      44.821   3.701  11.343  0.00  0.00    +0.000 A 
BRANCH  20  23
ATOM     23  C   UNL     1      45.498   3.084   7.622  0.00  0.00    +0.000 C 
BRANCH  23  24
ATOM     24  C   UNL     1      46.818   2.322   7.389  0.00  0.00    +0.000 C 
BRANCH  24  25
ATOM     25  O   UNL     1      46.684   0.949   7.772  0.00  0.00    +0.000 OA
ATOM     26  H   UNL     1      47.445   0.460   7.417  0.00  0.00    +0.000 HD
ENDBRANCH  24  25
BRANCH  24  27
ATOM     27  C   UNL     1      47.268   2.388   5.916  0.00  0.00    +0.000 C 
BRANCH  27  28
ATOM     28  O   UNL     1      48.525   1.737   5.724  0.00  0.00    +0.000 OA
ATOM     29  H   UNL     1      49.230   2.382   5.913  0.00  0.00    +0.000 HD
ENDBRANCH  27  28
ENDBRANCH  24  27
ENDBRANCH  23  24
ENDBRANCH  20  23
ENDBRANCH  16  17
ENDBRANCH   3  16
TORSDOF 8
ENDMDL
MODEL 8
REMARK VINA RESULT:    -6.871      3.950      7.830
REMARK INTER + INTRA:         -10.112
REMARK INTER:                  -9.142
REMARK INTRA:                  -0.971
REMARK UNBOUND:                -0.430
REMARK  Name = 
REMARK  8 active torsions:
REMARK  status: ('A' for Active; 'I' for Inactive)
REMARK    1  A    between atoms: C_2  and  C_16
REMARK    2  A    between atoms: N_3  and  C_4
REMARK    3  A    between atoms: C_4  and  C_5
REMARK    4  A    between atoms: C_8  and  C_9
REMARK    5  A    between atoms: C_9  and  C_10
REMARK    6  A    between atoms: C_10  and  O_11
REMARK    7  A    between atoms: C_10  and  C_12
REMARK    8  A    between atoms: C_12  and  O_13
REMARK                            x       y       z     vdW  Elec       q    Type
REMARK                         _______ _______ _______ _____ _____    ______ ____
ROOT
ATOM      1  O   UNL     1      47.933   7.007  11.765  0.00  0.00    +0.000 OA
ATOM      2  C   UNL     1      47.015   6.894  12.570  0.00  0.00    +0.000 C 
ATOM      3  N   UNL     1      47.148   7.122  13.911  0.00  0.00    +0.000 N 
ATOM      4  H   UNL     1      46.410   6.832  14.538  0.00  0.00    +0.000 HD
ENDROOT
BRANCH   2   5
ATOM      5  C   UNL     1      45.683   6.442  12.171  0.00  0.00    +0.000 A 
ATOM      6  C   UNL     1      44.737   7.307  11.644  0.00  0.00    +0.000 A 
ATOM      7  S   UNL     1      43.283   6.517  11.209  0.00  0.00    +0.000 S 
ATOM      8  C   UNL     1      43.869   5.011  11.750  0.00  0.00    +0.000 A 
ATOM      9  N   UNL     1      43.117   3.881  11.660  0.00  0.00    +0.000 NA
ATOM     10  C   UNL     1      43.697   2.818  12.110  0.00  0.00    +0.000 A 
ATOM     11  N   UNL     1      44.953   2.778  12.649  0.00  0.00    +0.000 N 
ATOM     12  C   UNL     1      45.723   3.901  12.835  0.00  0.00    +0.000 A 
ATOM     13  O   UNL     1      46.789   3.830  13.422  0.00  0.00    +0.000 OA
ATOM     14  C   UNL     1      45.141   5.111  12.278  0.00  0.00    +0.000 A 
ATOM     15  H   UNL     1      45.337   1.924  13.023  0.00  0.00    +0.000 HD
ENDBRANCH   2   5
BRANCH   3  16
ATOM     16  C   UNL     1      48.336   7.676  14.502  0.00  0.00    +0.000 C 
BRANCH  16  17
ATOM     17  C   UNL     1      48.926   6.721  15.504  0.00  0.00    +0.000 A 
ATOM     18  C   UNL     1      48.150   5.680  16.027  0.00  0.00    +0.000 A 
ATOM     19  C   UNL     1      48.699   4.764  16.928  0.00  0.00    +0.000 A 
ATOM     20  C   UNL     1      50.029   4.876  17.348  0.00  0.00    +0.000 A 
ATOM     21  C   UNL     1      50.792   5.946  16.858  0.00  0.00    +0.000 A 
ATOM     22  C   UNL     1      50.247   6.859  15.946  0.00  0.00    +0.000 A 
BRANCH  20  23
ATOM     23  C   UNL     1      50.622   3.883  18.332  0.00  0.00    +0.000 C 
BRANCH  23  24
ATOM     24  C   UNL     1      51.560   2.839  17.695  0.00  0.00    +0.000 C 
BRANCH  24  25
ATOM     25  O   UNL     1      52.623   2.499  18.591  0.00  0.00    +0.000 OA
ATOM     26  H   UNL     1      52.874   1.574  18.428  0.00  0.00    +0.000 HD
ENDBRANCH  24  25
BRANCH  24  27
ATOM     27  C   UNL     1      50.808   1.552  17.302  0.00  0.00    +0.000 C 
BRANCH  27  28
ATOM     28  O   UNL     1      50.115   1.708  16.063  0.00  0.00    +0.000 OA
ATOM     29  H   UNL     1      49.183   1.907  16.263  0.00  0.00    +0.000 HD
ENDBRANCH  27  28
ENDBRANCH  24  27
ENDBRANCH  23  24
ENDBRANCH  20  23
ENDBRANCH  16  17
ENDBRANCH   3  16
TORSDOF 8
ENDMDL
MODEL 9
REMARK VINA RESULT:    -6.699      3.308      4.106
REMARK INTER + INTRA:          -9.870
REMARK INTER:                  -9.154
REMARK INTRA:                  -0.716
REMARK UNBOUND:                -0.430
REMARK  Name = 
REMARK  8 active torsions:
REMARK  status: ('A' for Active; 'I' for Inactive)
REMARK    1  A    between atoms: C_2  and  C_16
REMARK    2  A    between atoms: N_3  and  C_4
REMARK    3  A    between atoms: C_4  and  C_5
REMARK    4  A    between atoms: C_8  and  C_9
REMARK    5  A    between atoms: C_9  and  C_10
REMARK    6  A    between atoms: C_10  and  O_11
REMARK    7  A    between atoms: C_10  and  C_12
REMARK    8  A    between atoms: C_12  and  O_13
REMARK                            x       y       z     vdW  Elec       q    Type
REMARK                         _______ _______ _______ _____ _____    ______ ____
ROOT
ATOM      1  O   UNL     1      45.293   8.964  12.945  0.00  0.00    +0.000 OA
ATOM      2  C   UNL     1      46.232   8.426  12.370  0.00  0.00    +0.000 C 
ATOM      3  N   UNL     1      46.217   7.128  11.941  0.00  0.00    +0.000 N 
ATOM      4  H   UNL     1      47.081   6.694  11.647  0.00  0.00    +0.000 HD
ENDROOT
BRANCH   2   5
ATOM      5  C   UNL     1      47.500   9.116  12.138  0.00  0.00    +0.000 A 
ATOM      6  C   UNL     1      47.576  10.299  11.421  0.00  0.00    +0.000 A 
ATOM      7  S   UNL     1      49.165  10.928  11.342  0.00  0.00    +0.000 S 
ATOM      8  C   UNL     1      49.793   9.616  12.230  0.00  0.00    +0.000 A 
ATOM      9  N   UNL     1      51.116   9.531  12.533  0.00  0.00    +0.000 NA
ATOM     10  C   UNL     1      51.441   8.480  13.211  0.00  0.00    +0.000 A 
ATOM     11  N   UNL     1      50.570   7.502  13.607  0.00  0.00    +0.000 N 
ATOM     12  C   UNL     1      49.240   7.500  13.260  0.00  0.00    +0.000 A 
ATOM     13  O   UNL     1      48.530   6.550  13.542  0.00  0.00    +0.000 OA
ATOM     14  C   UNL     1      48.814   8.699  12.559  0.00  0.00    +0.000 A 
ATOM     15  H   UNL     1      50.889   6.682  14.099  0.00  0.00    +0.000 HD
ENDBRANCH   2   5
BRANCH   3  16
ATOM     16  C   UNL     1      45.040   6.302  11.969  0.00  0.00    +0.000 C 
BRANCH  16  17
ATOM     17  C   UNL     1      45.112   5.239  10.906  0.00  0.00    +0.000 A 
ATOM     18  C   UNL     1      45.683   5.525   9.661  0.00  0.00    +0.000 A 
ATOM     19  C   UNL     1      45.791   4.535   8.680  0.00  0.00    +0.000 A 
ATOM     20  C   UNL     1      45.312   3.240   8.910  0.00  0.00    +0.000 A 
ATOM     21  C   UNL     1      44.700   2.967  10.142  0.00  0.00    +0.000 A 
ATOM     22  C   UNL     1      44.600   3.955  11.130  0.00  0.00    +0.000 A 
BRANCH  20  23
ATOM     23  C   UNL     1      45.425   2.167   7.842  0.00  0.00    +0.000 C 
BRANCH  23  24
ATOM     24  C   UNL     1      46.844   1.590   7.667  0.00  0.00    +0.000 C 
BRANCH  24  25
ATOM     25  O   UNL     1      46.831   0.164   7.798  0.00  0.00    +0.000 OA
ATOM     26  H   UNL     1      47.564  -0.196   7.272  0.00  0.00    +0.000 HD
ENDBRANCH  24  25
BRANCH  24  27
ATOM     27  C   UNL     1      47.452   1.960   6.300  0.00  0.00    +0.000 C 
BRANCH  27  28
ATOM     28  O   UNL     1      48.745   2.549   6.444  0.00  0.00    +0.000 OA
ATOM     29  H   UNL     1      48.647   3.514   6.357  0.00  0.00    +0.000 HD
ENDBRANCH  27  28
ENDBRANCH  24  27
ENDBRANCH  23  24
ENDBRANCH  20  23
ENDBRANCH  16  17
ENDBRANCH   3  16
TORSDOF 8
ENDMDL
