MODEL 1
REMARK VINA RESULT:    -7.957      0.000      0.000
REMARK INTER + INTRA:         -12.144
REMARK INTER:                 -10.981
REMARK INTRA:                  -1.163
REMARK UNBOUND:                -1.163
REMARK  Name = 
REMARK  7 active torsions:
REMARK  status: ('A' for Active; 'I' for Inactive)
REMARK    1  A    between atoms: N_1  and  C_2
REMARK    2  A    between atoms: C_2  and  C_3
REMARK    3  A    between atoms: C_6  and  O_7
REMARK    4  A    between atoms: O_7  and  C_8
REMARK    5  A    between atoms: C_8  and  C_9
REMARK    6  A    between atoms: C_11  and  C_12
REMARK    7  A    between atoms: C_17  and  C_18
REMARK                            x       y       z     vdW  Elec       q    Type
REMARK                         _______ _______ _______ _____ _____    ______ ____
ROOT
ATOM      1  C   UNL     1      44.439   4.883  11.818  0.00  0.00    +0.000 A 
ATOM      2  C   UNL     1      44.516   6.264  11.572  0.00  0.00    +0.000 A 
ATOM      3  C   UNL     1      45.402   7.083  12.285  0.00  0.00    +0.000 A 
ATOM      4  C   UNL     1      46.224   6.497  13.259  0.00  0.00    +0.000 A 
ATOM      5  C   UNL     1      46.157   5.119  13.532  0.00  0.00    +0.000 A 
ATOM      6  C   UNL     1      45.261   4.321  12.800  0.00  0.00    +0.000 A 
ENDROOT
BRANCH   3   7
ATOM      7  C   UNL     1      45.457   8.570  12.023  0.00  0.00    +0.000 C 
ATOM      8  F   UNL     1      46.706   9.025  11.728  0.00  0.00    +0.000 F 
ATOM      9  F   UNL     1      44.671   8.936  10.973  0.00  0.00    +0.000 F 
ATOM     10  F   UNL     1      45.032   9.305  13.086  0.00  0.00    +0.000 F 
ENDBRANCH   3   7
BRANCH   5  11
ATOM     11  C   UNL     1      47.005   4.494  14.614  0.00  0.00    +0.000 C 
ATOM     12  F   UNL     1      48.123   5.215  14.909  0.00  0.00    +0.000 F 
ATOM     13  F   UNL     1      46.329   4.362  15.789  0.00  0.00    +0.000 F 
ATOM     14  F   UNL     1      47.439   3.247  14.288  0.00  0.00    +0.000 F 
ENDBRANCH   5  11
BRANCH   1  15
ATOM     15  C   UNL     1      43.394   4.073  11.087  0.00  0.00    +0.000 C 
BRANCH  15  16
ATOM     16  O   UNL     1      43.463   4.244   9.671  0.00  0.00    +0.000 OA
BRANCH  16  20
ATOM     17  C   UNL     1      46.550   2.285   7.636  0.00  0.00    +0.000 A 
ATOM     18  C   UNL     1      46.389   3.678   7.580  0.00  0.00    +0.000 A 
ATOM     19  C   UNL     1      45.370   4.308   8.302  0.00  0.00    +0.000 A 
ATOM     20  C   UNL     1      44.494   3.555   9.081  0.00  0.00    +0.000 A 
ATOM     21  C   UNL     1      44.694   2.176   9.196  0.00  0.00    +0.000 A 
ATOM     22  C   UNL     1      45.703   1.546   8.469  0.00  0.00    +0.000 A 
BRANCH  17  23
ATOM     23  C   UNL     1      47.592   1.587   6.803  0.00  0.00    +0.000 C 
BRANCH  23  24
ATOM     24  N   UNL     1      48.574   2.525   6.276  0.00  0.00    +0.000 NA
ATOM     25  H   UNL     1      48.390   3.449   6.662  0.00  0.00    +0.000 HD
ATOM     26  H   UNL     1      48.445   2.601   5.269  0.00  0.00    +0.000 HD
ENDBRANCH  23  24
ENDBRANCH  17  23
ENDBRANCH  16  20
ENDBRANCH  15  16
ENDBRANCH   1  15
TORSDOF 7
ENDMDL
MODEL 2
REMARK VINA RESULT:    -7.923      0.133      3.586
REMARK INTER + INTRA:         -12.096
REMARK INTER:                 -10.930
REMARK INTRA:                  -1.166
REMARK UNBOUND:                -1.163
REMARK  Name = 
REMARK  7 active torsions:
REMARK  status: ('A' for Active; 'I' for Inactive)
REMARK    1  A    between atoms: N_1  and  C_2
REMARK    2  A    between atoms: C_2  and  C_3
REMARK    3  A    between atoms: C_6  and  O_7
REMARK    4  A    between atoms: O_7  and  C_8
REMARK    5  A    between atoms: C_8  and  C_9
REMARK    6  A    between atoms: C_11  and  C_12
REMARK    7  A    between atoms: C_17  and  C_18
REMARK                            x       y       z     vdW  Elec       q    Type
REMARK                         _______ _______ _______ _____ _____    ______ ____
ROOT
ATOM      1  C   UNL     1      44.283   4.922  11.869  0.00  0.00    +0.000 A 
ATOM      2  C   UNL     1      45.155   4.372  12.822  0.00  0.00    +0.000 A 
ATOM      3  C   UNL     1      46.065   5.172  13.527  0.00  0.00    +0.000 A 
ATOM      4  C   UNL     1      46.090   6.550  13.267  0.00  0.00    +0.000 A 
ATOM      5  C   UNL     1      45.235   7.124  12.308  0.00  0.00    +0.000 A 
ATOM      6  C   UNL     1      44.332   6.298  11.618  0.00  0.00    +0.000 A 
ENDROOT
BRANCH   3   7
ATOM      7  C   UNL     1      47.010   4.560  14.533  0.00  0.00    +0.000 C 
ATOM      8  F   UNL     1      47.487   3.340  14.160  0.00  0.00    +0.000 F 
ATOM      9  F   UNL     1      48.108   5.338  14.746  0.00  0.00    +0.000 F 
ATOM     10  F   UNL     1      46.434   4.379  15.752  0.00  0.00    +0.000 F 
ENDBRANCH   3   7
BRANCH   5  11
ATOM     11  C   UNL     1      45.295   8.599  11.990  0.00  0.00    +0.000 C 
ATOM     12  F   UNL     1      44.885   9.391  13.021  0.00  0.00    +0.000 F 
ATOM     13  F   UNL     1      46.556   9.011  11.685  0.00  0.00    +0.000 F 
ATOM     14  F   UNL     1      44.520   8.940  10.925  0.00  0.00    +0.000 F 
ENDBRANCH   5  11
BRANCH   1  15
ATOM     15  C   UNL     1      43.398   3.993  11.072  0.00  0.00    +0.000 C 
BRANCH  15  16
ATOM     16  O   UNL     1      43.503   4.213   9.665  0.00  0.00    +0.000 OA
BRANCH  16  20
ATOM     17  C   UNL     1      46.637   2.318   7.641  0.00  0.00    +0.000 A 
ATOM     18  C   UNL     1      46.477   3.713   7.627  0.00  0.00    +0.000 A 
ATOM     19  C   UNL     1      45.442   4.320   8.345  0.00  0.00    +0.000 A 
ATOM     20  C   UNL     1      44.547   3.542   9.078  0.00  0.00    +0.000 A 
ATOM     21  C   UNL     1      44.744   2.160   9.152  0.00  0.00    +0.000 A 
ATOM     22  C   UNL     1      45.770   1.553   8.429  0.00  0.00    +0.000 A 
BRANCH  17  23
ATOM     23  C   UNL     1      47.698   1.647   6.811  0.00  0.00    +0.000 C 
BRANCH  23  24
ATOM     24  N   UNL     1      48.656   2.610   6.284  0.00  0.00    +0.000 NA
ATOM     25  H   UNL     1      48.151   3.343   5.791  0.00  0.00    +0.000 HD
ATOM     26  H   UNL     1      49.238   2.144   5.590  0.00  0.00    +0.000 HD
ENDBRANCH  23  24
ENDBRANCH  17  23
ENDBRANCH  16  20
ENDBRANCH  15  16
ENDBRANCH   1  15
TORSDOF 7
ENDMDL
MODEL 3
REMARK VINA RESULT:    -7.811      1.218      3.823
REMARK INTER + INTRA:         -11.942
REMARK INTER:                 -10.918
REMARK INTRA:                  -1.024
REMARK UNBOUND:                -1.163
REMARK  Name = 
REMARK  7 active torsions:
REMARK  status: ('A' for Active; 'I' for Inactive)
REMARK    1  A    between atoms: N_1  and  C_2
REMARK    2  A    between atoms: C_2  and  C_3
REMARK    3  A    between atoms: C_6  and  O_7
REMARK    4  A    between atoms: O_7  and  C_8
REMARK    5  A    between atoms: C_8  and  C_9
REMARK    6  A    between atoms: C_11  and  C_12
REMARK    7  A    between atoms: C_17  and  C_18
REMARK                            x       y       z     vdW  Elec       q    Type
REMARK                         _______ _______ _______ _____ _____    ______ ____
ROOT
ATOM      1  C   UNL     1      45.433   5.003  12.291  0.00  0.00    +0.000 A 
ATOM      2  C   UNL     1      45.836   4.390  13.488  0.00  0.00    +0.000 A 
ATOM      3  C   UNL     1      46.911   4.888  14.237  0.00  0.00    +0.000 A 
ATOM      4  C   UNL     1      47.587   6.024  13.769  0.00  0.00    +0.000 A 
ATOM      5  C   UNL     1      47.211   6.649  12.567  0.00  0.00    +0.000 A 
ATOM      6  C   UNL     1      46.128   6.130  11.838  0.00  0.00    +0.000 A 
ENDROOT
BRANCH   3   7
ATOM      7  C   UNL     1      47.345   4.203  15.512  0.00  0.00    +0.000 C 
ATOM      8  F   UNL     1      46.368   4.148  16.460  0.00  0.00    +0.000 F 
ATOM      9  F   UNL     1      47.726   2.913  15.298  0.00  0.00    +0.000 F 
ATOM     10  F   UNL     1      48.405   4.817  16.103  0.00  0.00    +0.000 F 
ENDBRANCH   3   7
BRANCH   5  11
ATOM     11  C   UNL     1      47.969   7.843  12.036  0.00  0.00    +0.000 C 
ATOM     12  F   UNL     1      47.159   8.873  11.660  0.00  0.00    +0.000 F 
ATOM     13  F   UNL     1      48.826   8.363  12.957  0.00  0.00    +0.000 F 
ATOM     14  F   UNL     1      48.724   7.543  10.945  0.00  0.00    +0.000 F 
ENDBRANCH   5  11
BRANCH   1  15
ATOM     15  C   UNL     1      44.333   4.360  11.481  0.00  0.00    +0.000 C 
BRANCH  15  16
ATOM     16  O   UNL     1      44.313   4.817  10.128  0.00  0.00    +0.000 OA
BRANCH  16  20
ATOM     17  C   UNL     1      46.465   2.169   7.706  0.00  0.00    +0.000 A 
ATOM     18  C   UNL     1      45.582   1.718   8.700  0.00  0.00    +0.000 A 
ATOM     19  C   UNL     1      44.847   2.628   9.467  0.00  0.00    +0.000 A 
ATOM     20  C   UNL     1      44.993   3.998   9.259  0.00  0.00    +0.000 A 
ATOM     21  C   UNL     1      45.817   4.449   8.224  0.00  0.00    +0.000 A 
ATOM     22  C   UNL     1      46.557   3.543   7.465  0.00  0.00    +0.000 A 
BRANCH  17  23
ATOM     23  C   UNL     1      47.319   1.204   6.927  0.00  0.00    +0.000 C 
BRANCH  23  24
ATOM     24  N   UNL     1      48.368   1.892   6.187  0.00  0.00    +0.000 NA
ATOM     25  H   UNL     1      47.950   2.380   5.397  0.00  0.00    +0.000 HD
ATOM     26  H   UNL     1      49.001   1.197   5.796  0.00  0.00    +0.000 HD
ENDBRANCH  23  24
ENDBRANCH  17  23
ENDBRANCH  16  20
ENDBRANCH  15  16
ENDBRANCH   1  15
TORSDOF 7
ENDMDL
MODEL 4
REMARK VINA RESULT:    -7.709      1.201      2.001
REMARK INTER + INTRA:         -11.801
REMARK INTER:                 -10.805
REMARK INTRA:                  -0.996
REMARK UNBOUND:                -1.163
REMARK  Name = 
REMARK  7 active torsions:
REMARK  status: ('A' for Active; 'I' for Inactive)
REMARK    1  A    between atoms: N_1  and  C_2
REMARK    2  A    between atoms: C_2  and  C_3
REMARK    3  A    between atoms: C_6  and  O_7
REMARK    4  A    between atoms: O_7  and  C_8
REMARK    5  A    between atoms: C_8  and  C_9
REMARK    6  A    between atoms: C_11  and  C_12
REMARK    7  A    between atoms: C_17  and  C_18
REMARK                            x       y       z     vdW  Elec       q    Type
REMARK                         _______ _______ _______ _____ _____    ______ ____
ROOT
ATOM      1  C   UNL     1      45.530   4.737  12.424  0.00  0.00    +0.000 A 
ATOM      2  C   UNL     1      46.142   5.916  11.970  0.00  0.00    +0.000 A 
ATOM      3  C   UNL     1      47.184   6.519  12.687  0.00  0.00    +0.000 A 
ATOM      4  C   UNL     1      47.615   5.920  13.880  0.00  0.00    +0.000 A 
ATOM      5  C   UNL     1      47.010   4.746  14.361  0.00  0.00    +0.000 A 
ATOM      6  C   UNL     1      45.969   4.161  13.621  0.00  0.00    +0.000 A 
ENDROOT
BRANCH   3   7
ATOM      7  C   UNL     1      47.817   7.800  12.195  0.00  0.00    +0.000 C 
ATOM      8  F   UNL     1      48.599   8.414  13.126  0.00  0.00    +0.000 F 
ATOM      9  F   UNL     1      48.620   7.594  11.114  0.00  0.00    +0.000 F 
ATOM     10  F   UNL     1      46.896   8.726  11.811  0.00  0.00    +0.000 F 
ENDBRANCH   3   7
BRANCH   5  11
ATOM     11  C   UNL     1      47.438   4.125  15.671  0.00  0.00    +0.000 C 
ATOM     12  F   UNL     1      46.438   4.068  16.594  0.00  0.00    +0.000 F 
ATOM     13  F   UNL     1      47.874   2.844  15.517  0.00  0.00    +0.000 F 
ATOM     14  F   UNL     1      48.458   4.801  16.264  0.00  0.00    +0.000 F 
ENDBRANCH   5  11
BRANCH   1  15
ATOM     15  C   UNL     1      44.347   4.192  11.658  0.00  0.00    +0.000 C 
BRANCH  15  16
ATOM     16  O   UNL     1      44.276   4.702  10.326  0.00  0.00    +0.000 OA
BRANCH  16  20
ATOM     17  C   UNL     1      46.379   2.183   7.730  0.00  0.00    +0.000 A 
ATOM     18  C   UNL     1      45.517   1.682   8.717  0.00  0.00    +0.000 A 
ATOM     19  C   UNL     1      44.798   2.550   9.545  0.00  0.00    +0.000 A 
ATOM     20  C   UNL     1      44.938   3.930   9.404  0.00  0.00    +0.000 A 
ATOM     21  C   UNL     1      45.741   4.433   8.377  0.00  0.00    +0.000 A 
ATOM     22  C   UNL     1      46.466   3.569   7.558  0.00  0.00    +0.000 A 
BRANCH  17  23
ATOM     23  C   UNL     1      47.218   1.261   6.886  0.00  0.00    +0.000 C 
BRANCH  23  24
ATOM     24  N   UNL     1      48.382   1.944   6.338  0.00  0.00    +0.000 NA
ATOM     25  H   UNL     1      48.413   1.790   5.333  0.00  0.00    +0.000 HD
ATOM     26  H   UNL     1      49.222   1.516   6.722  0.00  0.00    +0.000 HD
ENDBRANCH  23  24
ENDBRANCH  17  23
ENDBRANCH  16  20
ENDBRANCH  15  16
ENDBRANCH   1  15
TORSDOF 7
ENDMDL
MODEL 5
REMARK VINA RESULT:    -7.482      1.444      2.087
REMARK INTER + INTRA:         -11.488
REMARK INTER:                 -10.404
REMARK INTRA:                  -1.084
REMARK UNBOUND:                -1.163
REMARK  Name = 
REMARK  7 active torsions:
REMARK  status: ('A' for Active; 'I' for Inactive)
REMARK    1  A    between atoms: N_1  and  C_2
REMARK    2  A    between atoms: C_2  and  C_3
REMARK    3  A    between atoms: C_6  and  O_7
REMARK    4  A    between atoms: O_7  and  C_8
REMARK    5  A    between atoms: C_8  and  C_9
REMARK    6  A    between atoms: C_11  and  C_12
REMARK    7  A    between atoms: C_17  and  C_18
REMARK                            x       y       z     vdW  Elec       q    Type
REMARK                         _______ _______ _______ _____ _____    ______ ____
ROOT
ATOM      1  C   UNL     1      44.911   5.680  11.624  0.00  0.00    +0.000 A 
ATOM      2  C   UNL     1      44.247   6.867  11.277  0.00  0.00    +0.000 A 
ATOM      3  C   UNL     1      44.807   8.123  11.549  0.00  0.00    +0.000 A 
ATOM      4  C   UNL     1      46.059   8.179  12.178  0.00  0.00    +0.000 A 
ATOM      5  C   UNL     1      46.739   7.004  12.547  0.00  0.00    +0.000 A 
ATOM      6  C   UNL     1      46.155   5.759  12.260  0.00  0.00    +0.000 A 
ENDROOT
BRANCH   3   7
ATOM      7  C   UNL     1      44.068   9.390  11.188  0.00  0.00    +0.000 C 
ATOM      8  F   UNL     1      44.571  10.019  10.089  0.00  0.00    +0.000 F 
ATOM      9  F   UNL     1      42.754   9.159  10.914  0.00  0.00    +0.000 F 
ATOM     10  F   UNL     1      44.089  10.312  12.188  0.00  0.00    +0.000 F 
ENDBRANCH   3   7
BRANCH   5  11
ATOM     11  C   UNL     1      48.064   7.062  13.270  0.00  0.00    +0.000 C 
ATOM     12  F   UNL     1      48.400   8.316  13.684  0.00  0.00    +0.000 F 
ATOM     13  F   UNL     1      48.075   6.287  14.390  0.00  0.00    +0.000 F 
ATOM     14  F   UNL     1      49.101   6.630  12.503  0.00  0.00    +0.000 F 
ENDBRANCH   5  11
BRANCH   1  15
ATOM     15  C   UNL     1      44.210   4.362  11.394  0.00  0.00    +0.000 C 
BRANCH  15  16
ATOM     16  O   UNL     1      43.722   4.228  10.059  0.00  0.00    +0.000 OA
BRANCH  16  20
ATOM     17  C   UNL     1      46.550   2.278   7.670  0.00  0.00    +0.000 A 
ATOM     18  C   UNL     1      45.741   1.583   8.583  0.00  0.00    +0.000 A 
ATOM     19  C   UNL     1      44.778   2.258   9.340  0.00  0.00    +0.000 A 
ATOM     20  C   UNL     1      44.617   3.635   9.202  0.00  0.00    +0.000 A 
ATOM     21  C   UNL     1      45.370   4.319   8.244  0.00  0.00    +0.000 A 
ATOM     22  C   UNL     1      46.337   3.649   7.495  0.00  0.00    +0.000 A 
BRANCH  17  23
ATOM     23  C   UNL     1      47.642   1.577   6.907  0.00  0.00    +0.000 C 
BRANCH  23  24
ATOM     24  N   UNL     1      48.586   2.525   6.328  0.00  0.00    +0.000 NA
ATOM     25  H   UNL     1      48.581   3.377   6.884  0.00  0.00    +0.000 HD
ATOM     26  H   UNL     1      48.258   2.785   5.400  0.00  0.00    +0.000 HD
ENDBRANCH  23  24
ENDBRANCH  17  23
ENDBRANCH  16  20
ENDBRANCH  15  16
ENDBRANCH   1  15
TORSDOF 7
ENDMDL
MODEL 6
REMARK VINA RESULT:    -7.449      1.690      3.918
REMARK INTER + INTRA:         -11.442
REMARK INTER:                 -10.358
REMARK INTRA:                  -1.084
REMARK UNBOUND:                -1.163
REMARK  Name = 
REMARK  7 active torsions:
REMARK  status: ('A' for Active; 'I' for Inactive)
REMARK    1  A    between atoms: N_1  and  C_2
REMARK    2  A    between atoms: C_2  and  C_3
REMARK    3  A    between atoms: C_6  and  O_7
REMARK    4  A    between atoms: O_7  and  C_8
REMARK    5  A    between atoms: C_8  and  C_9
REMARK    6  A    between atoms: C_11  and  C_12
REMARK    7  A    between atoms: C_17  and  C_18
REMARK                            x       y       z     vdW  Elec       q    Type
REMARK                         _______ _______ _______ _____ _____    ______ ____
ROOT
ATOM      1  C   UNL     1      44.897   5.829  11.690  0.00  0.00    +0.000 A 
ATOM      2  C   UNL     1      46.210   5.959  12.171  0.00  0.00    +0.000 A 
ATOM      3  C   UNL     1      46.809   7.217  12.324  0.00  0.00    +0.000 A 
ATOM      4  C   UNL     1      46.068   8.360  11.988  0.00  0.00    +0.000 A 
ATOM      5  C   UNL     1      44.757   8.255  11.492  0.00  0.00    +0.000 A 
ATOM      6  C   UNL     1      44.180   6.982  11.351  0.00  0.00    +0.000 A 
ENDROOT
BRANCH   3   7
ATOM      7  C   UNL     1      48.229   7.338  12.823  0.00  0.00    +0.000 C 
ATOM      8  F   UNL     1      48.924   8.360  12.248  0.00  0.00    +0.000 F 
ATOM      9  F   UNL     1      48.286   7.561  14.165  0.00  0.00    +0.000 F 
ATOM     10  F   UNL     1      48.962   6.214  12.596  0.00  0.00    +0.000 F 
ENDBRANCH   3   7
BRANCH   5  11
ATOM     11  C   UNL     1      43.975   9.481  11.083  0.00  0.00    +0.000 C 
ATOM     12  F   UNL     1      43.808  10.378  12.095  0.00  0.00    +0.000 F 
ATOM     13  F   UNL     1      44.581  10.168  10.076  0.00  0.00    +0.000 F 
ATOM     14  F   UNL     1      42.725   9.183  10.637  0.00  0.00    +0.000 F 
ENDBRANCH   5  11
BRANCH   1  15
ATOM     15  C   UNL     1      44.345   4.443  11.452  0.00  0.00    +0.000 C 
BRANCH  15  16
ATOM     16  O   UNL     1      43.785   4.294  10.147  0.00  0.00    +0.000 OA
BRANCH  16  20
ATOM     17  C   UNL     1      46.486   2.341   7.618  0.00  0.00    +0.000 A 
ATOM     18  C   UNL     1      45.705   1.644   8.554  0.00  0.00    +0.000 A 
ATOM     19  C   UNL     1      44.783   2.320   9.358  0.00  0.00    +0.000 A 
ATOM     20  C   UNL     1      44.636   3.702   9.246  0.00  0.00    +0.000 A 
ATOM     21  C   UNL     1      45.359   4.389   8.268  0.00  0.00    +0.000 A 
ATOM     22  C   UNL     1      46.286   3.717   7.472  0.00  0.00    +0.000 A 
BRANCH  17  23
ATOM     23  C   UNL     1      47.537   1.637   6.801  0.00  0.00    +0.000 C 
BRANCH  23  24
ATOM     24  N   UNL     1      48.583   2.553   6.368  0.00  0.00    +0.000 NA
ATOM     25  H   UNL     1      48.436   3.457   6.812  0.00  0.00    +0.000 HD
ATOM     26  H   UNL     1      48.489   2.705   5.366  0.00  0.00    +0.000 HD
ENDBRANCH  23  24
ENDBRANCH  17  23
ENDBRANCH  16  20
ENDBRANCH  15  16
ENDBRANCH   1  15
TORSDOF 7
ENDMDL
MODEL 7
REMARK VINA RESULT:    -6.388      4.299      6.849
REMARK INTER + INTRA:          -9.978
REMARK INTER:                  -9.164
REMARK INTRA:                  -0.814
REMARK UNBOUND:                -1.163
REMARK  Name = 
REMARK  7 active torsions:
REMARK  status: ('A' for Active; 'I' for Inactive)
REMARK    1  A    between atoms: N_1  and  C_2
REMARK    2  A    between atoms: C_2  and  C_3
REMARK    3  A    between atoms: C_6  and  O_7
REMARK    4  A    between atoms: O_7  and  C_8
REMARK    5  A    between atoms: C_8  and  C_9
REMARK    6  A    between atoms: C_11  and  C_12
REMARK    7  A    between atoms: C_17  and  C_18
REMARK                            x       y       z     vdW  Elec       q    Type
REMARK                         _______ _______ _______ _____ _____    ______ ____
ROOT
ATOM      1  C   UNL     1      46.218   4.612  13.558  0.00  0.00    +0.000 A 
ATOM      2  C   UNL     1      46.543   5.978  13.579  0.00  0.00    +0.000 A 
ATOM      3  C   UNL     1      45.799   6.916  12.850  0.00  0.00    +0.000 A 
ATOM      4  C   UNL     1      44.709   6.466  12.090  0.00  0.00    +0.000 A 
ATOM      5  C   UNL     1      44.372   5.102  12.043  0.00  0.00    +0.000 A 
ATOM      6  C   UNL     1      45.133   4.184  12.786  0.00  0.00    +0.000 A 
ENDROOT
BRANCH   3   7
ATOM      7  C   UNL     1      46.175   8.379  12.868  0.00  0.00    +0.000 C 
ATOM      8  F   UNL     1      46.863   8.777  11.762  0.00  0.00    +0.000 F 
ATOM      9  F   UNL     1      45.083   9.190  12.937  0.00  0.00    +0.000 F 
ATOM     10  F   UNL     1      46.956   8.706  13.932  0.00  0.00    +0.000 F 
ENDBRANCH   3   7
BRANCH   5  11
ATOM     11  C   UNL     1      43.230   4.608  11.186  0.00  0.00    +0.000 C 
ATOM     12  F   UNL     1      42.961   3.282  11.356  0.00  0.00    +0.000 F 
ATOM     13  F   UNL     1      42.064   5.259  11.454  0.00  0.00    +0.000 F 
ATOM     14  F   UNL     1      43.458   4.776   9.856  0.00  0.00    +0.000 F 
ENDBRANCH   5  11
BRANCH   1  15
ATOM     15  C   UNL     1      47.119   3.640  14.285  0.00  0.00    +0.000 C 
BRANCH  15  16
ATOM     16  O   UNL     1      46.938   3.683  15.701  0.00  0.00    +0.000 OA
BRANCH  16  20
ATOM     17  C   UNL     1      50.605   3.552  17.711  0.00  0.00    +0.000 A 
ATOM     18  C   UNL     1      49.903   4.753  17.521  0.00  0.00    +0.000 A 
ATOM     19  C   UNL     1      48.660   4.759  16.879  0.00  0.00    +0.000 A 
ATOM     20  C   UNL     1      48.108   3.568  16.410  0.00  0.00    +0.000 A 
ATOM     21  C   UNL     1      48.770   2.363  16.659  0.00  0.00    +0.000 A 
ATOM     22  C   UNL     1      50.014   2.357  17.290  0.00  0.00    +0.000 A 
BRANCH  17  23
ATOM     23  C   UNL     1      51.977   3.542  18.330  0.00  0.00    +0.000 C 
BRANCH  23  24
ATOM     24  N   UNL     1      52.470   2.184  18.520  0.00  0.00    +0.000 NA
ATOM     25  H   UNL     1      51.784   1.655  19.054  0.00  0.00    +0.000 HD
ATOM     26  H   UNL     1      53.314   2.220  19.089  0.00  0.00    +0.000 HD
ENDBRANCH  23  24
ENDBRANCH  17  23
ENDBRANCH  16  20
ENDBRANCH  15  16
ENDBRANCH   1  15
TORSDOF 7
ENDMDL
MODEL 8
REMARK VINA RESULT:    -6.327      4.311      7.075
REMARK INTER + INTRA:          -9.894
REMARK INTER:                  -9.073
REMARK INTRA:                  -0.822
REMARK UNBOUND:                -1.163
REMARK  Name = 
REMARK  7 active torsions:
REMARK  status: ('A' for Active; 'I' for Inactive)
REMARK    1  A    between atoms: N_1  and  C_2
REMARK    2  A    between atoms: C_2  and  C_3
REMARK    3  A    between atoms: C_6  and  O_7
REMARK    4  A    between atoms: O_7  and  C_8
REMARK    5  A    between atoms: C_8  and  C_9
REMARK    6  A    between atoms: C_11  and  C_12
REMARK    7  A    between atoms: C_17  and  C_18
REMARK                            x       y       z     vdW  Elec       q    Type
REMARK                         _______ _______ _______ _____ _____    ______ ____
ROOT
ATOM      1  C   UNL     1      46.400   4.514  13.418  0.00  0.00    +0.000 A 
ATOM      2  C   UNL     1      45.241   4.135  12.723  0.00  0.00    +0.000 A 
ATOM      3  C   UNL     1      44.519   5.055  11.950  0.00  0.00    +0.000 A 
ATOM      4  C   UNL     1      44.978   6.379  11.878  0.00  0.00    +0.000 A 
ATOM      5  C   UNL     1      46.129   6.786  12.576  0.00  0.00    +0.000 A 
ATOM      6  C   UNL     1      46.835   5.842  13.340  0.00  0.00    +0.000 A 
ENDROOT
BRANCH   3   7
ATOM      7  C   UNL     1      43.263   4.634  11.226  0.00  0.00    +0.000 C 
ATOM      8  F   UNL     1      42.947   3.320  11.400  0.00  0.00    +0.000 F 
ATOM      9  F   UNL     1      42.171   5.335  11.640  0.00  0.00    +0.000 F 
ATOM     10  F   UNL     1      43.345   4.823   9.881  0.00  0.00    +0.000 F 
ENDBRANCH   3   7
BRANCH   5  11
ATOM     11  C   UNL     1      46.598   8.222  12.540  0.00  0.00    +0.000 C 
ATOM     12  F   UNL     1      47.822   8.377  11.961  0.00  0.00    +0.000 F 
ATOM     13  F   UNL     1      45.751   9.024  11.836  0.00  0.00    +0.000 F 
ATOM     14  F   UNL     1      46.697   8.774  13.779  0.00  0.00    +0.000 F 
ENDBRANCH   5  11
BRANCH   1  15
ATOM     15  C   UNL     1      47.075   3.501  14.312  0.00  0.00    +0.000 C 
BRANCH  15  16
ATOM     16  O   UNL     1      46.965   3.835  15.697  0.00  0.00    +0.000 OA
BRANCH  16  20
ATOM     17  C   UNL     1      50.614   3.480  17.713  0.00  0.00    +0.000 A 
ATOM     18  C   UNL     1      49.955   4.712  17.578  0.00  0.00    +0.000 A 
ATOM     19  C   UNL     1      48.717   4.793  16.933  0.00  0.00    +0.000 A 
ATOM     20  C   UNL     1      48.127   3.646  16.404  0.00  0.00    +0.000 A 
ATOM     21  C   UNL     1      48.745   2.408  16.597  0.00  0.00    +0.000 A 
ATOM     22  C   UNL     1      49.984   2.328  17.232  0.00  0.00    +0.000 A 
BRANCH  17  23
ATOM     23  C   UNL     1      51.982   3.392  18.336  0.00  0.00    +0.000 C 
BRANCH  23  24
ATOM     24  N   UNL     1      52.440   2.013  18.432  0.00  0.00    +0.000 NA
ATOM     25  H   UNL     1      53.277   1.902  17.863  0.00  0.00    +0.000 HD
ATOM     26  H   UNL     1      51.732   1.405  18.025  0.00  0.00    +0.000 HD
ENDBRANCH  23  24
ENDBRANCH  17  23
ENDBRANCH  16  20
ENDBRANCH  15  16
ENDBRANCH   1  15
TORSDOF 7
ENDMDL
MODEL 9
REMARK VINA RESULT:    -6.093      4.508      7.429
REMARK INTER + INTRA:          -9.571
REMARK INTER:                  -8.732
REMARK INTRA:                  -0.839
REMARK UNBOUND:                -1.163
REMARK  Name = 
REMARK  7 active torsions:
REMARK  status: ('A' for Active; 'I' for Inactive)
REMARK    1  A    between atoms: N_1  and  C_2
REMARK    2  A    between atoms: C_2  and  C_3
REMARK    3  A    between atoms: C_6  and  O_7
REMARK    4  A    between atoms: O_7  and  C_8
REMARK    5  A    between atoms: C_8  and  C_9
REMARK    6  A    between atoms: C_11  and  C_12
REMARK    7  A    between atoms: C_17  and  C_18
REMARK                            x       y       z     vdW  Elec       q    Type
REMARK                         _______ _______ _______ _____ _____    ______ ____
ROOT
ATOM      1  C   UNL     1      46.397   4.377  13.454  0.00  0.00    +0.000 A 
ATOM      2  C   UNL     1      46.456   5.776  13.350  0.00  0.00    +0.000 A 
ATOM      3  C   UNL     1      45.782   6.461  12.330  0.00  0.00    +0.000 A 
ATOM      4  C   UNL     1      45.036   5.720  11.401  0.00  0.00    +0.000 A 
ATOM      5  C   UNL     1      44.973   4.318  11.475  0.00  0.00    +0.000 A 
ATOM      6  C   UNL     1      45.655   3.657  12.511  0.00  0.00    +0.000 A 
ENDROOT
BRANCH   3   7
ATOM      7  C   UNL     1      45.873   7.965  12.221  0.00  0.00    +0.000 C 
ATOM      8  F   UNL     1      44.981   8.503  11.344  0.00  0.00    +0.000 F 
ATOM      9  F   UNL     1      45.639   8.582  13.413  0.00  0.00    +0.000 F 
ATOM     10  F   UNL     1      47.101   8.388  11.813  0.00  0.00    +0.000 F 
ENDBRANCH   3   7
BRANCH   5  11
ATOM     11  C   UNL     1      44.211   3.514  10.448  0.00  0.00    +0.000 C 
ATOM     12  F   UNL     1      43.597   4.284   9.506  0.00  0.00    +0.000 F 
ATOM     13  F   UNL     1      45.018   2.660   9.759  0.00  0.00    +0.000 F 
ATOM     14  F   UNL     1      43.233   2.746  10.999  0.00  0.00    +0.000 F 
ENDBRANCH   5  11
BRANCH   1  15
ATOM     15  C   UNL     1      47.225   3.692  14.515  0.00  0.00    +0.000 C 
BRANCH  15  16
ATOM     16  O   UNL     1      46.690   3.874  15.827  0.00  0.00    +0.000 OA
BRANCH  16  20
ATOM     17  C   UNL     1      49.339   5.053  18.843  0.00  0.00    +0.000 A 
ATOM     18  C   UNL     1      48.629   3.844  18.908  0.00  0.00    +0.000 A 
ATOM     19  C   UNL     1      47.780   3.459  17.865  0.00  0.00    +0.000 A 
ATOM     20  C   UNL     1      47.621   4.281  16.750  0.00  0.00    +0.000 A 
ATOM     21  C   UNL     1      48.380   5.451  16.651  0.00  0.00    +0.000 A 
ATOM     22  C   UNL     1      49.219   5.840  17.694  0.00  0.00    +0.000 A 
BRANCH  17  23
ATOM     23  C   UNL     1      50.195   5.515  19.993  0.00  0.00    +0.000 C 
BRANCH  23  24
ATOM     24  N   UNL     1      50.270   4.510  21.045  0.00  0.00    +0.000 NA
ATOM     25  H   UNL     1      49.481   3.874  20.952  0.00  0.00    +0.000 HD
ATOM     26  H   UNL     1      50.164   4.973  21.945  0.00  0.00    +0.000 HD
ENDBRANCH  23  24
ENDBRANCH  17  23
ENDBRANCH  16  20
ENDBRANCH  15  16
ENDBRANCH   1  15
TORSDOF 7
ENDMDL
