MODEL 1
REMARK VINA RESULT:    -7.155      0.000      0.000
REMARK INTER + INTRA:         -11.344
REMARK INTER:                 -10.292
REMARK INTRA:                  -1.052
REMARK UNBOUND:                -1.052
REMARK  Name = 
REMARK  10 active torsions:
REMARK  status: ('A' for Active; 'I' for Inactive)
REMARK    1  A    between atoms: C_1  and  O_2
REMARK    2  A    between atoms: O_2  and  C_3
REMARK    3  A    between atoms: C_5  and  N_6
REMARK    4  A    between atoms: N_6  and  C_7
REMARK    5  A    between atoms: C_7  and  C_8
REMARK    6  A    between atoms: C_8  and  C_9
REMARK    7  A    between atoms: C_8  and  C_10
REMARK    8  A    between atoms: C_14  and  C_15
REMARK    9  A    between atoms: C_15  and  N_16
REMARK   10  A    between atoms: C_20  and  C_21
REMARK                            x       y       z     vdW  Elec       q    Type
REMARK                         _______ _______ _______ _____ _____    ______ ____
ROOT
ATOM      1  N   UNL     1      43.593   3.491   9.896  0.00  0.00    +0.000 N 
ATOM      2  H   UNL     1      43.131   4.359   9.633  0.00  0.00    +0.000 HD
ENDROOT
BRANCH   1   5
ATOM      3  C   UNL     1      46.335   1.787   8.133  0.00  0.00    +0.000 A 
ATOM      4  C   UNL     1      45.409   2.087   9.135  0.00  0.00    +0.000 A 
ATOM      5  C   UNL     1      44.667   3.254   9.077  0.00  0.00    +0.000 A 
ATOM      6  N   UNL     1      44.887   4.173   8.123  0.00  0.00    +0.000 NA
ATOM      7  C   UNL     1      45.841   3.907   7.195  0.00  0.00    +0.000 A 
ATOM      8  C   UNL     1      46.590   2.734   7.141  0.00  0.00    +0.000 A 
BRANCH   8   9
ATOM      9  C   UNL     1      47.559   2.596   6.026  0.00  0.00    +0.000 C 
ATOM     10  N   UNL     1      48.855   2.296   6.333  0.00  0.00    +0.000 N 
ATOM     11  O   UNL     1      47.221   2.749   4.862  0.00  0.00    +0.000 OA
ATOM     12  H   UNL     1      49.159   2.160   7.289  0.00  0.00    +0.000 HD
ATOM     13  H   UNL     1      49.520   2.196   5.576  0.00  0.00    +0.000 HD
ENDBRANCH   8   9
BRANCH   3  15
ATOM     14  C   UNL     1      46.245  -0.463   7.443  0.00  0.00    +0.000 C 
ATOM     15  O   UNL     1      46.980   0.572   8.108  0.00  0.00    +0.000 OA
ENDBRANCH   3  15
ENDBRANCH   1   5
BRANCH   1  16
ATOM     16  C   UNL     1      43.525   3.092  11.291  0.00  0.00    +0.000 C 
BRANCH  16  17
ATOM     17  C   UNL     1      43.436   4.314  12.228  0.00  0.00    +0.000 C 
ATOM     18  C   UNL     1      42.459   5.363  11.671  0.00  0.00    +0.000 C 
BRANCH  17  19
ATOM     19  C   UNL     1      44.805   4.874  12.577  0.00  0.00    +0.000 A 
ATOM     20  C   UNL     1      45.420   5.794  11.718  0.00  0.00    +0.000 A 
ATOM     21  C   UNL     1      46.701   6.275  11.995  0.00  0.00    +0.000 A 
ATOM     22  C   UNL     1      47.379   5.842  13.135  0.00  0.00    +0.000 A 
ATOM     23  C   UNL     1      46.771   4.951  14.028  0.00  0.00    +0.000 A 
ATOM     24  C   UNL     1      45.479   4.492  13.747  0.00  0.00    +0.000 A 
BRANCH  23  25
ATOM     25  C   UNL     1      47.500   4.450  15.245  0.00  0.00    +0.000 C 
BRANCH  25  26
ATOM     26  N   UNL     1      47.781   3.024  15.134  0.00  0.00    +0.000 NA
ATOM     27  H   UNL     1      47.097   2.515  15.691  0.00  0.00    +0.000 HD
ATOM     28  H   UNL     1      48.691   2.832  15.546  0.00  0.00    +0.000 HD
ENDBRANCH  25  26
ENDBRANCH  23  25
ENDBRANCH  17  19
ENDBRANCH  16  17
ENDBRANCH   1  16
TORSDOF 8
ENDMDL
MODEL 2
REMARK VINA RESULT:    -7.074      3.204      6.238
REMARK INTER + INTRA:         -11.227
REMARK INTER:                 -10.072
REMARK INTRA:                  -1.155
REMARK UNBOUND:                -1.052
REMARK  Name = 
REMARK  10 active torsions:
REMARK  status: ('A' for Active; 'I' for Inactive)
REMARK    1  A    between atoms: C_1  and  O_2
REMARK    2  A    between atoms: O_2  and  C_3
REMARK    3  A    between atoms: C_5  and  N_6
REMARK    4  A    between atoms: N_6  and  C_7
REMARK    5  A    between atoms: C_7  and  C_8
REMARK    6  A    between atoms: C_8  and  C_9
REMARK    7  A    between atoms: C_8  and  C_10
REMARK    8  A    between atoms: C_14  and  C_15
REMARK    9  A    between atoms: C_15  and  N_16
REMARK   10  A    between atoms: C_20  and  C_21
REMARK                            x       y       z     vdW  Elec       q    Type
REMARK                         _______ _______ _______ _____ _____    ______ ____
ROOT
ATOM      1  N   UNL     1      43.552   5.253  12.461  0.00  0.00    +0.000 N 
ATOM      2  H   UNL     1      43.307   4.653  13.246  0.00  0.00    +0.000 HD
ENDROOT
BRANCH   1   5
ATOM      3  C   UNL     1      46.997   5.863  13.596  0.00  0.00    +0.000 A 
ATOM      4  C   UNL     1      45.693   5.362  13.580  0.00  0.00    +0.000 A 
ATOM      5  C   UNL     1      44.764   5.855  12.680  0.00  0.00    +0.000 A 
ATOM      6  N   UNL     1      45.055   6.889  11.875  0.00  0.00    +0.000 NA
ATOM      7  C   UNL     1      46.302   7.420  11.950  0.00  0.00    +0.000 A 
ATOM      8  C   UNL     1      47.316   6.948  12.781  0.00  0.00    +0.000 A 
BRANCH   8   9
ATOM      9  C   UNL     1      48.634   7.623  12.696  0.00  0.00    +0.000 C 
ATOM     10  N   UNL     1      49.749   6.845  12.580  0.00  0.00    +0.000 N 
ATOM     11  O   UNL     1      48.734   8.841  12.734  0.00  0.00    +0.000 OA
ATOM     12  H   UNL     1      49.693   5.834  12.543  0.00  0.00    +0.000 HD
ATOM     13  H   UNL     1      50.652   7.299  12.517  0.00  0.00    +0.000 HD
ENDBRANCH   8   9
BRANCH   3  15
ATOM     14  C   UNL     1      47.443   4.415  15.398  0.00  0.00    +0.000 C 
ATOM     15  O   UNL     1      47.963   5.292  14.392  0.00  0.00    +0.000 OA
ENDBRANCH   3  15
ENDBRANCH   1   5
BRANCH   1  16
ATOM     16  C   UNL     1      43.047   4.881  11.151  0.00  0.00    +0.000 C 
BRANCH  16  17
ATOM     17  C   UNL     1      43.449   3.441  10.775  0.00  0.00    +0.000 C 
ATOM     18  C   UNL     1      43.795   2.622  12.031  0.00  0.00    +0.000 C 
BRANCH  17  19
ATOM     19  C   UNL     1      44.524   3.402   9.702  0.00  0.00    +0.000 A 
ATOM     20  C   UNL     1      44.967   4.595   9.117  0.00  0.00    +0.000 A 
ATOM     21  C   UNL     1      45.912   4.572   8.090  0.00  0.00    +0.000 A 
ATOM     22  C   UNL     1      46.426   3.356   7.640  0.00  0.00    +0.000 A 
ATOM     23  C   UNL     1      46.027   2.153   8.233  0.00  0.00    +0.000 A 
ATOM     24  C   UNL     1      45.092   2.192   9.275  0.00  0.00    +0.000 A 
BRANCH  23  25
ATOM     25  C   UNL     1      46.547   0.830   7.738  0.00  0.00    +0.000 C 
BRANCH  25  26
ATOM     26  N   UNL     1      47.848   0.989   7.099  0.00  0.00    +0.000 NA
ATOM     27  H   UNL     1      48.310   1.803   7.502  0.00  0.00    +0.000 HD
ATOM     28  H   UNL     1      47.709   1.194   6.112  0.00  0.00    +0.000 HD
ENDBRANCH  25  26
ENDBRANCH  23  25
ENDBRANCH  17  19
ENDBRANCH  16  17
ENDBRANCH   1  16
TORSDOF 8
ENDMDL
MODEL 3
REMARK VINA RESULT:    -6.838      3.392      7.325
REMARK INTER + INTRA:         -10.888
REMARK INTER:                 -10.166
REMARK INTRA:                  -0.721
REMARK UNBOUND:                -1.052
REMARK  Name = 
REMARK  10 active torsions:
REMARK  status: ('A' for Active; 'I' for Inactive)
REMARK    1  A    between atoms: C_1  and  O_2
REMARK    2  A    between atoms: O_2  and  C_3
REMARK    3  A    between atoms: C_5  and  N_6
REMARK    4  A    between atoms: N_6  and  C_7
REMARK    5  A    between atoms: C_7  and  C_8
REMARK    6  A    between atoms: C_8  and  C_9
REMARK    7  A    between atoms: C_8  and  C_10
REMARK    8  A    between atoms: C_14  and  C_15
REMARK    9  A    between atoms: C_15  and  N_16
REMARK   10  A    between atoms: C_20  and  C_21
REMARK                            x       y       z     vdW  Elec       q    Type
REMARK                         _______ _______ _______ _____ _____    ______ ____
ROOT
ATOM      1  N   UNL     1      44.581   5.842  10.734  0.00  0.00    +0.000 N 
ATOM      2  H   UNL     1      43.695   5.502  11.101  0.00  0.00    +0.000 HD
ENDROOT
BRANCH   1   5
ATOM      3  C   UNL     1      46.998   6.175  13.487  0.00  0.00    +0.000 A 
ATOM      4  C   UNL     1      46.056   5.594  12.634  0.00  0.00    +0.000 A 
ATOM      5  C   UNL     1      45.342   6.376  11.743  0.00  0.00    +0.000 A 
ATOM      6  N   UNL     1      45.455   7.713  11.742  0.00  0.00    +0.000 NA
ATOM      7  C   UNL     1      46.318   8.276  12.626  0.00  0.00    +0.000 A 
ATOM      8  C   UNL     1      47.120   7.564  13.515  0.00  0.00    +0.000 A 
BRANCH   8   9
ATOM      9  C   UNL     1      48.041   8.345  14.377  0.00  0.00    +0.000 C 
ATOM     10  N   UNL     1      47.513   9.006  15.449  0.00  0.00    +0.000 N 
ATOM     11  O   UNL     1      49.238   8.410  14.142  0.00  0.00    +0.000 OA
ATOM     12  H   UNL     1      46.525   8.966  15.666  0.00  0.00    +0.000 HD
ATOM     13  H   UNL     1      48.136   9.538  16.043  0.00  0.00    +0.000 HD
ENDBRANCH   8   9
BRANCH   3  15
ATOM     14  C   UNL     1      47.090   4.503  15.142  0.00  0.00    +0.000 C 
ATOM     15  O   UNL     1      47.807   5.396  14.282  0.00  0.00    +0.000 OA
ENDBRANCH   3  15
ENDBRANCH   1   5
BRANCH   1  16
ATOM     16  C   UNL     1      45.125   5.172   9.566  0.00  0.00    +0.000 C 
BRANCH  16  17
ATOM     17  C   UNL     1      44.402   3.839   9.288  0.00  0.00    +0.000 C 
ATOM     18  C   UNL     1      43.885   3.212  10.594  0.00  0.00    +0.000 C 
BRANCH  17  19
ATOM     19  C   UNL     1      45.239   2.893   8.443  0.00  0.00    +0.000 A 
ATOM     20  C   UNL     1      45.413   1.564   8.852  0.00  0.00    +0.000 A 
ATOM     21  C   UNL     1      46.225   0.698   8.118  0.00  0.00    +0.000 A 
ATOM     22  C   UNL     1      46.869   1.151   6.966  0.00  0.00    +0.000 A 
ATOM     23  C   UNL     1      46.682   2.464   6.518  0.00  0.00    +0.000 A 
ATOM     24  C   UNL     1      45.850   3.316   7.253  0.00  0.00    +0.000 A 
BRANCH  23  25
ATOM     25  C   UNL     1      47.394   2.978   5.295  0.00  0.00    +0.000 C 
BRANCH  25  26
ATOM     26  N   UNL     1      48.448   2.059   4.882  0.00  0.00    +0.000 NA
ATOM     27  H   UNL     1      48.396   1.224   5.464  0.00  0.00    +0.000 HD
ATOM     28  H   UNL     1      49.352   2.487   5.068  0.00  0.00    +0.000 HD
ENDBRANCH  25  26
ENDBRANCH  23  25
ENDBRANCH  17  19
ENDBRANCH  16  17
ENDBRANCH   1  16
TORSDOF 8
ENDMDL
MODEL 4
REMARK VINA RESULT:    -6.736      2.111      3.126
REMARK INTER + INTRA:         -10.741
REMARK INTER:                 -10.577
REMARK INTRA:                  -0.164
REMARK UNBOUND:                -1.052
REMARK  Name = 
REMARK  10 active torsions:
REMARK  status: ('A' for Active; 'I' for Inactive)
REMARK    1  A    between atoms: C_1  and  O_2
REMARK    2  A    between atoms: O_2  and  C_3
REMARK    3  A    between atoms: C_5  and  N_6
REMARK    4  A    between atoms: N_6  and  C_7
REMARK    5  A    between atoms: C_7  and  C_8
REMARK    6  A    between atoms: C_8  and  C_9
REMARK    7  A    between atoms: C_8  and  C_10
REMARK    8  A    between atoms: C_14  and  C_15
REMARK    9  A    between atoms: C_15  and  N_16
REMARK   10  A    between atoms: C_20  and  C_21
REMARK                            x       y       z     vdW  Elec       q    Type
REMARK                         _______ _______ _______ _____ _____    ______ ____
ROOT
ATOM      1  N   UNL     1      43.774   4.813   9.863  0.00  0.00    +0.000 N 
ATOM      2  H   UNL     1      43.527   5.604   9.273  0.00  0.00    +0.000 HD
ENDROOT
BRANCH   1   5
ATOM      3  C   UNL     1      46.257   3.322   7.596  0.00  0.00    +0.000 A 
ATOM      4  C   UNL     1      45.363   4.254   8.128  0.00  0.00    +0.000 A 
ATOM      5  C   UNL     1      44.503   3.895   9.151  0.00  0.00    +0.000 A 
ATOM      6  N   UNL     1      44.430   2.628   9.588  0.00  0.00    +0.000 NA
ATOM      7  C   UNL     1      45.250   1.711   9.013  0.00  0.00    +0.000 A 
ATOM      8  C   UNL     1      46.187   1.996   8.022  0.00  0.00    +0.000 A 
BRANCH   8   9
ATOM      9  C   UNL     1      47.033   0.875   7.543  0.00  0.00    +0.000 C 
ATOM     10  N   UNL     1      46.557  -0.396   7.687  0.00  0.00    +0.000 N 
ATOM     11  O   UNL     1      48.128   1.070   7.038  0.00  0.00    +0.000 OA
ATOM     12  H   UNL     1      45.651  -0.584   8.099  0.00  0.00    +0.000 HD
ATOM     13  H   UNL     1      47.127  -1.166   7.358  0.00  0.00    +0.000 HD
ENDBRANCH   8   9
BRANCH   3  15
ATOM     14  C   UNL     1      46.868   3.365   5.322  0.00  0.00    +0.000 C 
ATOM     15  O   UNL     1      47.206   3.700   6.673  0.00  0.00    +0.000 OA
ENDBRANCH   3  15
ENDBRANCH   1   5
BRANCH   1  16
ATOM     16  C   UNL     1      43.937   5.062  11.285  0.00  0.00    +0.000 C 
BRANCH  16  17
ATOM     17  C   UNL     1      45.422   5.044  11.698  0.00  0.00    +0.000 C 
ATOM     18  C   UNL     1      45.666   4.026  12.825  0.00  0.00    +0.000 C 
BRANCH  17  19
ATOM     19  C   UNL     1      45.956   6.434  12.000  0.00  0.00    +0.000 A 
ATOM     20  C   UNL     1      45.089   7.421  12.489  0.00  0.00    +0.000 A 
ATOM     21  C   UNL     1      45.551   8.718  12.717  0.00  0.00    +0.000 A 
ATOM     22  C   UNL     1      46.883   9.041  12.462  0.00  0.00    +0.000 A 
ATOM     23  C   UNL     1      47.777   8.064  12.008  0.00  0.00    +0.000 A 
ATOM     24  C   UNL     1      47.305   6.763  11.802  0.00  0.00    +0.000 A 
BRANCH  23  25
ATOM     25  C   UNL     1      49.210   8.404  11.698  0.00  0.00    +0.000 C 
BRANCH  25  26
ATOM     26  N   UNL     1      50.091   7.288  12.020  0.00  0.00    +0.000 NA
ATOM     27  H   UNL     1      49.532   6.544  12.437  0.00  0.00    +0.000 HD
ATOM     28  H   UNL     1      50.754   7.585  12.732  0.00  0.00    +0.000 HD
ENDBRANCH  25  26
ENDBRANCH  23  25
ENDBRANCH  17  19
ENDBRANCH  16  17
ENDBRANCH   1  16
TORSDOF 8
ENDMDL
MODEL 5
REMARK VINA RESULT:    -6.728      2.193      3.610
REMARK INTER + INTRA:         -10.730
REMARK INTER:                 -10.191
REMARK INTRA:                  -0.538
REMARK UNBOUND:                -1.052
REMARK  Name = 
REMARK  10 active torsions:
REMARK  status: ('A' for Active; 'I' for Inactive)
REMARK    1  A    between atoms: C_1  and  O_2
REMARK    2  A    between atoms: O_2  and  C_3
REMARK    3  A    between atoms: C_5  and  N_6
REMARK    4  A    between atoms: N_6  and  C_7
REMARK    5  A    between atoms: C_7  and  C_8
REMARK    6  A    between atoms: C_8  and  C_9
REMARK    7  A    between atoms: C_8  and  C_10
REMARK    8  A    between atoms: C_14  and  C_15
REMARK    9  A    between atoms: C_15  and  N_16
REMARK   10  A    between atoms: C_20  and  C_21
REMARK                            x       y       z     vdW  Elec       q    Type
REMARK                         _______ _______ _______ _____ _____    ______ ____
ROOT
ATOM      1  N   UNL     1      43.626   4.895  10.051  0.00  0.00    +0.000 N 
ATOM      2  H   UNL     1      43.305   5.644   9.441  0.00  0.00    +0.000 HD
ENDROOT
BRANCH   1   5
ATOM      3  C   UNL     1      46.133   3.381   7.826  0.00  0.00    +0.000 A 
ATOM      4  C   UNL     1      45.256   4.330   8.356  0.00  0.00    +0.000 A 
ATOM      5  C   UNL     1      44.346   3.972   9.336  0.00  0.00    +0.000 A 
ATOM      6  N   UNL     1      44.210   2.696   9.728  0.00  0.00    +0.000 NA
ATOM      7  C   UNL     1      45.016   1.767   9.153  0.00  0.00    +0.000 A 
ATOM      8  C   UNL     1      45.999   2.047   8.206  0.00  0.00    +0.000 A 
BRANCH   8   9
ATOM      9  C   UNL     1      46.819   0.910   7.721  0.00  0.00    +0.000 C 
ATOM     10  N   UNL     1      48.007   1.188   7.110  0.00  0.00    +0.000 N 
ATOM     11  O   UNL     1      46.450  -0.248   7.852  0.00  0.00    +0.000 OA
ATOM     12  H   UNL     1      48.337   2.139   6.993  0.00  0.00    +0.000 HD
ATOM     13  H   UNL     1      48.574   0.417   6.780  0.00  0.00    +0.000 HD
ENDBRANCH   8   9
BRANCH   3  15
ATOM     14  C   UNL     1      46.766   3.620   5.570  0.00  0.00    +0.000 C 
ATOM     15  O   UNL     1      47.128   3.751   6.950  0.00  0.00    +0.000 OA
ENDBRANCH   3  15
ENDBRANCH   1   5
BRANCH   1  16
ATOM     16  C   UNL     1      43.872   5.224  11.444  0.00  0.00    +0.000 C 
BRANCH  16  17
ATOM     17  C   UNL     1      45.377   5.185  11.779  0.00  0.00    +0.000 C 
ATOM     18  C   UNL     1      45.641   4.312  13.018  0.00  0.00    +0.000 C 
BRANCH  17  19
ATOM     19  C   UNL     1      45.985   6.575  11.866  0.00  0.00    +0.000 A 
ATOM     20  C   UNL     1      47.376   6.721  11.962  0.00  0.00    +0.000 A 
ATOM     21  C   UNL     1      47.946   7.987  12.100  0.00  0.00    +0.000 A 
ATOM     22  C   UNL     1      47.134   9.120  12.143  0.00  0.00    +0.000 A 
ATOM     23  C   UNL     1      45.745   9.003  12.013  0.00  0.00    +0.000 A 
ATOM     24  C   UNL     1      45.187   7.729  11.856  0.00  0.00    +0.000 A 
BRANCH  23  25
ATOM     25  C   UNL     1      44.851  10.211  12.088  0.00  0.00    +0.000 C 
BRANCH  25  26
ATOM     26  N   UNL     1      43.560   9.943  11.468  0.00  0.00    +0.000 NA
ATOM     27  H   UNL     1      42.992  10.788  11.525  0.00  0.00    +0.000 HD
ATOM     28  H   UNL     1      43.074   9.231  12.009  0.00  0.00    +0.000 HD
ENDBRANCH  25  26
ENDBRANCH  23  25
ENDBRANCH  17  19
ENDBRANCH  16  17
ENDBRANCH   1  16
TORSDOF 8
ENDMDL
MODEL 6
REMARK VINA RESULT:    -6.711      3.493      7.634
REMARK INTER + INTRA:         -10.706
REMARK INTER:                  -9.880
REMARK INTRA:                  -0.825
REMARK UNBOUND:                -1.052
REMARK  Name = 
REMARK  10 active torsions:
REMARK  status: ('A' for Active; 'I' for Inactive)
REMARK    1  A    between atoms: C_1  and  O_2
REMARK    2  A    between atoms: O_2  and  C_3
REMARK    3  A    between atoms: C_5  and  N_6
REMARK    4  A    between atoms: N_6  and  C_7
REMARK    5  A    between atoms: C_7  and  C_8
REMARK    6  A    between atoms: C_8  and  C_9
REMARK    7  A    between atoms: C_8  and  C_10
REMARK    8  A    between atoms: C_14  and  C_15
REMARK    9  A    between atoms: C_15  and  N_16
REMARK   10  A    between atoms: C_20  and  C_21
REMARK                            x       y       z     vdW  Elec       q    Type
REMARK                         _______ _______ _______ _____ _____    ______ ____
ROOT
ATOM      1  N   UNL     1      45.499   5.911  11.798  0.00  0.00    +0.000 N 
ATOM      2  H   UNL     1      44.528   5.728  12.041  0.00  0.00    +0.000 HD
ENDROOT
BRANCH   1   5
ATOM      3  C   UNL     1      47.904   6.402  14.538  0.00  0.00    +0.000 A 
ATOM      4  C   UNL     1      47.267   6.579  13.307  0.00  0.00    +0.000 A 
ATOM      5  C   UNL     1      46.314   5.672  12.875  0.00  0.00    +0.000 A 
ATOM      6  N   UNL     1      46.051   4.553  13.569  0.00  0.00    +0.000 NA
ATOM      7  C   UNL     1      46.730   4.352  14.727  0.00  0.00    +0.000 A 
ATOM      8  C   UNL     1      47.658   5.239  15.267  0.00  0.00    +0.000 A 
BRANCH   8   9
ATOM      9  C   UNL     1      48.269   4.876  16.569  0.00  0.00    +0.000 C 
ATOM     10  N   UNL     1      47.979   5.651  17.654  0.00  0.00    +0.000 N 
ATOM     11  O   UNL     1      49.017   3.916  16.680  0.00  0.00    +0.000 OA
ATOM     12  H   UNL     1      47.359   6.450  17.589  0.00  0.00    +0.000 HD
ATOM     13  H   UNL     1      48.389   5.407  18.547  0.00  0.00    +0.000 HD
ENDBRANCH   8   9
BRANCH   3  15
ATOM     14  C   UNL     1      50.015   7.430  14.365  0.00  0.00    +0.000 C 
ATOM     15  O   UNL     1      48.753   7.363  15.038  0.00  0.00    +0.000 OA
ENDBRANCH   3  15
ENDBRANCH   1   5
BRANCH   1  16
ATOM     16  C   UNL     1      45.893   5.712  10.414  0.00  0.00    +0.000 C 
BRANCH  16  17
ATOM     17  C   UNL     1      44.792   4.994   9.608  0.00  0.00    +0.000 C 
ATOM     18  C   UNL     1      43.563   4.709  10.490  0.00  0.00    +0.000 C 
BRANCH  17  19
ATOM     19  C   UNL     1      45.316   3.771   8.874  0.00  0.00    +0.000 A 
ATOM     20  C   UNL     1      45.013   2.489   9.351  0.00  0.00    +0.000 A 
ATOM     21  C   UNL     1      45.534   1.358   8.722  0.00  0.00    +0.000 A 
ATOM     22  C   UNL     1      46.363   1.496   7.608  0.00  0.00    +0.000 A 
ATOM     23  C   UNL     1      46.652   2.765   7.091  0.00  0.00    +0.000 A 
ATOM     24  C   UNL     1      46.107   3.890   7.721  0.00  0.00    +0.000 A 
BRANCH  23  25
ATOM     25  C   UNL     1      47.569   2.933   5.910  0.00  0.00    +0.000 C 
BRANCH  25  26
ATOM     26  N   UNL     1      48.448   1.780   5.765  0.00  0.00    +0.000 NA
ATOM     27  H   UNL     1      47.893   0.933   5.884  0.00  0.00    +0.000 HD
ATOM     28  H   UNL     1      49.132   1.787   6.518  0.00  0.00    +0.000 HD
ENDBRANCH  25  26
ENDBRANCH  23  25
ENDBRANCH  17  19
ENDBRANCH  16  17
ENDBRANCH   1  16
TORSDOF 8
ENDMDL
MODEL 7
REMARK VINA RESULT:    -6.418      3.922      6.923
REMARK INTER + INTRA:         -10.284
REMARK INTER:                  -9.175
REMARK INTRA:                  -1.110
REMARK UNBOUND:                -1.052
REMARK  Name = 
REMARK  10 active torsions:
REMARK  status: ('A' for Active; 'I' for Inactive)
REMARK    1  A    between atoms: C_1  and  O_2
REMARK    2  A    between atoms: O_2  and  C_3
REMARK    3  A    between atoms: C_5  and  N_6
REMARK    4  A    between atoms: N_6  and  C_7
REMARK    5  A    between atoms: C_7  and  C_8
REMARK    6  A    between atoms: C_8  and  C_9
REMARK    7  A    between atoms: C_8  and  C_10
REMARK    8  A    between atoms: C_14  and  C_15
REMARK    9  A    between atoms: C_15  and  N_16
REMARK   10  A    between atoms: C_20  and  C_21
REMARK                            x       y       z     vdW  Elec       q    Type
REMARK                         _______ _______ _______ _____ _____    ______ ____
ROOT
ATOM      1  N   UNL     1      45.282   4.896  13.283  0.00  0.00    +0.000 N 
ATOM      2  H   UNL     1      45.295   4.842  14.299  0.00  0.00    +0.000 HD
ENDROOT
BRANCH   1   5
ATOM      3  C   UNL     1      45.665   8.445  12.395  0.00  0.00    +0.000 A 
ATOM      4  C   UNL     1      45.058   7.201  12.589  0.00  0.00    +0.000 A 
ATOM      5  C   UNL     1      45.826   6.082  12.861  0.00  0.00    +0.000 A 
ATOM      6  N   UNL     1      47.167   6.136  12.844  0.00  0.00    +0.000 NA
ATOM      7  C   UNL     1      47.750   7.333  12.580  0.00  0.00    +0.000 A 
ATOM      8  C   UNL     1      47.057   8.521  12.357  0.00  0.00    +0.000 A 
BRANCH   8   9
ATOM      9  C   UNL     1      47.861   9.746  12.130  0.00  0.00    +0.000 C 
ATOM     10  N   UNL     1      47.549  10.863  12.850  0.00  0.00    +0.000 N 
ATOM     11  O   UNL     1      48.777   9.771  11.321  0.00  0.00    +0.000 OA
ATOM     12  H   UNL     1      46.798  10.867  13.530  0.00  0.00    +0.000 HD
ATOM     13  H   UNL     1      48.097  11.702  12.704  0.00  0.00    +0.000 HD
ENDBRANCH   8   9
BRANCH   3  15
ATOM     14  C   UNL     1      44.118   9.617  11.062  0.00  0.00    +0.000 C 
ATOM     15  O   UNL     1      44.908   9.586  12.256  0.00  0.00    +0.000 OA
ENDBRANCH   3  15
ENDBRANCH   1   5
BRANCH   1  16
ATOM     16  C   UNL     1      45.368   3.648  12.544  0.00  0.00    +0.000 C 
BRANCH  16  17
ATOM     17  C   UNL     1      44.385   3.624  11.356  0.00  0.00    +0.000 C 
ATOM     18  C   UNL     1      43.293   2.562  11.568  0.00  0.00    +0.000 C 
BRANCH  17  19
ATOM     19  C   UNL     1      45.097   3.513  10.018  0.00  0.00    +0.000 A 
ATOM     20  C   UNL     1      45.342   4.667   9.262  0.00  0.00    +0.000 A 
ATOM     21  C   UNL     1      45.943   4.576   8.006  0.00  0.00    +0.000 A 
ATOM     22  C   UNL     1      46.309   3.331   7.494  0.00  0.00    +0.000 A 
ATOM     23  C   UNL     1      46.108   2.167   8.246  0.00  0.00    +0.000 A 
ATOM     24  C   UNL     1      45.521   2.275   9.512  0.00  0.00    +0.000 A 
BRANCH  23  25
ATOM     25  C   UNL     1      46.468   0.814   7.696  0.00  0.00    +0.000 C 
BRANCH  25  26
ATOM     26  N   UNL     1      47.442   0.931   6.619  0.00  0.00    +0.000 NA
ATOM     27  H   UNL     1      47.516   0.030   6.148  0.00  0.00    +0.000 HD
ATOM     28  H   UNL     1      48.358   1.124   7.020  0.00  0.00    +0.000 HD
ENDBRANCH  25  26
ENDBRANCH  23  25
ENDBRANCH  17  19
ENDBRANCH  16  17
ENDBRANCH   1  16
TORSDOF 8
ENDMDL
MODEL 8
REMARK VINA RESULT:    -6.373      4.384      7.813
REMARK INTER + INTRA:         -10.219
REMARK INTER:                  -9.279
REMARK INTRA:                  -0.940
REMARK UNBOUND:                -1.052
REMARK  Name = 
REMARK  10 active torsions:
REMARK  status: ('A' for Active; 'I' for Inactive)
REMARK    1  A    between atoms: C_1  and  O_2
REMARK    2  A    between atoms: O_2  and  C_3
REMARK    3  A    between atoms: C_5  and  N_6
REMARK    4  A    between atoms: N_6  and  C_7
REMARK    5  A    between atoms: C_7  and  C_8
REMARK    6  A    between atoms: C_8  and  C_9
REMARK    7  A    between atoms: C_8  and  C_10
REMARK    8  A    between atoms: C_14  and  C_15
REMARK    9  A    between atoms: C_15  and  N_16
REMARK   10  A    between atoms: C_20  and  C_21
REMARK                            x       y       z     vdW  Elec       q    Type
REMARK                         _______ _______ _______ _____ _____    ______ ____
ROOT
ATOM      1  N   UNL     1      47.781   7.194  13.476  0.00  0.00    +0.000 N 
ATOM      2  H   UNL     1      47.230   7.972  13.830  0.00  0.00    +0.000 HD
ENDROOT
BRANCH   1   5
ATOM      3  C   UNL     1      48.572   5.577  16.683  0.00  0.00    +0.000 A 
ATOM      4  C   UNL     1      48.634   6.487  15.625  0.00  0.00    +0.000 A 
ATOM      5  C   UNL     1      47.945   6.242  14.450  0.00  0.00    +0.000 A 
ATOM      6  N   UNL     1      47.290   5.087  14.253  0.00  0.00    +0.000 NA
ATOM      7  C   UNL     1      47.298   4.175  15.259  0.00  0.00    +0.000 A 
ATOM      8  C   UNL     1      47.912   4.363  16.495  0.00  0.00    +0.000 A 
BRANCH   8   9
ATOM      9  C   UNL     1      47.778   3.274  17.493  0.00  0.00    +0.000 C 
ATOM     10  N   UNL     1      48.877   2.935  18.228  0.00  0.00    +0.000 N 
ATOM     11  O   UNL     1      46.720   2.684  17.660  0.00  0.00    +0.000 OA
ATOM     12  H   UNL     1      49.764   3.411  18.111  0.00  0.00    +0.000 HD
ATOM     13  H   UNL     1      48.792   2.195  18.913  0.00  0.00    +0.000 HD
ENDBRANCH   8   9
BRANCH   3  15
ATOM     14  C   UNL     1      48.272   6.574  18.795  0.00  0.00    +0.000 C 
ATOM     15  O   UNL     1      49.142   5.870  17.902  0.00  0.00    +0.000 OA
ENDBRANCH   3  15
ENDBRANCH   1   5
BRANCH   1  16
ATOM     16  C   UNL     1      47.696   6.903  12.055  0.00  0.00    +0.000 C 
BRANCH  16  17
ATOM     17  C   UNL     1      46.265   7.110  11.519  0.00  0.00    +0.000 C 
ATOM     18  C   UNL     1      45.387   7.827  12.559  0.00  0.00    +0.000 C 
BRANCH  17  19
ATOM     19  C   UNL     1      45.656   5.824  10.984  0.00  0.00    +0.000 A 
ATOM     20  C   UNL     1      45.803   5.495   9.630  0.00  0.00    +0.000 A 
ATOM     21  C   UNL     1      45.202   4.347   9.111  0.00  0.00    +0.000 A 
ATOM     22  C   UNL     1      44.450   3.515   9.941  0.00  0.00    +0.000 A 
ATOM     23  C   UNL     1      44.319   3.803  11.305  0.00  0.00    +0.000 A 
ATOM     24  C   UNL     1      44.943   4.947  11.816  0.00  0.00    +0.000 A 
BRANCH  23  25
ATOM     25  C   UNL     1      43.486   2.933  12.208  0.00  0.00    +0.000 C 
BRANCH  25  26
ATOM     26  N   UNL     1      43.097   1.703  11.531  0.00  0.00    +0.000 NA
ATOM     27  H   UNL     1      42.530   1.147  12.170  0.00  0.00    +0.000 HD
ATOM     28  H   UNL     1      43.931   1.155  11.332  0.00  0.00    +0.000 HD
ENDBRANCH  25  26
ENDBRANCH  23  25
ENDBRANCH  17  19
ENDBRANCH  16  17
ENDBRANCH   1  16
TORSDOF 8
ENDMDL
MODEL 9
REMARK VINA RESULT:    -6.269      3.587      6.356
REMARK INTER + INTRA:         -10.070
REMARK INTER:                  -9.293
REMARK INTRA:                  -0.777
REMARK UNBOUND:                -1.052
REMARK  Name = 
REMARK  10 active torsions:
REMARK  status: ('A' for Active; 'I' for Inactive)
REMARK    1  A    between atoms: C_1  and  O_2
REMARK    2  A    between atoms: O_2  and  C_3
REMARK    3  A    between atoms: C_5  and  N_6
REMARK    4  A    between atoms: N_6  and  C_7
REMARK    5  A    between atoms: C_7  and  C_8
REMARK    6  A    between atoms: C_8  and  C_9
REMARK    7  A    between atoms: C_8  and  C_10
REMARK    8  A    between atoms: C_14  and  C_15
REMARK    9  A    between atoms: C_15  and  N_16
REMARK   10  A    between atoms: C_20  and  C_21
REMARK                            x       y       z     vdW  Elec       q    Type
REMARK                         _______ _______ _______ _____ _____    ______ ____
ROOT
ATOM      1  N   UNL     1      46.538   4.409  15.160  0.00  0.00    +0.000 N 
ATOM      2  H   UNL     1      46.428   5.294  15.650  0.00  0.00    +0.000 HD
ENDROOT
BRANCH   1   5
ATOM      3  C   UNL     1      45.348   5.718  11.936  0.00  0.00    +0.000 A 
ATOM      4  C   UNL     1      45.688   5.684  13.290  0.00  0.00    +0.000 A 
ATOM      5  C   UNL     1      45.981   4.482  13.909  0.00  0.00    +0.000 A 
ATOM      6  N   UNL     1      45.848   3.314  13.262  0.00  0.00    +0.000 NA
ATOM      7  C   UNL     1      45.444   3.350  11.966  0.00  0.00    +0.000 A 
ATOM      8  C   UNL     1      45.187   4.515  11.248  0.00  0.00    +0.000 A 
BRANCH   8   9
ATOM      9  C   UNL     1      44.800   4.365   9.824  0.00  0.00    +0.000 C 
ATOM     10  N   UNL     1      45.385   5.191   8.907  0.00  0.00    +0.000 N 
ATOM     11  O   UNL     1      43.977   3.535   9.468  0.00  0.00    +0.000 OA
ATOM     12  H   UNL     1      46.071   5.885   9.176  0.00  0.00    +0.000 HD
ATOM     13  H   UNL     1      45.128   5.092   7.933  0.00  0.00    +0.000 HD
ENDBRANCH   8   9
BRANCH   3  15
ATOM     14  C   UNL     1      45.646   8.052  12.017  0.00  0.00    +0.000 C 
ATOM     15  O   UNL     1      45.184   6.915  11.278  0.00  0.00    +0.000 OA
ENDBRANCH   3  15
ENDBRANCH   1   5
BRANCH   1  16
ATOM     16  C   UNL     1      47.697   3.598  15.494  0.00  0.00    +0.000 C 
BRANCH  16  17
ATOM     17  C   UNL     1      47.983   3.615  17.009  0.00  0.00    +0.000 C 
ATOM     18  C   UNL     1      47.140   4.690  17.716  0.00  0.00    +0.000 C 
BRANCH  17  19
ATOM     19  C   UNL     1      49.469   3.700  17.315  0.00  0.00    +0.000 A 
ATOM     20  C   UNL     1      50.079   4.954  17.460  0.00  0.00    +0.000 A 
ATOM     21  C   UNL     1      51.453   5.051  17.685  0.00  0.00    +0.000 A 
ATOM     22  C   UNL     1      52.231   3.896  17.769  0.00  0.00    +0.000 A 
ATOM     23  C   UNL     1      51.640   2.632  17.664  0.00  0.00    +0.000 A 
ATOM     24  C   UNL     1      50.258   2.549  17.458  0.00  0.00    +0.000 A 
BRANCH  23  25
ATOM     25  C   UNL     1      52.469   1.377  17.721  0.00  0.00    +0.000 C 
BRANCH  25  26
ATOM     26  N   UNL     1      51.653   0.230  18.095  0.00  0.00    +0.000 NA
ATOM     27  H   UNL     1      52.036  -0.601  17.647  0.00  0.00    +0.000 HD
ATOM     28  H   UNL     1      50.715   0.354  17.721  0.00  0.00    +0.000 HD
ENDBRANCH  25  26
ENDBRANCH  23  25
ENDBRANCH  17  19
ENDBRANCH  16  17
ENDBRANCH   1  16
TORSDOF 8
ENDMDL
