MODEL 1
REMARK VINA RESULT:    -7.698      0.000      0.000
REMARK INTER + INTRA:         -11.420
REMARK INTER:                 -10.398
REMARK INTRA:                  -1.022
REMARK UNBOUND:                -1.022
REMARK  Name = 
REMARK  6 active torsions:
REMARK  status: ('A' for Active; 'I' for Inactive)
REMARK    1  A    between atoms: C_2  and  C_25
REMARK    2  A    between atoms: N_3  and  C_4
REMARK    3  A    between atoms: C_4  and  C_5
REMARK    4  A    between atoms: C_8  and  C_9
REMARK    5  A    between atoms: C_9  and  N_10
REMARK    6  A    between atoms: C_11  and  C_13
REMARK                            x       y       z     vdW  Elec       q    Type
REMARK                         _______ _______ _______ _____ _____    ______ ____
ROOT
ATOM      1  C   UNL     1      45.097   6.220  11.024  0.00  0.00    +0.000 A 
ATOM      2  C   UNL     1      44.555   7.373  11.587  0.00  0.00    +0.000 A 
ATOM      3  C   UNL     1      45.322   8.114  12.484  0.00  0.00    +0.000 A 
ATOM      4  C   UNL     1      46.611   7.690  12.809  0.00  0.00    +0.000 A 
ATOM      5  C   UNL     1      47.082   6.547  12.173  0.00  0.00    +0.000 A 
ATOM      6  N   UNL     1      46.361   5.808  11.296  0.00  0.00    +0.000 NA
ENDROOT
BRANCH   1   7
ATOM      7  C   UNL     1      44.276   5.377  10.075  0.00  0.00    +0.000 C 
BRANCH   7  10
ATOM      8  O   UNL     1      44.202   2.543  10.006  0.00  0.00    +0.000 OA
ATOM      9  C   UNL     1      44.973   3.148   9.268  0.00  0.00    +0.000 C 
ATOM     10  N   UNL     1      45.087   4.517   9.243  0.00  0.00    +0.000 N 
ATOM     11  H   UNL     1      45.676   4.923   8.525  0.00  0.00    +0.000 HD
BRANCH   9  12
ATOM     12  C   UNL     1      45.864   2.469   8.322  0.00  0.00    +0.000 A 
ATOM     13  C   UNL     1      46.544   3.123   7.310  0.00  0.00    +0.000 A 
ATOM     14  S   UNL     1      47.464   2.011   6.390  0.00  0.00    +0.000 S 
ATOM     15  C   UNL     1      46.897   0.739   7.394  0.00  0.00    +0.000 A 
ATOM     16  N   UNL     1      46.083   1.086   8.368  0.00  0.00    +0.000 NA
ENDBRANCH   9  12
ENDBRANCH   7  10
ENDBRANCH   1   7
BRANCH   4  17
ATOM     17  C   UNL     1      47.467   8.453  13.777  0.00  0.00    +0.000 C 
BRANCH  17  18
ATOM     18  N   UNL     1      47.792   7.659  14.935  0.00  0.00    +0.000 N 
ATOM     19  C   UNL     1      49.001   7.018  15.034  0.00  0.00    +0.000 C 
ATOM     20  O   UNL     1      49.870   7.137  14.171  0.00  0.00    +0.000 OA
ATOM     21  H   UNL     1      47.022   7.358  15.527  0.00  0.00    +0.000 HD
BRANCH  19  22
ATOM     22  C   UNL     1      49.237   6.232  16.251  0.00  0.00    +0.000 A 
ATOM     23  C   UNL     1      50.262   6.595  17.115  0.00  0.00    +0.000 A 
ATOM     24  S   UNL     1      50.370   5.612  18.504  0.00  0.00    +0.000 S 
ATOM     25  C   UNL     1      49.081   4.633  17.977  0.00  0.00    +0.000 A 
ATOM     26  N   UNL     1      48.670   3.565  18.712  0.00  0.00    +0.000 NA
ATOM     27  C   UNL     1      47.707   2.891  18.178  0.00  0.00    +0.000 A 
ATOM     28  N   UNL     1      47.114   3.192  16.980  0.00  0.00    +0.000 N 
ATOM     29  C   UNL     1      47.474   4.278  16.218  0.00  0.00    +0.000 A 
ATOM     30  O   UNL     1      46.896   4.545  15.171  0.00  0.00    +0.000 OA
ATOM     31  C   UNL     1      48.564   5.062  16.767  0.00  0.00    +0.000 A 
ATOM     32  H   UNL     1      46.358   2.627  16.621  0.00  0.00    +0.000 HD
ENDBRANCH  19  22
ENDBRANCH  17  18
ENDBRANCH   4  17
TORSDOF 6
ENDMDL
MODEL 2
REMARK VINA RESULT:    -7.418      1.939      2.440
REMARK INTER + INTRA:         -11.043
REMARK INTER:                 -10.186
REMARK INTRA:                  -0.856
REMARK UNBOUND:                -1.022
REMARK  Name = 
REMARK  6 active torsions:
REMARK  status: ('A' for Active; 'I' for Inactive)
REMARK    1  A    between atoms: C_2  and  C_25
REMARK    2  A    between atoms: N_3  and  C_4
REMARK    3  A    between atoms: C_4  and  C_5
REMARK    4  A    between atoms: C_8  and  C_9
REMARK    5  A    between atoms: C_9  and  N_10
REMARK    6  A    between atoms: C_11  and  C_13
REMARK                            x       y       z     vdW  Elec       q    Type
REMARK                         _______ _______ _______ _____ _____    ______ ____
ROOT
ATOM      1  C   UNL     1      44.578   4.832  11.779  0.00  0.00    +0.000 A 
ATOM      2  C   UNL     1      45.580   4.869  12.745  0.00  0.00    +0.000 A 
ATOM      3  C   UNL     1      46.087   6.102  13.150  0.00  0.00    +0.000 A 
ATOM      4  C   UNL     1      45.592   7.275  12.579  0.00  0.00    +0.000 A 
ATOM      5  C   UNL     1      44.569   7.146  11.648  0.00  0.00    +0.000 A 
ATOM      6  N   UNL     1      44.054   5.962  11.238  0.00  0.00    +0.000 NA
ENDROOT
BRANCH   1   7
ATOM      7  C   UNL     1      44.032   3.507  11.295  0.00  0.00    +0.000 C 
BRANCH   7  10
ATOM      8  O   UNL     1      44.199   4.067   8.521  0.00  0.00    +0.000 OA
ATOM      9  C   UNL     1      44.922   3.205   9.011  0.00  0.00    +0.000 C 
ATOM     10  N   UNL     1      44.900   2.858  10.339  0.00  0.00    +0.000 N 
ATOM     11  H   UNL     1      45.608   2.209  10.664  0.00  0.00    +0.000 HD
BRANCH   9  12
ATOM     12  C   UNL     1      45.898   2.446   8.222  0.00  0.00    +0.000 A 
ATOM     13  C   UNL     1      46.740   3.025   7.289  0.00  0.00    +0.000 A 
ATOM     14  S   UNL     1      47.720   1.834   6.546  0.00  0.00    +0.000 S 
ATOM     15  C   UNL     1      46.960   0.634   7.510  0.00  0.00    +0.000 A 
ATOM     16  N   UNL     1      46.041   1.058   8.350  0.00  0.00    +0.000 NA
ENDBRANCH   9  12
ENDBRANCH   7  10
ENDBRANCH   1   7
BRANCH   4  17
ATOM     17  C   UNL     1      46.118   8.623  12.979  0.00  0.00    +0.000 C 
BRANCH  17  18
ATOM     18  N   UNL     1      46.780   8.575  14.257  0.00  0.00    +0.000 N 
ATOM     19  C   UNL     1      48.087   8.974  14.390  0.00  0.00    +0.000 C 
ATOM     20  O   UNL     1      48.722   9.434  13.444  0.00  0.00    +0.000 OA
ATOM     21  H   UNL     1      46.365   7.989  14.977  0.00  0.00    +0.000 HD
BRANCH  19  22
ATOM     22  C   UNL     1      48.673   8.884  15.733  0.00  0.00    +0.000 A 
ATOM     23  C   UNL     1      48.948  10.048  16.440  0.00  0.00    +0.000 A 
ATOM     24  S   UNL     1      49.578   9.770  18.000  0.00  0.00    +0.000 S 
ATOM     25  C   UNL     1      49.553   8.084  17.769  0.00  0.00    +0.000 A 
ATOM     26  N   UNL     1      49.996   7.240  18.738  0.00  0.00    +0.000 NA
ATOM     27  C   UNL     1      49.952   5.990  18.417  0.00  0.00    +0.000 A 
ATOM     28  N   UNL     1      49.499   5.509  17.217  0.00  0.00    +0.000 N 
ATOM     29  C   UNL     1      49.012   6.321  16.220  0.00  0.00    +0.000 A 
ATOM     30  O   UNL     1      48.573   5.856  15.174  0.00  0.00    +0.000 OA
ATOM     31  C   UNL     1      49.053   7.738  16.525  0.00  0.00    +0.000 A 
ATOM     32  H   UNL     1      49.483   4.516  17.031  0.00  0.00    +0.000 HD
ENDBRANCH  19  22
ENDBRANCH  17  18
ENDBRANCH   4  17
TORSDOF 6
ENDMDL
MODEL 3
REMARK VINA RESULT:    -6.827      3.947      5.174
REMARK INTER + INTRA:         -10.244
REMARK INTER:                  -9.527
REMARK INTRA:                  -0.717
REMARK UNBOUND:                -1.022
REMARK  Name = 
REMARK  6 active torsions:
REMARK  status: ('A' for Active; 'I' for Inactive)
REMARK    1  A    between atoms: C_2  and  C_25
REMARK    2  A    between atoms: N_3  and  C_4
REMARK    3  A    between atoms: C_4  and  C_5
REMARK    4  A    between atoms: C_8  and  C_9
REMARK    5  A    between atoms: C_9  and  N_10
REMARK    6  A    between atoms: C_11  and  C_13
REMARK                            x       y       z     vdW  Elec       q    Type
REMARK                         _______ _______ _______ _____ _____    ______ ____
ROOT
ATOM      1  C   UNL     1      44.437   4.682  11.711  0.00  0.00    +0.000 A 
ATOM      2  C   UNL     1      45.631   4.834  12.412  0.00  0.00    +0.000 A 
ATOM      3  C   UNL     1      46.060   6.116  12.749  0.00  0.00    +0.000 A 
ATOM      4  C   UNL     1      45.298   7.223  12.376  0.00  0.00    +0.000 A 
ATOM      5  C   UNL     1      44.104   6.976  11.709  0.00  0.00    +0.000 A 
ATOM      6  N   UNL     1      43.659   5.741  11.370  0.00  0.00    +0.000 NA
ENDROOT
BRANCH   1   7
ATOM      7  C   UNL     1      43.962   3.306  11.301  0.00  0.00    +0.000 C 
BRANCH   7  10
ATOM      8  O   UNL     1      44.246   4.041   8.578  0.00  0.00    +0.000 OA
ATOM      9  C   UNL     1      44.911   3.113   9.029  0.00  0.00    +0.000 C 
ATOM     10  N   UNL     1      44.829   2.680  10.329  0.00  0.00    +0.000 N 
ATOM     11  H   UNL     1      45.494   1.976  10.629  0.00  0.00    +0.000 HD
BRANCH   9  12
ATOM     12  C   UNL     1      45.874   2.361   8.219  0.00  0.00    +0.000 A 
ATOM     13  C   UNL     1      46.690   2.946   7.266  0.00  0.00    +0.000 A 
ATOM     14  S   UNL     1      47.662   1.762   6.502  0.00  0.00    +0.000 S 
ATOM     15  C   UNL     1      46.935   0.557   7.485  0.00  0.00    +0.000 A 
ATOM     16  N   UNL     1      46.032   0.975   8.344  0.00  0.00    +0.000 NA
ENDBRANCH   9  12
ENDBRANCH   7  10
ENDBRANCH   1   7
BRANCH   4  17
ATOM     17  C   UNL     1      45.729   8.621  12.710  0.00  0.00    +0.000 C 
BRANCH  17  18
ATOM     18  N   UNL     1      47.062   8.891  12.235  0.00  0.00    +0.000 N 
ATOM     19  C   UNL     1      47.478  10.176  11.993  0.00  0.00    +0.000 C 
ATOM     20  O   UNL     1      46.756  11.144  12.221  0.00  0.00    +0.000 OA
ATOM     21  H   UNL     1      47.576   8.117  11.821  0.00  0.00    +0.000 HD
BRANCH  19  22
ATOM     22  C   UNL     1      48.854  10.347  11.508  0.00  0.00    +0.000 A 
ATOM     23  C   UNL     1      49.130  11.319  10.556  0.00  0.00    +0.000 A 
ATOM     24  S   UNL     1      50.780  11.422  10.138  0.00  0.00    +0.000 S 
ATOM     25  C   UNL     1      51.178  10.135  11.178  0.00  0.00    +0.000 A 
ATOM     26  N   UNL     1      52.459   9.690  11.278  0.00  0.00    +0.000 NA
ATOM     27  C   UNL     1      52.614   8.687  12.077  0.00  0.00    +0.000 A 
ATOM     28  N   UNL     1      51.604   8.094  12.788  0.00  0.00    +0.000 N 
ATOM     29  C   UNL     1      50.301   8.530  12.744  0.00  0.00    +0.000 A 
ATOM     30  O   UNL     1      49.428   8.005  13.427  0.00  0.00    +0.000 OA
ATOM     31  C   UNL     1      50.071   9.647  11.849  0.00  0.00    +0.000 A 
ATOM     32  H   UNL     1      51.794   7.316  13.404  0.00  0.00    +0.000 HD
ENDBRANCH  19  22
ENDBRANCH  17  18
ENDBRANCH   4  17
TORSDOF 6
ENDMDL
MODEL 4
REMARK VINA RESULT:    -6.813      2.082      2.583
REMARK INTER + INTRA:         -10.225
REMARK INTER:                  -9.356
REMARK INTRA:                  -0.868
REMARK UNBOUND:                -1.022
REMARK  Name = 
REMARK  6 active torsions:
REMARK  status: ('A' for Active; 'I' for Inactive)
REMARK    1  A    between atoms: C_2  and  C_25
REMARK    2  A    between atoms: N_3  and  C_4
REMARK    3  A    between atoms: C_4  and  C_5
REMARK    4  A    between atoms: C_8  and  C_9
REMARK    5  A    between atoms: C_9  and  N_10
REMARK    6  A    between atoms: C_11  and  C_13
REMARK                            x       y       z     vdW  Elec       q    Type
REMARK                         _______ _______ _______ _____ _____    ______ ____
ROOT
ATOM      1  C   UNL     1      44.910   5.250  11.488  0.00  0.00    +0.000 A 
ATOM      2  C   UNL     1      45.762   4.687  12.435  0.00  0.00    +0.000 A 
ATOM      3  C   UNL     1      46.619   5.517  13.154  0.00  0.00    +0.000 A 
ATOM      4  C   UNL     1      46.618   6.891  12.910  0.00  0.00    +0.000 A 
ATOM      5  C   UNL     1      45.711   7.370  11.972  0.00  0.00    +0.000 A 
ATOM      6  N   UNL     1      44.864   6.588  11.261  0.00  0.00    +0.000 NA
ENDROOT
BRANCH   1   7
ATOM      7  C   UNL     1      43.992   4.370  10.668  0.00  0.00    +0.000 C 
BRANCH   7  10
ATOM      8  O   UNL     1      45.518   5.002   8.364  0.00  0.00    +0.000 OA
ATOM      9  C   UNL     1      45.437   3.836   8.737  0.00  0.00    +0.000 C 
ATOM     10  N   UNL     1      44.710   3.436   9.831  0.00  0.00    +0.000 N 
ATOM     11  H   UNL     1      44.792   2.467  10.117  0.00  0.00    +0.000 HD
BRANCH   9  12
ATOM     12  C   UNL     1      46.114   2.733   8.047  0.00  0.00    +0.000 A 
ATOM     13  C   UNL     1      46.902   2.907   6.923  0.00  0.00    +0.000 A 
ATOM     14  S   UNL     1      47.505   1.401   6.376  0.00  0.00    +0.000 S 
ATOM     15  C   UNL     1      46.680   0.624   7.666  0.00  0.00    +0.000 A 
ATOM     16  N   UNL     1      45.999   1.405   8.476  0.00  0.00    +0.000 NA
ENDBRANCH   9  12
ENDBRANCH   7  10
ENDBRANCH   1   7
BRANCH   4  17
ATOM     17  C   UNL     1      47.533   7.820  13.654  0.00  0.00    +0.000 C 
BRANCH  17  18
ATOM     18  N   UNL     1      47.727   7.393  15.017  0.00  0.00    +0.000 N 
ATOM     19  C   UNL     1      48.949   6.944  15.449  0.00  0.00    +0.000 C 
ATOM     20  O   UNL     1      49.934   6.938  14.713  0.00  0.00    +0.000 OA
ATOM     21  H   UNL     1      46.896   7.166  15.558  0.00  0.00    +0.000 HD
BRANCH  19  22
ATOM     22  C   UNL     1      49.044   6.529  16.854  0.00  0.00    +0.000 A 
ATOM     23  C   UNL     1      49.556   5.276  17.166  0.00  0.00    +0.000 A 
ATOM     24  S   UNL     1      49.645   4.969  18.841  0.00  0.00    +0.000 S 
ATOM     25  C   UNL     1      48.955   6.481  19.209  0.00  0.00    +0.000 A 
ATOM     26  N   UNL     1      48.727   6.848  20.498  0.00  0.00    +0.000 NA
ATOM     27  C   UNL     1      48.169   8.005  20.631  0.00  0.00    +0.000 A 
ATOM     28  N   UNL     1      47.824   8.829  19.592  0.00  0.00    +0.000 N 
ATOM     29  C   UNL     1      48.065   8.515  18.276  0.00  0.00    +0.000 A 
ATOM     30  O   UNL     1      47.785   9.293  17.371  0.00  0.00    +0.000 OA
ATOM     31  C   UNL     1      48.679   7.217  18.070  0.00  0.00    +0.000 A 
ATOM     32  H   UNL     1      47.397   9.728  19.765  0.00  0.00    +0.000 HD
ENDBRANCH  19  22
ENDBRANCH  17  18
ENDBRANCH   4  17
TORSDOF 6
ENDMDL
MODEL 5
REMARK VINA RESULT:    -6.779      2.899      8.317
REMARK INTER + INTRA:         -10.179
REMARK INTER:                  -9.392
REMARK INTRA:                  -0.786
REMARK UNBOUND:                -1.022
REMARK  Name = 
REMARK  6 active torsions:
REMARK  status: ('A' for Active; 'I' for Inactive)
REMARK    1  A    between atoms: C_2  and  C_25
REMARK    2  A    between atoms: N_3  and  C_4
REMARK    3  A    between atoms: C_4  and  C_5
REMARK    4  A    between atoms: C_8  and  C_9
REMARK    5  A    between atoms: C_9  and  N_10
REMARK    6  A    between atoms: C_11  and  C_13
REMARK                            x       y       z     vdW  Elec       q    Type
REMARK                         _______ _______ _______ _____ _____    ______ ____
ROOT
ATOM      1  C   UNL     1      50.279   7.314  15.356  0.00  0.00    +0.000 A 
ATOM      2  C   UNL     1      50.554   8.253  14.364  0.00  0.00    +0.000 A 
ATOM      3  C   UNL     1      49.656   8.409  13.310  0.00  0.00    +0.000 A 
ATOM      4  C   UNL     1      48.505   7.623  13.259  0.00  0.00    +0.000 A 
ATOM      5  C   UNL     1      48.294   6.736  14.308  0.00  0.00    +0.000 A 
ATOM      6  N   UNL     1      49.147   6.565  15.347  0.00  0.00    +0.000 NA
ENDROOT
BRANCH   1   7
ATOM      7  C   UNL     1      51.251   7.098  16.493  0.00  0.00    +0.000 C 
BRANCH   7  10
ATOM      8  O   UNL     1      50.043   5.319  18.341  0.00  0.00    +0.000 OA
ATOM      9  C   UNL     1      50.935   4.913  17.603  0.00  0.00    +0.000 C 
ATOM     10  N   UNL     1      51.586   5.706  16.689  0.00  0.00    +0.000 N 
ATOM     11  H   UNL     1      52.234   5.252  16.056  0.00  0.00    +0.000 HD
BRANCH   9  12
ATOM     12  C   UNL     1      51.407   3.525  17.617  0.00  0.00    +0.000 A 
ATOM     13  C   UNL     1      52.675   3.155  18.030  0.00  0.00    +0.000 A 
ATOM     14  S   UNL     1      52.882   1.462  17.885  0.00  0.00    +0.000 S 
ATOM     15  C   UNL     1      51.279   1.336  17.284  0.00  0.00    +0.000 A 
ATOM     16  N   UNL     1      50.602   2.460  17.194  0.00  0.00    +0.000 NA
ENDBRANCH   9  12
ENDBRANCH   7  10
ENDBRANCH   1   7
BRANCH   4  17
ATOM     17  C   UNL     1      47.518   7.751  12.136  0.00  0.00    +0.000 C 
BRANCH  17  18
ATOM     18  N   UNL     1      46.841   6.505  11.881  0.00  0.00    +0.000 N 
ATOM     19  C   UNL     1      45.474   6.454  11.774  0.00  0.00    +0.000 C 
ATOM     20  O   UNL     1      44.781   7.467  11.837  0.00  0.00    +0.000 OA
ATOM     21  H   UNL     1      47.356   5.648  12.062  0.00  0.00    +0.000 HD
BRANCH  19  22
ATOM     22  C   UNL     1      44.879   5.137  11.515  0.00  0.00    +0.000 A 
ATOM     23  C   UNL     1      44.163   4.498  12.520  0.00  0.00    +0.000 A 
ATOM     24  S   UNL     1      43.496   3.003  12.044  0.00  0.00    +0.000 S 
ATOM     25  C   UNL     1      44.182   3.131  10.491  0.00  0.00    +0.000 A 
ATOM     26  N   UNL     1      44.011   2.146   9.569  0.00  0.00    +0.000 NA
ATOM     27  C   UNL     1      44.613   2.357   8.447  0.00  0.00    +0.000 A 
ATOM     28  N   UNL     1      45.365   3.466   8.161  0.00  0.00    +0.000 N 
ATOM     29  C   UNL     1      45.539   4.501   9.049  0.00  0.00    +0.000 A 
ATOM     30  O   UNL     1      46.182   5.501   8.748  0.00  0.00    +0.000 OA
ATOM     31  C   UNL     1      44.894   4.307  10.333  0.00  0.00    +0.000 A 
ATOM     32  H   UNL     1      45.804   3.574   7.258  0.00  0.00    +0.000 HD
ENDBRANCH  19  22
ENDBRANCH  17  18
ENDBRANCH   4  17
TORSDOF 6
ENDMDL
MODEL 6
REMARK VINA RESULT:    -6.285      1.694      2.062
REMARK INTER + INTRA:          -9.512
REMARK INTER:                  -8.643
REMARK INTRA:                  -0.869
REMARK UNBOUND:                -1.022
REMARK  Name = 
REMARK  6 active torsions:
REMARK  status: ('A' for Active; 'I' for Inactive)
REMARK    1  A    between atoms: C_2  and  C_25
REMARK    2  A    between atoms: N_3  and  C_4
REMARK    3  A    between atoms: C_4  and  C_5
REMARK    4  A    between atoms: C_8  and  C_9
REMARK    5  A    between atoms: C_9  and  N_10
REMARK    6  A    between atoms: C_11  and  C_13
REMARK                            x       y       z     vdW  Elec       q    Type
REMARK                         _______ _______ _______ _____ _____    ______ ____
ROOT
ATOM      1  C   UNL     1      45.596   6.026  12.247  0.00  0.00    +0.000 A 
ATOM      2  C   UNL     1      45.094   7.320  12.362  0.00  0.00    +0.000 A 
ATOM      3  C   UNL     1      45.871   8.297  12.981  0.00  0.00    +0.000 A 
ATOM      4  C   UNL     1      47.131   7.965  13.481  0.00  0.00    +0.000 A 
ATOM      5  C   UNL     1      47.566   6.659  13.292  0.00  0.00    +0.000 A 
ATOM      6  N   UNL     1      46.834   5.690  12.692  0.00  0.00    +0.000 NA
ENDROOT
BRANCH   1   7
ATOM      7  C   UNL     1      44.762   4.938  11.611  0.00  0.00    +0.000 C 
BRANCH   7  10
ATOM      8  O   UNL     1      43.797   2.757  10.076  0.00  0.00    +0.000 OA
ATOM      9  C   UNL     1      44.810   3.351   9.718  0.00  0.00    +0.000 C 
ATOM     10  N   UNL     1      45.357   4.406  10.405  0.00  0.00    +0.000 N 
ATOM     11  H   UNL     1      46.133   4.894   9.972  0.00  0.00    +0.000 HD
BRANCH   9  12
ATOM     12  C   UNL     1      45.552   2.993   8.505  0.00  0.00    +0.000 A 
ATOM     13  C   UNL     1      46.140   1.755   8.309  0.00  0.00    +0.000 A 
ATOM     14  S   UNL     1      46.942   1.707   6.796  0.00  0.00    +0.000 S 
ATOM     15  C   UNL     1      46.455   3.327   6.508  0.00  0.00    +0.000 A 
ATOM     16  N   UNL     1      45.734   3.895   7.449  0.00  0.00    +0.000 NA
ENDBRANCH   9  12
ENDBRANCH   7  10
ENDBRANCH   1   7
BRANCH   4  17
ATOM     17  C   UNL     1      47.996   8.984  14.164  0.00  0.00    +0.000 C 
BRANCH  17  18
ATOM     18  N   UNL     1      48.829   8.380  15.173  0.00  0.00    +0.000 N 
ATOM     19  C   UNL     1      48.631   8.648  16.504  0.00  0.00    +0.000 C 
ATOM     20  O   UNL     1      47.711   9.366  16.890  0.00  0.00    +0.000 OA
ATOM     21  H   UNL     1      49.718   7.990  14.872  0.00  0.00    +0.000 HD
BRANCH  19  22
ATOM     22  C   UNL     1      49.534   7.986  17.454  0.00  0.00    +0.000 A 
ATOM     23  C   UNL     1      50.299   8.753  18.322  0.00  0.00    +0.000 A 
ATOM     24  S   UNL     1      51.254   7.832  19.393  0.00  0.00    +0.000 S 
ATOM     25  C   UNL     1      50.718   6.373  18.701  0.00  0.00    +0.000 A 
ATOM     26  N   UNL     1      51.181   5.175  19.149  0.00  0.00    +0.000 NA
ATOM     27  C   UNL     1      50.717   4.152  18.512  0.00  0.00    +0.000 A 
ATOM     28  N   UNL     1      49.827   4.218  17.473  0.00  0.00    +0.000 N 
ATOM     29  C   UNL     1      49.307   5.403  17.007  0.00  0.00    +0.000 A 
ATOM     30  O   UNL     1      48.479   5.426  16.103  0.00  0.00    +0.000 OA
ATOM     31  C   UNL     1      49.808   6.585  17.680  0.00  0.00    +0.000 A 
ATOM     32  H   UNL     1      49.496   3.378  17.022  0.00  0.00    +0.000 HD
ENDBRANCH  19  22
ENDBRANCH  17  18
ENDBRANCH   4  17
TORSDOF 6
ENDMDL
MODEL 7
REMARK VINA RESULT:    -6.161      4.676      7.549
REMARK INTER + INTRA:          -9.344
REMARK INTER:                  -8.484
REMARK INTRA:                  -0.860
REMARK UNBOUND:                -1.022
REMARK  Name = 
REMARK  6 active torsions:
REMARK  status: ('A' for Active; 'I' for Inactive)
REMARK    1  A    between atoms: C_2  and  C_25
REMARK    2  A    between atoms: N_3  and  C_4
REMARK    3  A    between atoms: C_4  and  C_5
REMARK    4  A    between atoms: C_8  and  C_9
REMARK    5  A    between atoms: C_9  and  N_10
REMARK    6  A    between atoms: C_11  and  C_13
REMARK                            x       y       z     vdW  Elec       q    Type
REMARK                         _______ _______ _______ _____ _____    ______ ____
ROOT
ATOM      1  C   UNL     1      50.568   8.949  11.394  0.00  0.00    +0.000 A 
ATOM      2  C   UNL     1      50.104   7.636  11.431  0.00  0.00    +0.000 A 
ATOM      3  C   UNL     1      48.793   7.391  11.836  0.00  0.00    +0.000 A 
ATOM      4  C   UNL     1      47.972   8.457  12.204  0.00  0.00    +0.000 A 
ATOM      5  C   UNL     1      48.507   9.735  12.104  0.00  0.00    +0.000 A 
ATOM      6  N   UNL     1      49.775  10.004  11.712  0.00  0.00    +0.000 NA
ENDROOT
BRANCH   1   7
ATOM      7  C   UNL     1      51.995   9.243  10.992  0.00  0.00    +0.000 C 
BRANCH   7  10
ATOM      8  O   UNL     1      54.146   7.395  10.965  0.00  0.00    +0.000 OA
ATOM      9  C   UNL     1      53.483   7.570   9.947  0.00  0.00    +0.000 C 
ATOM     10  N   UNL     1      52.435   8.453   9.864  0.00  0.00    +0.000 N 
ATOM     11  H   UNL     1      51.886   8.447   9.012  0.00  0.00    +0.000 HD
BRANCH   9  12
ATOM     12  C   UNL     1      53.742   6.847   8.699  0.00  0.00    +0.000 A 
ATOM     13  C   UNL     1      54.124   7.469   7.522  0.00  0.00    +0.000 A 
ATOM     14  S   UNL     1      54.309   6.317   6.269  0.00  0.00    +0.000 S 
ATOM     15  C   UNL     1      53.868   5.076   7.370  0.00  0.00    +0.000 A 
ATOM     16  N   UNL     1      53.605   5.456   8.601  0.00  0.00    +0.000 NA
ENDBRANCH   9  12
ENDBRANCH   7  10
ENDBRANCH   1   7
BRANCH   4  17
ATOM     17  C   UNL     1      46.558   8.236  12.656  0.00  0.00    +0.000 C 
BRANCH  17  18
ATOM     18  N   UNL     1      46.119   6.890  12.386  0.00  0.00    +0.000 N 
ATOM     19  C   UNL     1      44.966   6.652  11.682  0.00  0.00    +0.000 C 
ATOM     20  O   UNL     1      44.294   7.567  11.212  0.00  0.00    +0.000 OA
ATOM     21  H   UNL     1      46.515   6.147  12.955  0.00  0.00    +0.000 HD
BRANCH  19  22
ATOM     22  C   UNL     1      44.604   5.246  11.462  0.00  0.00    +0.000 A 
ATOM     23  C   UNL     1      43.888   4.561  12.435  0.00  0.00    +0.000 A 
ATOM     24  S   UNL     1      43.504   2.957  12.004  0.00  0.00    +0.000 S 
ATOM     25  C   UNL     1      44.324   3.103  10.519  0.00  0.00    +0.000 A 
ATOM     26  N   UNL     1      44.400   2.054   9.657  0.00  0.00    +0.000 NA
ATOM     27  C   UNL     1      45.080   2.294   8.586  0.00  0.00    +0.000 A 
ATOM     28  N   UNL     1      45.685   3.488   8.296  0.00  0.00    +0.000 N 
ATOM     29  C   UNL     1      45.608   4.585   9.121  0.00  0.00    +0.000 A 
ATOM     30  O   UNL     1      46.124   5.654   8.813  0.00  0.00    +0.000 OA
ATOM     31  C   UNL     1      44.867   4.365  10.347  0.00  0.00    +0.000 A 
ATOM     32  H   UNL     1      46.196   3.613   7.434  0.00  0.00    +0.000 HD
ENDBRANCH  19  22
ENDBRANCH  17  18
ENDBRANCH   4  17
TORSDOF 6
ENDMDL
MODEL 8
REMARK VINA RESULT:    -5.986      3.534      4.993
REMARK INTER + INTRA:          -9.109
REMARK INTER:                  -8.096
REMARK INTRA:                  -1.012
REMARK UNBOUND:                -1.022
REMARK  Name = 
REMARK  6 active torsions:
REMARK  status: ('A' for Active; 'I' for Inactive)
REMARK    1  A    between atoms: C_2  and  C_25
REMARK    2  A    between atoms: N_3  and  C_4
REMARK    3  A    between atoms: C_4  and  C_5
REMARK    4  A    between atoms: C_8  and  C_9
REMARK    5  A    between atoms: C_9  and  N_10
REMARK    6  A    between atoms: C_11  and  C_13
REMARK                            x       y       z     vdW  Elec       q    Type
REMARK                         _______ _______ _______ _____ _____    ______ ____
ROOT
ATOM      1  C   UNL     1      45.858   5.225  12.265  0.00  0.00    +0.000 A 
ATOM      2  C   UNL     1      46.232   4.530  13.412  0.00  0.00    +0.000 A 
ATOM      3  C   UNL     1      47.154   5.107  14.284  0.00  0.00    +0.000 A 
ATOM      4  C   UNL     1      47.691   6.362  13.993  0.00  0.00    +0.000 A 
ATOM      5  C   UNL     1      47.235   6.997  12.844  0.00  0.00    +0.000 A 
ATOM      6  N   UNL     1      46.338   6.463  11.981  0.00  0.00    +0.000 NA
ENDROOT
BRANCH   1   7
ATOM      7  C   UNL     1      44.886   4.610  11.283  0.00  0.00    +0.000 C 
BRANCH   7  10
ATOM      8  O   UNL     1      44.188   4.274   8.556  0.00  0.00    +0.000 OA
ATOM      9  C   UNL     1      45.129   3.640   9.024  0.00  0.00    +0.000 C 
ATOM     10  N   UNL     1      45.528   3.728  10.335  0.00  0.00    +0.000 N 
ATOM     11  H   UNL     1      46.379   3.243  10.598  0.00  0.00    +0.000 HD
BRANCH   9  12
ATOM     12  C   UNL     1      45.935   2.711   8.227  0.00  0.00    +0.000 A 
ATOM     13  C   UNL     1      46.719   3.107   7.156  0.00  0.00    +0.000 A 
ATOM     14  S   UNL     1      47.494   1.754   6.449  0.00  0.00    +0.000 S 
ATOM     15  C   UNL     1      46.737   0.738   7.608  0.00  0.00    +0.000 A 
ATOM     16  N   UNL     1      45.961   1.335   8.486  0.00  0.00    +0.000 NA
ENDBRANCH   9  12
ENDBRANCH   7  10
ENDBRANCH   1   7
BRANCH   4  17
ATOM     17  C   UNL     1      48.694   7.014  14.899  0.00  0.00    +0.000 C 
BRANCH  17  18
ATOM     18  N   UNL     1      49.934   7.276  14.214  0.00  0.00    +0.000 N 
ATOM     19  C   UNL     1      50.467   8.540  14.178  0.00  0.00    +0.000 C 
ATOM     20  O   UNL     1      49.941   9.481  14.768  0.00  0.00    +0.000 OA
ATOM     21  H   UNL     1      50.248   6.586  13.536  0.00  0.00    +0.000 HD
BRANCH  19  22
ATOM     22  C   UNL     1      51.733   8.705  13.452  0.00  0.00    +0.000 A 
ATOM     23  C   UNL     1      52.827   9.264  14.100  0.00  0.00    +0.000 A 
ATOM     24  S   UNL     1      54.231   9.339  13.136  0.00  0.00    +0.000 S 
ATOM     25  C   UNL     1      53.414   8.672  11.800  0.00  0.00    +0.000 A 
ATOM     26  N   UNL     1      54.051   8.485  10.613  0.00  0.00    +0.000 NA
ATOM     27  C   UNL     1      53.304   8.004   9.677  0.00  0.00    +0.000 A 
ATOM     28  N   UNL     1      51.979   7.687   9.822  0.00  0.00    +0.000 N 
ATOM     29  C   UNL     1      51.301   7.827  11.010  0.00  0.00    +0.000 A 
ATOM     30  O   UNL     1      50.127   7.493  11.119  0.00  0.00    +0.000 OA
ATOM     31  C   UNL     1      52.093   8.379  12.092  0.00  0.00    +0.000 A 
ATOM     32  H   UNL     1      51.452   7.304   9.050  0.00  0.00    +0.000 HD
ENDBRANCH  19  22
ENDBRANCH  17  18
ENDBRANCH   4  17
TORSDOF 6
ENDMDL
MODEL 9
REMARK VINA RESULT:    -5.450      4.812      7.295
REMARK INTER + INTRA:          -8.384
REMARK INTER:                  -7.811
REMARK INTRA:                  -0.573
REMARK UNBOUND:                -1.022
REMARK  Name = 
REMARK  6 active torsions:
REMARK  status: ('A' for Active; 'I' for Inactive)
REMARK    1  A    between atoms: C_2  and  C_25
REMARK    2  A    between atoms: N_3  and  C_4
REMARK    3  A    between atoms: C_4  and  C_5
REMARK    4  A    between atoms: C_8  and  C_9
REMARK    5  A    between atoms: C_9  and  N_10
REMARK    6  A    between atoms: C_11  and  C_13
REMARK                            x       y       z     vdW  Elec       q    Type
REMARK                         _______ _______ _______ _____ _____    ______ ____
ROOT
ATOM      1  C   UNL     1      51.360   9.728  12.634  0.00  0.00    +0.000 A 
ATOM      2  C   UNL     1      51.871   8.790  13.528  0.00  0.00    +0.000 A 
ATOM      3  C   UNL     1      50.990   8.050  14.313  0.00  0.00    +0.000 A 
ATOM      4  C   UNL     1      49.615   8.262  14.199  0.00  0.00    +0.000 A 
ATOM      5  C   UNL     1      49.192   9.193  13.257  0.00  0.00    +0.000 A 
ATOM      6  N   UNL     1      50.025   9.925  12.479  0.00  0.00    +0.000 NA
ENDROOT
BRANCH   1   7
ATOM      7  C   UNL     1      52.293  10.570  11.794  0.00  0.00    +0.000 C 
BRANCH   7  10
ATOM      8  O   UNL     1      54.241   8.775  10.785  0.00  0.00    +0.000 OA
ATOM      9  C   UNL     1      53.376   9.215  10.035  0.00  0.00    +0.000 C 
ATOM     10  N   UNL     1      52.403  10.099  10.432  0.00  0.00    +0.000 N 
ATOM     11  H   UNL     1      51.673  10.321   9.764  0.00  0.00    +0.000 HD
BRANCH   9  12
ATOM     12  C   UNL     1      53.286   8.841   8.620  0.00  0.00    +0.000 A 
ATOM     13  C   UNL     1      53.689   9.669   7.586  0.00  0.00    +0.000 A 
ATOM     14  S   UNL     1      53.412   8.915   6.074  0.00  0.00    +0.000 S 
ATOM     15  C   UNL     1      52.778   7.546   6.893  0.00  0.00    +0.000 A 
ATOM     16  N   UNL     1      52.768   7.607   8.207  0.00  0.00    +0.000 NA
ENDBRANCH   9  12
ENDBRANCH   7  10
ENDBRANCH   1   7
BRANCH   4  17
ATOM     17  C   UNL     1      48.632   7.494  15.032  0.00  0.00    +0.000 C 
BRANCH  17  18
ATOM     18  N   UNL     1      47.416   7.229  14.306  0.00  0.00    +0.000 N 
ATOM     19  C   UNL     1      47.356   6.225  13.372  0.00  0.00    +0.000 C 
ATOM     20  O   UNL     1      48.312   5.483  13.158  0.00  0.00    +0.000 OA
ATOM     21  H   UNL     1      46.711   7.961  14.292  0.00  0.00    +0.000 HD
BRANCH  19  22
ATOM     22  C   UNL     1      46.073   6.036  12.684  0.00  0.00    +0.000 A 
ATOM     23  C   UNL     1      45.407   7.136  12.161  0.00  0.00    +0.000 A 
ATOM     24  S   UNL     1      43.959   6.741  11.351  0.00  0.00    +0.000 S 
ATOM     25  C   UNL     1      44.145   5.088  11.714  0.00  0.00    +0.000 A 
ATOM     26  N   UNL     1      43.214   4.178  11.321  0.00  0.00    +0.000 NA
ATOM     27  C   UNL     1      43.463   2.967  11.692  0.00  0.00    +0.000 A 
ATOM     28  N   UNL     1      44.561   2.583  12.415  0.00  0.00    +0.000 N 
ATOM     29  C   UNL     1      45.544   3.461  12.807  0.00  0.00    +0.000 A 
ATOM     30  O   UNL     1      46.537   3.079  13.416  0.00  0.00    +0.000 OA
ATOM     31  C   UNL     1      45.305   4.840  12.427  0.00  0.00    +0.000 A 
ATOM     32  H   UNL     1      44.702   1.615  12.667  0.00  0.00    +0.000 HD
ENDBRANCH  19  22
ENDBRANCH  17  18
ENDBRANCH   4  17
TORSDOF 6
ENDMDL
