MODEL 1
REMARK VINA RESULT:    -8.088      0.000      0.000
REMARK INTER + INTRA:         -11.820
REMARK INTER:                 -10.925
REMARK INTRA:                  -0.896
REMARK UNBOUND:                -0.896
REMARK  Name = 
REMARK  7 active torsions:
REMARK  status: ('A' for Active; 'I' for Inactive)
REMARK    1  A    between atoms: C_1  and  S_2
REMARK    2  A    between atoms: S_2  and  C_5
REMARK    3  A    between atoms: N_9  and  C_10
REMARK    4  A    between atoms: C_10  and  C_11
REMARK    5  A    between atoms: C_11  and  C_14
REMARK    6  A    between atoms: C_18  and  C_19
REMARK    7  A    between atoms: C_19  and  C_20
REMARK                            x       y       z     vdW  Elec       q    Type
REMARK                         _______ _______ _______ _____ _____    ______ ____
ROOT
ATOM      1  C   UNL     1      43.322   5.197  12.583  0.00  0.00    +0.000 C 
ATOM      2  F   UNL     1      42.644   6.303  12.157  0.00  0.00    +0.000 F 
ATOM      3  F   UNL     1      42.631   4.732  13.662  0.00  0.00    +0.000 F 
ENDROOT
BRANCH   1   4
ATOM      4  C   UNL     1      44.778   5.489  12.909  0.00  0.00    +0.000 A 
ATOM      5  C   UNL     1      45.545   4.551  13.616  0.00  0.00    +0.000 A 
ATOM      6  C   UNL     1      46.915   4.743  13.780  0.00  0.00    +0.000 A 
ATOM      7  C   UNL     1      47.531   5.874  13.246  0.00  0.00    +0.000 A 
ATOM      8  C   UNL     1      46.781   6.839  12.560  0.00  0.00    +0.000 A 
ATOM      9  C   UNL     1      45.403   6.640  12.401  0.00  0.00    +0.000 A 
BRANCH   8  10
ATOM     10  C   UNL     1      47.453   8.062  11.981  0.00  0.00    +0.000 C 
BRANCH  10  11
ATOM     11  C   UNL     1      47.070   9.314  12.761  0.00  0.00    +0.000 C 
ATOM     12  C   UNL     1      46.103  10.316  12.102  0.00  0.00    +0.000 C 
ATOM     13  N   UNL     1      47.061  11.403  12.340  0.00  0.00    +0.000 NA
ATOM     14  C   UNL     1      48.112  10.448  12.706  0.00  0.00    +0.000 C 
ATOM     15  H   UNL     1      46.792  12.033  13.096  0.00  0.00    +0.000 HD
ENDBRANCH  10  11
ENDBRANCH   8  10
ENDBRANCH   1   4
BRANCH   1  16
ATOM     16  C   UNL     1      43.302   4.133  11.456  0.00  0.00    +0.000 C 
BRANCH  16  21
ATOM     17  C   UNL     1      46.283   2.607   7.696  0.00  0.00    +0.000 A 
ATOM     18  C   UNL     1      45.472   1.856   8.533  0.00  0.00    +0.000 A 
ATOM     19  C   UNL     1      44.575   2.522   9.361  0.00  0.00    +0.000 A 
ATOM     20  C   UNL     1      44.527   3.915   9.356  0.00  0.00    +0.000 A 
ATOM     21  N   UNL     1      43.617   4.642  10.114  0.00  0.00    +0.000 N 
ATOM     22  N   UNL     1      45.336   4.643   8.560  0.00  0.00    +0.000 NA
ATOM     23  C   UNL     1      46.204   3.984   7.750  0.00  0.00    +0.000 A 
ATOM     24  H   UNL     1      43.869   5.628  10.064  0.00  0.00    +0.000 HD
BRANCH  17  26
ATOM     25  C   UNL     1      46.944   2.483   5.010  0.00  0.00    +0.000 C 
ATOM     26  S   UNL     1      47.402   1.823   6.588  0.00  0.00    +0.000 S 
ATOM     27  O   UNL     1      47.091   0.407   6.592  0.00  0.00    +0.000 OA
ATOM     28  O   UNL     1      48.734   2.290   6.912  0.00  0.00    +0.000 OA
ENDBRANCH  17  26
ENDBRANCH  16  21
ENDBRANCH   1  16
TORSDOF 6
ENDMDL
MODEL 2
REMARK VINA RESULT:    -8.086      4.687      7.888
REMARK INTER + INTRA:         -11.818
REMARK INTER:                 -11.133
REMARK INTRA:                  -0.685
REMARK UNBOUND:                -0.896
REMARK  Name = 
REMARK  7 active torsions:
REMARK  status: ('A' for Active; 'I' for Inactive)
REMARK    1  A    between atoms: C_1  and  S_2
REMARK    2  A    between atoms: S_2  and  C_5
REMARK    3  A    between atoms: N_9  and  C_10
REMARK    4  A    between atoms: C_10  and  C_11
REMARK    5  A    between atoms: C_11  and  C_14
REMARK    6  A    between atoms: C_18  and  C_19
REMARK    7  A    between atoms: C_19  and  C_20
REMARK                            x       y       z     vdW  Elec       q    Type
REMARK                         _______ _______ _______ _____ _____    ______ ____
ROOT
ATOM      1  C   UNL     1      44.423   5.914  11.470  0.00  0.00    +0.000 C 
ATOM      2  F   UNL     1      43.088   6.147  11.633  0.00  0.00    +0.000 F 
ATOM      3  F   UNL     1      44.943   7.072  10.971  0.00  0.00    +0.000 F 
ENDROOT
BRANCH   1   4
ATOM      4  C   UNL     1      44.706   4.718  10.574  0.00  0.00    +0.000 A 
ATOM      5  C   UNL     1      44.074   3.489  10.818  0.00  0.00    +0.000 A 
ATOM      6  C   UNL     1      44.208   2.439   9.913  0.00  0.00    +0.000 A 
ATOM      7  C   UNL     1      44.976   2.603   8.761  0.00  0.00    +0.000 A 
ATOM      8  C   UNL     1      45.639   3.812   8.510  0.00  0.00    +0.000 A 
ATOM      9  C   UNL     1      45.502   4.863   9.427  0.00  0.00    +0.000 A 
BRANCH   8  10
ATOM     10  C   UNL     1      46.469   3.986   7.259  0.00  0.00    +0.000 C 
BRANCH  10  11
ATOM     11  C   UNL     1      46.708   2.645   6.573  0.00  0.00    +0.000 C 
ATOM     12  C   UNL     1      47.960   1.840   6.965  0.00  0.00    +0.000 C 
ATOM     13  N   UNL     1      48.351   1.751   5.553  0.00  0.00    +0.000 NA
ATOM     14  C   UNL     1      47.342   2.746   5.173  0.00  0.00    +0.000 C 
ATOM     15  H   UNL     1      48.201   0.831   5.140  0.00  0.00    +0.000 HD
ENDBRANCH  10  11
ENDBRANCH   8  10
ENDBRANCH   1   4
BRANCH   1  16
ATOM     16  C   UNL     1      45.053   5.618  12.855  0.00  0.00    +0.000 C 
BRANCH  16  21
ATOM     17  C   UNL     1      48.554   4.889  16.399  0.00  0.00    +0.000 A 
ATOM     18  C   UNL     1      47.500   4.070  16.026  0.00  0.00    +0.000 A 
ATOM     19  C   UNL     1      46.790   4.387  14.872  0.00  0.00    +0.000 A 
ATOM     20  C   UNL     1      47.127   5.523  14.138  0.00  0.00    +0.000 A 
ATOM     21  N   UNL     1      46.498   5.865  12.947  0.00  0.00    +0.000 N 
ATOM     22  N   UNL     1      48.136   6.332  14.520  0.00  0.00    +0.000 NA
ATOM     23  C   UNL     1      48.828   6.011  15.643  0.00  0.00    +0.000 A 
ATOM     24  H   UNL     1      46.803   6.800  12.678  0.00  0.00    +0.000 HD
BRANCH  17  26
ATOM     25  C   UNL     1      49.791   6.100  18.560  0.00  0.00    +0.000 C 
ATOM     26  S   UNL     1      49.524   4.515  17.818  0.00  0.00    +0.000 S 
ATOM     27  O   UNL     1      50.802   4.018  17.347  0.00  0.00    +0.000 OA
ATOM     28  O   UNL     1      48.703   3.722  18.710  0.00  0.00    +0.000 OA
ENDBRANCH  17  26
ENDBRANCH  16  21
ENDBRANCH   1  16
TORSDOF 6
ENDMDL
MODEL 3
REMARK VINA RESULT:    -7.463      3.869      7.247
REMARK INTER + INTRA:         -10.976
REMARK INTER:                 -10.252
REMARK INTRA:                  -0.724
REMARK UNBOUND:                -0.896
REMARK  Name = 
REMARK  7 active torsions:
REMARK  status: ('A' for Active; 'I' for Inactive)
REMARK    1  A    between atoms: C_1  and  S_2
REMARK    2  A    between atoms: S_2  and  C_5
REMARK    3  A    between atoms: N_9  and  C_10
REMARK    4  A    between atoms: C_10  and  C_11
REMARK    5  A    between atoms: C_11  and  C_14
REMARK    6  A    between atoms: C_18  and  C_19
REMARK    7  A    between atoms: C_19  and  C_20
REMARK                            x       y       z     vdW  Elec       q    Type
REMARK                         _______ _______ _______ _____ _____    ______ ____
ROOT
ATOM      1  C   UNL     1      43.804   5.648  11.472  0.00  0.00    +0.000 C 
ATOM      2  F   UNL     1      43.484   5.272  12.745  0.00  0.00    +0.000 F 
ATOM      3  F   UNL     1      42.673   6.206  10.955  0.00  0.00    +0.000 F 
ENDROOT
BRANCH   1   4
ATOM      4  C   UNL     1      44.317   4.491  10.629  0.00  0.00    +0.000 A 
ATOM      5  C   UNL     1      43.850   3.189  10.859  0.00  0.00    +0.000 A 
ATOM      6  C   UNL     1      44.196   2.155   9.992  0.00  0.00    +0.000 A 
ATOM      7  C   UNL     1      45.014   2.409   8.892  0.00  0.00    +0.000 A 
ATOM      8  C   UNL     1      45.515   3.697   8.657  0.00  0.00    +0.000 A 
ATOM      9  C   UNL     1      45.164   4.732   9.535  0.00  0.00    +0.000 A 
BRANCH   8  10
ATOM     10  C   UNL     1      46.399   3.968   7.463  0.00  0.00    +0.000 C 
BRANCH  10  11
ATOM     11  C   UNL     1      46.675   2.686   6.686  0.00  0.00    +0.000 C 
ATOM     12  C   UNL     1      47.970   1.911   6.996  0.00  0.00    +0.000 C 
ATOM     13  N   UNL     1      48.327   1.929   5.572  0.00  0.00    +0.000 NA
ATOM     14  C   UNL     1      47.268   2.902   5.281  0.00  0.00    +0.000 C 
ATOM     15  H   UNL     1      48.205   1.032   5.104  0.00  0.00    +0.000 HD
ENDBRANCH  10  11
ENDBRANCH   8  10
ENDBRANCH   1   4
BRANCH   1  16
ATOM     16  C   UNL     1      44.928   6.715  11.533  0.00  0.00    +0.000 C 
BRANCH  16  21
ATOM     17  C   UNL     1      49.632   8.341  12.291  0.00  0.00    +0.000 A 
ATOM     18  C   UNL     1      48.526   9.039  11.833  0.00  0.00    +0.000 A 
ATOM     19  C   UNL     1      47.278   8.429  11.909  0.00  0.00    +0.000 A 
ATOM     20  C   UNL     1      47.167   7.132  12.409  0.00  0.00    +0.000 A 
ATOM     21  N   UNL     1      45.947   6.486  12.566  0.00  0.00    +0.000 N 
ATOM     22  N   UNL     1      48.249   6.447  12.828  0.00  0.00    +0.000 NA
ATOM     23  C   UNL     1      49.462   7.052  12.757  0.00  0.00    +0.000 A 
ATOM     24  H   UNL     1      46.126   5.510  12.800  0.00  0.00    +0.000 HD
BRANCH  17  26
ATOM     25  C   UNL     1      50.922  10.737  12.799  0.00  0.00    +0.000 C 
ATOM     26  S   UNL     1      51.230   9.076  12.270  0.00  0.00    +0.000 S 
ATOM     27  O   UNL     1      51.668   9.117  10.889  0.00  0.00    +0.000 OA
ATOM     28  O   UNL     1      52.027   8.412  13.281  0.00  0.00    +0.000 OA
ENDBRANCH  17  26
ENDBRANCH  16  21
ENDBRANCH   1  16
TORSDOF 6
ENDMDL
MODEL 4
REMARK VINA RESULT:    -6.771      5.030      7.000
REMARK INTER + INTRA:         -10.041
REMARK INTER:                  -8.934
REMARK INTRA:                  -1.108
REMARK UNBOUND:                -0.896
REMARK  Name = 
REMARK  7 active torsions:
REMARK  status: ('A' for Active; 'I' for Inactive)
REMARK    1  A    between atoms: C_1  and  S_2
REMARK    2  A    between atoms: S_2  and  C_5
REMARK    3  A    between atoms: N_9  and  C_10
REMARK    4  A    between atoms: C_10  and  C_11
REMARK    5  A    between atoms: C_11  and  C_14
REMARK    6  A    between atoms: C_18  and  C_19
REMARK    7  A    between atoms: C_19  and  C_20
REMARK                            x       y       z     vdW  Elec       q    Type
REMARK                         _______ _______ _______ _____ _____    ______ ____
ROOT
ATOM      1  C   UNL     1      49.397   8.696  14.375  0.00  0.00    +0.000 C 
ATOM      2  F   UNL     1      50.004   9.919  14.354  0.00  0.00    +0.000 F 
ATOM      3  F   UNL     1      48.127   8.921  14.817  0.00  0.00    +0.000 F 
ENDROOT
BRANCH   1   4
ATOM      4  C   UNL     1      50.140   7.686  15.236  0.00  0.00    +0.000 A 
ATOM      5  C   UNL     1      51.543   7.671  15.254  0.00  0.00    +0.000 A 
ATOM      6  C   UNL     1      52.225   6.856  16.155  0.00  0.00    +0.000 A 
ATOM      7  C   UNL     1      51.515   6.046  17.040  0.00  0.00    +0.000 A 
ATOM      8  C   UNL     1      50.114   6.023  17.021  0.00  0.00    +0.000 A 
ATOM      9  C   UNL     1      49.435   6.844  16.111  0.00  0.00    +0.000 A 
BRANCH   8  10
ATOM     10  C   UNL     1      49.349   5.145  17.984  0.00  0.00    +0.000 C 
BRANCH  10  11
ATOM     11  C   UNL     1      48.564   4.073  17.237  0.00  0.00    +0.000 C 
ATOM     12  C   UNL     1      47.049   4.279  17.049  0.00  0.00    +0.000 C 
ATOM     13  N   UNL     1      46.793   2.957  17.635  0.00  0.00    +0.000 NA
ATOM     14  C   UNL     1      48.184   2.847  18.088  0.00  0.00    +0.000 C 
ATOM     15  H   UNL     1      46.522   2.249  16.953  0.00  0.00    +0.000 HD
ENDBRANCH  10  11
ENDBRANCH   8  10
ENDBRANCH   1   4
BRANCH   1  16
ATOM     16  C   UNL     1      49.352   8.134  12.931  0.00  0.00    +0.000 C 
BRANCH  16  21
ATOM     17  C   UNL     1      45.333   5.112  12.686  0.00  0.00    +0.000 A 
ATOM     18  C   UNL     1      45.549   6.335  12.071  0.00  0.00    +0.000 A 
ATOM     19  C   UNL     1      46.826   6.884  12.118  0.00  0.00    +0.000 A 
ATOM     20  C   UNL     1      47.845   6.219  12.798  0.00  0.00    +0.000 A 
ATOM     21  N   UNL     1      49.155   6.682  12.835  0.00  0.00    +0.000 N 
ATOM     22  N   UNL     1      47.624   5.042  13.418  0.00  0.00    +0.000 NA
ATOM     23  C   UNL     1      46.376   4.510  13.362  0.00  0.00    +0.000 A 
ATOM     24  H   UNL     1      49.677   6.120  13.507  0.00  0.00    +0.000 HD
BRANCH  17  26
ATOM     25  C   UNL     1      43.302   4.481  10.914  0.00  0.00    +0.000 C 
ATOM     26  S   UNL     1      43.754   4.340  12.620  0.00  0.00    +0.000 S 
ATOM     27  O   UNL     1      42.842   5.157  13.396  0.00  0.00    +0.000 OA
ATOM     28  O   UNL     1      43.941   2.938  12.930  0.00  0.00    +0.000 OA
ENDBRANCH  17  26
ENDBRANCH  16  21
ENDBRANCH   1  16
TORSDOF 6
ENDMDL
MODEL 5
REMARK VINA RESULT:    -6.563      6.144      7.924
REMARK INTER + INTRA:          -9.761
REMARK INTER:                  -9.077
REMARK INTRA:                  -0.684
REMARK UNBOUND:                -0.896
REMARK  Name = 
REMARK  7 active torsions:
REMARK  status: ('A' for Active; 'I' for Inactive)
REMARK    1  A    between atoms: C_1  and  S_2
REMARK    2  A    between atoms: S_2  and  C_5
REMARK    3  A    between atoms: N_9  and  C_10
REMARK    4  A    between atoms: C_10  and  C_11
REMARK    5  A    between atoms: C_11  and  C_14
REMARK    6  A    between atoms: C_18  and  C_19
REMARK    7  A    between atoms: C_19  and  C_20
REMARK                            x       y       z     vdW  Elec       q    Type
REMARK                         _______ _______ _______ _____ _____    ______ ____
ROOT
ATOM      1  C   UNL     1      47.789   3.824  17.567  0.00  0.00    +0.000 C 
ATOM      2  F   UNL     1      47.351   4.615  18.590  0.00  0.00    +0.000 F 
ATOM      3  F   UNL     1      47.205   2.608  17.763  0.00  0.00    +0.000 F 
ENDROOT
BRANCH   1   4
ATOM      4  C   UNL     1      49.306   3.735  17.501  0.00  0.00    +0.000 A 
ATOM      5  C   UNL     1      50.088   4.887  17.668  0.00  0.00    +0.000 A 
ATOM      6  C   UNL     1      51.474   4.787  17.765  0.00  0.00    +0.000 A 
ATOM      7  C   UNL     1      52.092   3.539  17.691  0.00  0.00    +0.000 A 
ATOM      8  C   UNL     1      51.333   2.377  17.497  0.00  0.00    +0.000 A 
ATOM      9  C   UNL     1      49.939   2.486  17.398  0.00  0.00    +0.000 A 
BRANCH   8  10
ATOM     10  C   UNL     1      52.006   1.027  17.418  0.00  0.00    +0.000 C 
BRANCH  10  11
ATOM     11  C   UNL     1      53.469   1.122  17.839  0.00  0.00    +0.000 C 
ATOM     12  C   UNL     1      54.550   0.968  16.753  0.00  0.00    +0.000 C 
ATOM     13  N   UNL     1      55.199  -0.086  17.542  0.00  0.00    +0.000 NA
ATOM     14  C   UNL     1      54.047  -0.170  18.446  0.00  0.00    +0.000 C 
ATOM     15  H   UNL     1      56.062   0.211  17.998  0.00  0.00    +0.000 HD
ENDBRANCH  10  11
ENDBRANCH   8  10
ENDBRANCH   1   4
BRANCH   1  16
ATOM     16  C   UNL     1      47.299   4.424  16.224  0.00  0.00    +0.000 C 
BRANCH  16  21
ATOM     17  C   UNL     1      45.383   4.452  11.568  0.00  0.00    +0.000 A 
ATOM     18  C   UNL     1      45.928   5.496  12.299  0.00  0.00    +0.000 A 
ATOM     19  C   UNL     1      46.589   5.201  13.486  0.00  0.00    +0.000 A 
ATOM     20  C   UNL     1      46.667   3.882  13.930  0.00  0.00    +0.000 A 
ATOM     21  N   UNL     1      47.360   3.510  15.075  0.00  0.00    +0.000 N 
ATOM     22  N   UNL     1      46.112   2.872  13.230  0.00  0.00    +0.000 NA
ATOM     23  C   UNL     1      45.474   3.168  12.069  0.00  0.00    +0.000 A 
ATOM     24  H   UNL     1      47.151   2.533  15.277  0.00  0.00    +0.000 HD
BRANCH  17  26
ATOM     25  C   UNL     1      44.331   3.127   9.377  0.00  0.00    +0.000 C 
ATOM     26  S   UNL     1      44.579   4.752  10.033  0.00  0.00    +0.000 S 
ATOM     27  O   UNL     1      45.526   5.443   9.179  0.00  0.00    +0.000 OA
ATOM     28  O   UNL     1      43.285   5.332  10.325  0.00  0.00    +0.000 OA
ENDBRANCH  17  26
ENDBRANCH  16  21
ENDBRANCH   1  16
TORSDOF 6
ENDMDL
MODEL 6
REMARK VINA RESULT:    -6.414      5.394      7.396
REMARK INTER + INTRA:          -9.559
REMARK INTER:                  -8.601
REMARK INTRA:                  -0.958
REMARK UNBOUND:                -0.896
REMARK  Name = 
REMARK  7 active torsions:
REMARK  status: ('A' for Active; 'I' for Inactive)
REMARK    1  A    between atoms: C_1  and  S_2
REMARK    2  A    between atoms: S_2  and  C_5
REMARK    3  A    between atoms: N_9  and  C_10
REMARK    4  A    between atoms: C_10  and  C_11
REMARK    5  A    between atoms: C_11  and  C_14
REMARK    6  A    between atoms: C_18  and  C_19
REMARK    7  A    between atoms: C_19  and  C_20
REMARK                            x       y       z     vdW  Elec       q    Type
REMARK                         _______ _______ _______ _____ _____    ______ ____
ROOT
ATOM      1  C   UNL     1      49.632   8.669  15.910  0.00  0.00    +0.000 C 
ATOM      2  F   UNL     1      50.867   8.182  15.592  0.00  0.00    +0.000 F 
ATOM      3  F   UNL     1      49.808   9.999  16.150  0.00  0.00    +0.000 F 
ENDROOT
BRANCH   1   4
ATOM      4  C   UNL     1      49.001   7.946  17.090  0.00  0.00    +0.000 A 
ATOM      5  C   UNL     1      48.130   8.629  17.952  0.00  0.00    +0.000 A 
ATOM      6  C   UNL     1      47.430   7.936  18.937  0.00  0.00    +0.000 A 
ATOM      7  C   UNL     1      47.595   6.558  19.074  0.00  0.00    +0.000 A 
ATOM      8  C   UNL     1      48.480   5.859  18.242  0.00  0.00    +0.000 A 
ATOM      9  C   UNL     1      49.183   6.564  17.255  0.00  0.00    +0.000 A 
BRANCH   8  10
ATOM     10  C   UNL     1      48.655   4.366  18.393  0.00  0.00    +0.000 C 
BRANCH  10  11
ATOM     11  C   UNL     1      49.186   3.747  17.105  0.00  0.00    +0.000 C 
ATOM     12  C   UNL     1      48.280   2.762  16.342  0.00  0.00    +0.000 C 
ATOM     13  N   UNL     1      49.353   1.761  16.350  0.00  0.00    +0.000 NA
ATOM     14  C   UNL     1      50.131   2.549  17.312  0.00  0.00    +0.000 C 
ATOM     15  H   UNL     1      49.812   1.640  15.447  0.00  0.00    +0.000 HD
ENDBRANCH  10  11
ENDBRANCH   8  10
ENDBRANCH   1   4
BRANCH   1  16
ATOM     16  C   UNL     1      48.691   8.482  14.692  0.00  0.00    +0.000 C 
BRANCH  16  21
ATOM     17  C   UNL     1      45.231   5.236  13.005  0.00  0.00    +0.000 A 
ATOM     18  C   UNL     1      45.270   6.617  12.886  0.00  0.00    +0.000 A 
ATOM     19  C   UNL     1      46.438   7.281  13.248  0.00  0.00    +0.000 A 
ATOM     20  C   UNL     1      47.523   6.560  13.744  0.00  0.00    +0.000 A 
ATOM     21  N   UNL     1      48.738   7.151  14.069  0.00  0.00    +0.000 N 
ATOM     22  N   UNL     1      47.471   5.219  13.883  0.00  0.00    +0.000 NA
ATOM     23  C   UNL     1      46.330   4.579  13.522  0.00  0.00    +0.000 A 
ATOM     24  H   UNL     1      49.316   6.461  14.547  0.00  0.00    +0.000 HD
BRANCH  17  26
ATOM     25  C   UNL     1      43.710   4.628  10.773  0.00  0.00    +0.000 C 
ATOM     26  S   UNL     1      43.803   4.333  12.517  0.00  0.00    +0.000 S 
ATOM     27  O   UNL     1      42.658   4.966  13.142  0.00  0.00    +0.000 OA
ATOM     28  O   UNL     1      44.082   2.928  12.731  0.00  0.00    +0.000 OA
ENDBRANCH  17  26
ENDBRANCH  16  21
ENDBRANCH   1  16
TORSDOF 6
ENDMDL
MODEL 7
REMARK VINA RESULT:    -6.038      6.681      8.824
REMARK INTER + INTRA:          -9.051
REMARK INTER:                  -8.330
REMARK INTRA:                  -0.721
REMARK UNBOUND:                -0.896
REMARK  Name = 
REMARK  7 active torsions:
REMARK  status: ('A' for Active; 'I' for Inactive)
REMARK    1  A    between atoms: C_1  and  S_2
REMARK    2  A    between atoms: S_2  and  C_5
REMARK    3  A    between atoms: N_9  and  C_10
REMARK    4  A    between atoms: C_10  and  C_11
REMARK    5  A    between atoms: C_11  and  C_14
REMARK    6  A    between atoms: C_18  and  C_19
REMARK    7  A    between atoms: C_19  and  C_20
REMARK                            x       y       z     vdW  Elec       q    Type
REMARK                         _______ _______ _______ _____ _____    ______ ____
ROOT
ATOM      1  C   UNL     1      47.478   4.126  15.705  0.00  0.00    +0.000 C 
ATOM      2  F   UNL     1      47.478   2.953  15.006  0.00  0.00    +0.000 F 
ATOM      3  F   UNL     1      46.326   4.121  16.435  0.00  0.00    +0.000 F 
ENDROOT
BRANCH   1   4
ATOM      4  C   UNL     1      47.589   5.347  14.805  0.00  0.00    +0.000 A 
ATOM      5  C   UNL     1      48.515   6.358  15.100  0.00  0.00    +0.000 A 
ATOM      6  C   UNL     1      48.731   7.398  14.199  0.00  0.00    +0.000 A 
ATOM      7  C   UNL     1      48.022   7.442  12.999  0.00  0.00    +0.000 A 
ATOM      8  C   UNL     1      47.072   6.457  12.695  0.00  0.00    +0.000 A 
ATOM      9  C   UNL     1      46.859   5.415  13.608  0.00  0.00    +0.000 A 
BRANCH   8  10
ATOM     10  C   UNL     1      46.307   6.507  11.393  0.00  0.00    +0.000 C 
BRANCH  10  11
ATOM     11  C   UNL     1      45.243   5.417  11.344  0.00  0.00    +0.000 C 
ATOM     12  C   UNL     1      44.943   4.752   9.988  0.00  0.00    +0.000 C 
ATOM     13  N   UNL     1      43.516   5.055  10.150  0.00  0.00    +0.000 NA
ATOM     14  C   UNL     1      43.794   5.936  11.288  0.00  0.00    +0.000 C 
ATOM     15  H   UNL     1      42.945   4.243  10.384  0.00  0.00    +0.000 HD
ENDBRANCH  10  11
ENDBRANCH   8  10
ENDBRANCH   1   4
BRANCH   1  16
ATOM     16  C   UNL     1      48.698   4.139  16.661  0.00  0.00    +0.000 C 
BRANCH  16  21
ATOM     17  C   UNL     1      53.034   1.921  17.938  0.00  0.00    +0.000 A 
ATOM     18  C   UNL     1      52.632   3.234  18.127  0.00  0.00    +0.000 A 
ATOM     19  C   UNL     1      51.302   3.562  17.881  0.00  0.00    +0.000 A 
ATOM     20  C   UNL     1      50.417   2.585  17.428  0.00  0.00    +0.000 A 
ATOM     21  N   UNL     1      49.065   2.830  17.219  0.00  0.00    +0.000 N 
ATOM     22  N   UNL     1      50.819   1.315  17.220  0.00  0.00    +0.000 NA
ATOM     23  C   UNL     1      52.116   1.002  17.469  0.00  0.00    +0.000 A 
ATOM     24  H   UNL     1      48.659   2.021  16.750  0.00  0.00    +0.000 HD
BRANCH  17  26
ATOM     25  C   UNL     1      55.577   2.961  18.276  0.00  0.00    +0.000 C 
ATOM     26  S   UNL     1      54.688   1.430  18.280  0.00  0.00    +0.000 S 
ATOM     27  O   UNL     1      55.145   0.641  17.152  0.00  0.00    +0.000 OA
ATOM     28  O   UNL     1      54.713   0.888  19.622  0.00  0.00    +0.000 OA
ENDBRANCH  17  26
ENDBRANCH  16  21
ENDBRANCH   1  16
TORSDOF 6
ENDMDL
MODEL 8
REMARK VINA RESULT:    -5.628      5.529      6.784
REMARK INTER + INTRA:          -8.498
REMARK INTER:                  -7.744
REMARK INTRA:                  -0.754
REMARK UNBOUND:                -0.896
REMARK  Name = 
REMARK  7 active torsions:
REMARK  status: ('A' for Active; 'I' for Inactive)
REMARK    1  A    between atoms: C_1  and  S_2
REMARK    2  A    between atoms: S_2  and  C_5
REMARK    3  A    between atoms: N_9  and  C_10
REMARK    4  A    between atoms: C_10  and  C_11
REMARK    5  A    between atoms: C_11  and  C_14
REMARK    6  A    between atoms: C_18  and  C_19
REMARK    7  A    between atoms: C_19  and  C_20
REMARK                            x       y       z     vdW  Elec       q    Type
REMARK                         _______ _______ _______ _____ _____    ______ ____
ROOT
ATOM      1  C   UNL     1      47.638   3.921  17.332  0.00  0.00    +0.000 C 
ATOM      2  F   UNL     1      46.509   4.603  17.684  0.00  0.00    +0.000 F 
ATOM      3  F   UNL     1      47.337   2.601  17.486  0.00  0.00    +0.000 F 
ENDROOT
BRANCH   1   4
ATOM      4  C   UNL     1      48.854   4.338  18.145  0.00  0.00    +0.000 A 
ATOM      5  C   UNL     1      48.733   4.577  19.522  0.00  0.00    +0.000 A 
ATOM      6  C   UNL     1      49.867   4.804  20.298  0.00  0.00    +0.000 A 
ATOM      7  C   UNL     1      51.130   4.801  19.707  0.00  0.00    +0.000 A 
ATOM      8  C   UNL     1      51.274   4.591  18.329  0.00  0.00    +0.000 A 
ATOM      9  C   UNL     1      50.127   4.365  17.554  0.00  0.00    +0.000 A 
BRANCH   8  10
ATOM     10  C   UNL     1      52.644   4.586  17.693  0.00  0.00    +0.000 C 
BRANCH  10  11
ATOM     11  C   UNL     1      53.102   6.005  17.373  0.00  0.00    +0.000 C 
ATOM     12  C   UNL     1      53.857   6.247  16.053  0.00  0.00    +0.000 C 
ATOM     13  N   UNL     1      54.949   6.892  16.790  0.00  0.00    +0.000 NA
ATOM     14  C   UNL     1      54.406   6.430  18.072  0.00  0.00    +0.000 C 
ATOM     15  H   UNL     1      54.971   7.907  16.692  0.00  0.00    +0.000 HD
ENDBRANCH  10  11
ENDBRANCH   8  10
ENDBRANCH   1   4
BRANCH   1  16
ATOM     16  C   UNL     1      47.954   4.210  15.841  0.00  0.00    +0.000 C 
BRANCH  16  21
ATOM     17  C   UNL     1      45.466   4.600  11.481  0.00  0.00    +0.000 A 
ATOM     18  C   UNL     1      45.592   3.507  12.325  0.00  0.00    +0.000 A 
ATOM     19  C   UNL     1      46.153   3.701  13.583  0.00  0.00    +0.000 A 
ATOM     20  C   UNL     1      46.599   4.968  13.957  0.00  0.00    +0.000 A 
ATOM     21  N   UNL     1      47.116   5.244  15.218  0.00  0.00    +0.000 N 
ATOM     22  N   UNL     1      46.500   6.022  13.123  0.00  0.00    +0.000 NA
ATOM     23  C   UNL     1      45.945   5.825  11.900  0.00  0.00    +0.000 A 
ATOM     24  H   UNL     1      47.510   6.184  15.206  0.00  0.00    +0.000 HD
BRANCH  17  26
ATOM     25  C   UNL     1      44.699   2.679   9.640  0.00  0.00    +0.000 C 
ATOM     26  S   UNL     1      44.719   4.431   9.898  0.00  0.00    +0.000 S 
ATOM     27  O   UNL     1      45.624   5.019   8.930  0.00  0.00    +0.000 OA
ATOM     28  O   UNL     1      43.351   4.894  10.010  0.00  0.00    +0.000 OA
ENDBRANCH  17  26
ENDBRANCH  16  21
ENDBRANCH   1  16
TORSDOF 6
ENDMDL
MODEL 9
REMARK VINA RESULT:    -5.342      4.901      5.955
REMARK INTER + INTRA:          -8.111
REMARK INTER:                  -7.555
REMARK INTRA:                  -0.556
REMARK UNBOUND:                -0.896
REMARK  Name = 
REMARK  7 active torsions:
REMARK  status: ('A' for Active; 'I' for Inactive)
REMARK    1  A    between atoms: C_1  and  S_2
REMARK    2  A    between atoms: S_2  and  C_5
REMARK    3  A    between atoms: N_9  and  C_10
REMARK    4  A    between atoms: C_10  and  C_11
REMARK    5  A    between atoms: C_11  and  C_14
REMARK    6  A    between atoms: C_18  and  C_19
REMARK    7  A    between atoms: C_19  and  C_20
REMARK                            x       y       z     vdW  Elec       q    Type
REMARK                         _______ _______ _______ _____ _____    ______ ____
ROOT
ATOM      1  C   UNL     1      47.666   3.682  17.216  0.00  0.00    +0.000 C 
ATOM      2  F   UNL     1      46.308   3.613  17.342  0.00  0.00    +0.000 F 
ATOM      3  F   UNL     1      48.119   2.408  17.391  0.00  0.00    +0.000 F 
ENDROOT
BRANCH   1   4
ATOM      4  C   UNL     1      48.298   4.662  18.192  0.00  0.00    +0.000 A 
ATOM      5  C   UNL     1      48.725   4.223  19.455  0.00  0.00    +0.000 A 
ATOM      6  C   UNL     1      49.444   5.077  20.288  0.00  0.00    +0.000 A 
ATOM      7  C   UNL     1      49.738   6.375  19.873  0.00  0.00    +0.000 A 
ATOM      8  C   UNL     1      49.298   6.844  18.628  0.00  0.00    +0.000 A 
ATOM      9  C   UNL     1      48.573   5.980  17.796  0.00  0.00    +0.000 A 
BRANCH   8  10
ATOM     10  C   UNL     1      49.621   8.251  18.182  0.00  0.00    +0.000 C 
BRANCH  10  11
ATOM     11  C   UNL     1      48.352   9.006  17.801  0.00  0.00    +0.000 C 
ATOM     12  C   UNL     1      48.443  10.532  17.607  0.00  0.00    +0.000 C 
ATOM     13  N   UNL     1      47.342  10.723  18.558  0.00  0.00    +0.000 NA
ATOM     14  C   UNL     1      47.415   9.321  18.982  0.00  0.00    +0.000 C 
ATOM     15  H   UNL     1      46.457  10.977  18.120  0.00  0.00    +0.000 HD
ENDBRANCH  10  11
ENDBRANCH   8  10
ENDBRANCH   1   4
BRANCH   1  16
ATOM     16  C   UNL     1      48.012   4.163  15.783  0.00  0.00    +0.000 C 
BRANCH  16  21
ATOM     17  C   UNL     1      45.497   4.585  11.442  0.00  0.00    +0.000 A 
ATOM     18  C   UNL     1      45.722   3.460  12.219  0.00  0.00    +0.000 A 
ATOM     19  C   UNL     1      46.264   3.628  13.489  0.00  0.00    +0.000 A 
ATOM     20  C   UNL     1      46.593   4.905  13.941  0.00  0.00    +0.000 A 
ATOM     21  N   UNL     1      47.082   5.151  15.218  0.00  0.00    +0.000 N 
ATOM     22  N   UNL     1      46.397   5.995  13.171  0.00  0.00    +0.000 NA
ATOM     23  C   UNL     1      45.862   5.822  11.936  0.00  0.00    +0.000 A 
ATOM     24  H   UNL     1      47.389   6.122  15.265  0.00  0.00    +0.000 HD
BRANCH  17  26
ATOM     25  C   UNL     1      44.816   2.703   9.529  0.00  0.00    +0.000 C 
ATOM     26  S   UNL     1      44.768   4.444   9.847  0.00  0.00    +0.000 S 
ATOM     27  O   UNL     1      45.657   5.099   8.908  0.00  0.00    +0.000 OA
ATOM     28  O   UNL     1      43.383   4.852   9.964  0.00  0.00    +0.000 OA
ENDBRANCH  17  26
ENDBRANCH  16  21
ENDBRANCH   1  16
TORSDOF 6
ENDMDL
