MODEL 1
REMARK VINA RESULT:    -9.037      0.000      0.000
REMARK INTER + INTRA:         -12.568
REMARK INTER:                 -11.679
REMARK INTRA:                  -0.890
REMARK UNBOUND:                -0.890
REMARK  Name = 
REMARK  5 active torsions:
REMARK  status: ('A' for Active; 'I' for Inactive)
REMARK    1  A    between atoms: C_2  and  C_4
REMARK    2  A    between atoms: C_7  and  N_8
REMARK    3  A    between atoms: N_8  and  C_9
REMARK    4  A    between atoms: C_9  and  C_10
REMARK    5  A    between atoms: C_14  and  C_15
REMARK                            x       y       z     vdW  Elec       q    Type
REMARK                         _______ _______ _______ _____ _____    ______ ____
ROOT
ATOM      1  C   UNL     1      43.485   4.805  11.337  0.00  0.00    +0.000 C 
ENDROOT
BRANCH   1   2
ATOM      2  C   UNL     1      44.755   5.088  12.119  0.00  0.00    +0.000 A 
ATOM      3  C   UNL     1      45.287   4.104  12.950  0.00  0.00    +0.000 A 
ATOM      4  C   UNL     1      46.476   4.361  13.615  0.00  0.00    +0.000 A 
ATOM      5  C   UNL     1      47.112   5.582  13.416  0.00  0.00    +0.000 A 
ATOM      6  C   UNL     1      46.554   6.516  12.543  0.00  0.00    +0.000 A 
ATOM      7  N   UNL     1      45.370   6.283  11.916  0.00  0.00    +0.000 NA
BRANCH   6   8
ATOM      8  C   UNL     1      47.200   7.802  12.222  0.00  0.00    +0.000 A 
ATOM      9  C   UNL     1      48.523   7.848  11.735  0.00  0.00    +0.000 A 
ATOM     10  C   UNL     1      49.151   9.061  11.424  0.00  0.00    +0.000 A 
ATOM     11  C   UNL     1      48.468  10.261  11.598  0.00  0.00    +0.000 A 
ATOM     12  C   UNL     1      47.172  10.238  12.090  0.00  0.00    +0.000 A 
ATOM     13  F   UNL     1      46.517  11.393  12.269  0.00  0.00    +0.000 F 
ATOM     14  C   UNL     1      46.547   9.033  12.403  0.00  0.00    +0.000 A 
ATOM     15  F   UNL     1      45.302   9.079  12.907  0.00  0.00    +0.000 F 
ENDBRANCH   6   8
ENDBRANCH   1   2
BRANCH   1  16
ATOM     16  N   UNL     1      43.746   4.814   9.901  0.00  0.00    +0.000 N 
ATOM     17  H   UNL     1      43.736   5.749   9.498  0.00  0.00    +0.000 HD
BRANCH  16  21
ATOM     18  C   UNL     1      46.373   2.290   7.780  0.00  0.00    +0.000 A 
ATOM     19  C   UNL     1      45.465   1.732   8.682  0.00  0.00    +0.000 A 
ATOM     20  C   UNL     1      44.613   2.560   9.423  0.00  0.00    +0.000 A 
ATOM     21  C   UNL     1      44.657   3.954   9.300  0.00  0.00    +0.000 A 
ATOM     22  C   UNL     1      45.583   4.496   8.396  0.00  0.00    +0.000 A 
ATOM     23  C   UNL     1      46.440   3.678   7.649  0.00  0.00    +0.000 A 
BRANCH  18  25
ATOM     24  N   UNL     1      48.373   2.065   6.406  0.00  0.00    +0.000 N 
ATOM     25  C   UNL     1      47.287   1.449   6.970  0.00  0.00    +0.000 C 
ATOM     26  O   UNL     1      47.107   0.245   6.834  0.00  0.00    +0.000 OA
ATOM     27  H   UNL     1      49.038   1.458   5.944  0.00  0.00    +0.000 HD
ATOM     28  H   UNL     1      48.698   2.970   6.712  0.00  0.00    +0.000 HD
ENDBRANCH  18  25
ENDBRANCH  16  21
ENDBRANCH   1  16
TORSDOF 5
ENDMDL
MODEL 2
REMARK VINA RESULT:    -8.372      2.510      4.088
REMARK INTER + INTRA:         -11.708
REMARK INTER:                 -11.235
REMARK INTRA:                  -0.474
REMARK UNBOUND:                -0.890
REMARK  Name = 
REMARK  5 active torsions:
REMARK  status: ('A' for Active; 'I' for Inactive)
REMARK    1  A    between atoms: C_2  and  C_4
REMARK    2  A    between atoms: C_7  and  N_8
REMARK    3  A    between atoms: N_8  and  C_9
REMARK    4  A    between atoms: C_9  and  C_10
REMARK    5  A    between atoms: C_14  and  C_15
REMARK                            x       y       z     vdW  Elec       q    Type
REMARK                         _______ _______ _______ _____ _____    ______ ____
ROOT
ATOM      1  C   UNL     1      44.095   4.905  11.625  0.00  0.00    +0.000 C 
ENDROOT
BRANCH   1   2
ATOM      2  C   UNL     1      45.436   5.452  12.079  0.00  0.00    +0.000 A 
ATOM      3  C   UNL     1      46.058   6.456  11.338  0.00  0.00    +0.000 A 
ATOM      4  C   UNL     1      47.256   6.980  11.796  0.00  0.00    +0.000 A 
ATOM      5  C   UNL     1      47.790   6.506  12.989  0.00  0.00    +0.000 A 
ATOM      6  C   UNL     1      47.106   5.527  13.710  0.00  0.00    +0.000 A 
ATOM      7  N   UNL     1      45.948   4.984  13.247  0.00  0.00    +0.000 NA
BRANCH   6   8
ATOM      8  C   UNL     1      47.566   5.022  15.017  0.00  0.00    +0.000 A 
ATOM      9  C   UNL     1      47.275   3.705  15.429  0.00  0.00    +0.000 A 
ATOM     10  C   UNL     1      47.704   3.209  16.666  0.00  0.00    +0.000 A 
ATOM     11  C   UNL     1      48.434   4.025  17.526  0.00  0.00    +0.000 A 
ATOM     12  C   UNL     1      48.718   5.328  17.145  0.00  0.00    +0.000 A 
ATOM     13  F   UNL     1      49.412   6.119  17.976  0.00  0.00    +0.000 F 
ATOM     14  C   UNL     1      48.289   5.824  15.916  0.00  0.00    +0.000 A 
ATOM     15  F   UNL     1      48.567   7.104  15.620  0.00  0.00    +0.000 F 
ENDBRANCH   6   8
ENDBRANCH   1   2
BRANCH   1  16
ATOM     16  N   UNL     1      43.995   4.916  10.168  0.00  0.00    +0.000 N 
ATOM     17  H   UNL     1      43.939   5.854   9.778  0.00  0.00    +0.000 HD
BRANCH  16  21
ATOM     18  C   UNL     1      46.244   2.082   8.005  0.00  0.00    +0.000 A 
ATOM     19  C   UNL     1      46.382   3.438   7.707  0.00  0.00    +0.000 A 
ATOM     20  C   UNL     1      45.613   4.389   8.389  0.00  0.00    +0.000 A 
ATOM     21  C   UNL     1      44.681   4.014   9.364  0.00  0.00    +0.000 A 
ATOM     22  C   UNL     1      44.550   2.646   9.642  0.00  0.00    +0.000 A 
ATOM     23  C   UNL     1      45.313   1.685   8.967  0.00  0.00    +0.000 A 
BRANCH  18  25
ATOM     24  N   UNL     1      46.786  -0.264   7.629  0.00  0.00    +0.000 N 
ATOM     25  C   UNL     1      47.044   1.043   7.313  0.00  0.00    +0.000 C 
ATOM     26  O   UNL     1      47.880   1.331   6.464  0.00  0.00    +0.000 OA
ATOM     27  H   UNL     1      47.268  -0.960   7.073  0.00  0.00    +0.000 HD
ATOM     28  H   UNL     1      45.942  -0.547   8.104  0.00  0.00    +0.000 HD
ENDBRANCH  18  25
ENDBRANCH  16  21
ENDBRANCH   1  16
TORSDOF 5
ENDMDL
MODEL 3
REMARK VINA RESULT:    -8.092      1.731      2.368
REMARK INTER + INTRA:         -11.348
REMARK INTER:                 -10.930
REMARK INTRA:                  -0.417
REMARK UNBOUND:                -0.890
REMARK  Name = 
REMARK  5 active torsions:
REMARK  status: ('A' for Active; 'I' for Inactive)
REMARK    1  A    between atoms: C_2  and  C_4
REMARK    2  A    between atoms: C_7  and  N_8
REMARK    3  A    between atoms: N_8  and  C_9
REMARK    4  A    between atoms: C_9  and  C_10
REMARK    5  A    between atoms: C_14  and  C_15
REMARK                            x       y       z     vdW  Elec       q    Type
REMARK                         _______ _______ _______ _____ _____    ______ ____
ROOT
ATOM      1  C   UNL     1      44.093   3.804  11.975  0.00  0.00    +0.000 C 
ENDROOT
BRANCH   1   2
ATOM      2  C   UNL     1      45.024   4.923  12.405  0.00  0.00    +0.000 A 
ATOM      3  C   UNL     1      46.201   4.617  13.086  0.00  0.00    +0.000 A 
ATOM      4  C   UNL     1      47.065   5.648  13.424  0.00  0.00    +0.000 A 
ATOM      5  C   UNL     1      46.742   6.949  13.056  0.00  0.00    +0.000 A 
ATOM      6  C   UNL     1      45.569   7.194  12.343  0.00  0.00    +0.000 A 
ATOM      7  N   UNL     1      44.701   6.191  12.040  0.00  0.00    +0.000 NA
BRANCH   6   8
ATOM      8  C   UNL     1      45.189   8.532  11.854  0.00  0.00    +0.000 A 
ATOM      9  C   UNL     1      46.005   9.655  12.103  0.00  0.00    +0.000 A 
ATOM     10  C   UNL     1      45.660  10.932  11.646  0.00  0.00    +0.000 A 
ATOM     11  C   UNL     1      44.482  11.118  10.929  0.00  0.00    +0.000 A 
ATOM     12  C   UNL     1      43.657  10.029  10.687  0.00  0.00    +0.000 A 
ATOM     13  F   UNL     1      42.517  10.208  10.005  0.00  0.00    +0.000 F 
ATOM     14  C   UNL     1      43.998   8.758  11.144  0.00  0.00    +0.000 A 
ATOM     15  F   UNL     1      43.142   7.751  10.906  0.00  0.00    +0.000 F 
ENDBRANCH   6   8
ENDBRANCH   1   2
BRANCH   1  16
ATOM     16  N   UNL     1      43.733   3.941  10.566  0.00  0.00    +0.000 N 
ATOM     17  H   UNL     1      43.203   4.787  10.368  0.00  0.00    +0.000 HD
BRANCH  16  21
ATOM     18  C   UNL     1      46.524   2.664   7.676  0.00  0.00    +0.000 A 
ATOM     19  C   UNL     1      46.228   4.023   7.789  0.00  0.00    +0.000 A 
ATOM     20  C   UNL     1      45.274   4.459   8.717  0.00  0.00    +0.000 A 
ATOM     21  C   UNL     1      44.583   3.558   9.536  0.00  0.00    +0.000 A 
ATOM     22  C   UNL     1      44.888   2.195   9.400  0.00  0.00    +0.000 A 
ATOM     23  C   UNL     1      45.840   1.746   8.477  0.00  0.00    +0.000 A 
BRANCH  18  25
ATOM     24  N   UNL     1      47.857   2.973   5.660  0.00  0.00    +0.000 N 
ATOM     25  C   UNL     1      47.533   2.160   6.713  0.00  0.00    +0.000 C 
ATOM     26  O   UNL     1      48.086   1.077   6.864  0.00  0.00    +0.000 OA
ATOM     27  H   UNL     1      48.619   2.658   5.073  0.00  0.00    +0.000 HD
ATOM     28  H   UNL     1      47.635   3.958   5.651  0.00  0.00    +0.000 HD
ENDBRANCH  18  25
ENDBRANCH  16  21
ENDBRANCH   1  16
TORSDOF 5
ENDMDL
MODEL 4
REMARK VINA RESULT:    -7.939      2.788      4.218
REMARK INTER + INTRA:         -11.149
REMARK INTER:                 -10.746
REMARK INTRA:                  -0.403
REMARK UNBOUND:                -0.890
REMARK  Name = 
REMARK  5 active torsions:
REMARK  status: ('A' for Active; 'I' for Inactive)
REMARK    1  A    between atoms: C_2  and  C_4
REMARK    2  A    between atoms: C_7  and  N_8
REMARK    3  A    between atoms: N_8  and  C_9
REMARK    4  A    between atoms: C_9  and  C_10
REMARK    5  A    between atoms: C_14  and  C_15
REMARK                            x       y       z     vdW  Elec       q    Type
REMARK                         _______ _______ _______ _____ _____    ______ ____
ROOT
ATOM      1  C   UNL     1      44.239   4.940  11.690  0.00  0.00    +0.000 C 
ENDROOT
BRANCH   1   2
ATOM      2  C   UNL     1      45.549   5.558  12.142  0.00  0.00    +0.000 A 
ATOM      3  C   UNL     1      46.110   6.600  11.406  0.00  0.00    +0.000 A 
ATOM      4  C   UNL     1      47.280   7.188  11.864  0.00  0.00    +0.000 A 
ATOM      5  C   UNL     1      47.844   6.736  13.052  0.00  0.00    +0.000 A 
ATOM      6  C   UNL     1      47.219   5.715  13.767  0.00  0.00    +0.000 A 
ATOM      7  N   UNL     1      46.092   5.111  13.305  0.00  0.00    +0.000 NA
BRANCH   6   8
ATOM      8  C   UNL     1      47.712   5.227  15.069  0.00  0.00    +0.000 A 
ATOM      9  C   UNL     1      48.303   6.109  15.998  0.00  0.00    +0.000 A 
ATOM     10  C   UNL     1      48.776   5.663  17.238  0.00  0.00    +0.000 A 
ATOM     11  C   UNL     1      48.672   4.317  17.578  0.00  0.00    +0.000 A 
ATOM     12  C   UNL     1      48.107   3.431  16.672  0.00  0.00    +0.000 A 
ATOM     13  F   UNL     1      48.016   2.133  16.993  0.00  0.00    +0.000 F 
ATOM     14  C   UNL     1      47.640   3.873  15.436  0.00  0.00    +0.000 A 
ATOM     15  F   UNL     1      47.134   2.960  14.590  0.00  0.00    +0.000 F 
ENDBRANCH   6   8
ENDBRANCH   1   2
BRANCH   1  16
ATOM     16  N   UNL     1      44.155   4.909  10.232  0.00  0.00    +0.000 N 
ATOM     17  H   UNL     1      43.983   5.823   9.821  0.00  0.00    +0.000 HD
BRANCH  16  21
ATOM     18  C   UNL     1      46.420   2.516   7.602  0.00  0.00    +0.000 A 
ATOM     19  C   UNL     1      45.650   1.905   8.592  0.00  0.00    +0.000 A 
ATOM     20  C   UNL     1      44.923   2.687   9.499  0.00  0.00    +0.000 A 
ATOM     21  C   UNL     1      44.960   4.086   9.454  0.00  0.00    +0.000 A 
ATOM     22  C   UNL     1      45.749   4.681   8.458  0.00  0.00    +0.000 A 
ATOM     23  C   UNL     1      46.479   3.910   7.545  0.00  0.00    +0.000 A 
BRANCH  18  25
ATOM     24  N   UNL     1      48.011   2.417   5.759  0.00  0.00    +0.000 N 
ATOM     25  C   UNL     1      47.198   1.726   6.618  0.00  0.00    +0.000 C 
ATOM     26  O   UNL     1      47.150   0.502   6.590  0.00  0.00    +0.000 OA
ATOM     27  H   UNL     1      48.610   1.856   5.166  0.00  0.00    +0.000 HD
ATOM     28  H   UNL     1      48.281   3.375   5.926  0.00  0.00    +0.000 HD
ENDBRANCH  18  25
ENDBRANCH  16  21
ENDBRANCH   1  16
TORSDOF 5
ENDMDL
MODEL 5
REMARK VINA RESULT:    -7.894      1.992      2.142
REMARK INTER + INTRA:         -11.091
REMARK INTER:                 -10.523
REMARK INTRA:                  -0.568
REMARK UNBOUND:                -0.890
REMARK  Name = 
REMARK  5 active torsions:
REMARK  status: ('A' for Active; 'I' for Inactive)
REMARK    1  A    between atoms: C_2  and  C_4
REMARK    2  A    between atoms: C_7  and  N_8
REMARK    3  A    between atoms: N_8  and  C_9
REMARK    4  A    between atoms: C_9  and  C_10
REMARK    5  A    between atoms: C_14  and  C_15
REMARK                            x       y       z     vdW  Elec       q    Type
REMARK                         _______ _______ _______ _____ _____    ______ ____
ROOT
ATOM      1  C   UNL     1      44.223   5.779  10.964  0.00  0.00    +0.000 C 
ENDROOT
BRANCH   1   2
ATOM      2  C   UNL     1      45.271   5.572  12.042  0.00  0.00    +0.000 A 
ATOM      3  C   UNL     1      45.119   4.534  12.960  0.00  0.00    +0.000 A 
ATOM      4  C   UNL     1      46.112   4.327  13.905  0.00  0.00    +0.000 A 
ATOM      5  C   UNL     1      47.237   5.143  13.894  0.00  0.00    +0.000 A 
ATOM      6  C   UNL     1      47.355   6.143  12.929  0.00  0.00    +0.000 A 
ATOM      7  N   UNL     1      46.367   6.374  12.022  0.00  0.00    +0.000 NA
BRANCH   6   8
ATOM      8  C   UNL     1      48.545   7.004  12.803  0.00  0.00    +0.000 A 
ATOM      9  C   UNL     1      48.969   7.478  11.544  0.00  0.00    +0.000 A 
ATOM     10  C   UNL     1      50.097   8.296  11.407  0.00  0.00    +0.000 A 
ATOM     11  C   UNL     1      50.833   8.659  12.532  0.00  0.00    +0.000 A 
ATOM     12  C   UNL     1      50.441   8.190  13.777  0.00  0.00    +0.000 A 
ATOM     13  F   UNL     1      51.155   8.529  14.860  0.00  0.00    +0.000 F 
ATOM     14  C   UNL     1      49.321   7.373  13.914  0.00  0.00    +0.000 A 
ATOM     15  F   UNL     1      49.014   6.925  15.143  0.00  0.00    +0.000 F 
ENDBRANCH   6   8
ENDBRANCH   1   2
BRANCH   1  16
ATOM     16  N   UNL     1      43.945   4.530  10.262  0.00  0.00    +0.000 N 
ATOM     17  H   UNL     1      42.993   4.472   9.908  0.00  0.00    +0.000 HD
BRANCH  16  21
ATOM     18  C   UNL     1      46.615   2.731   7.540  0.00  0.00    +0.000 A 
ATOM     19  C   UNL     1      45.888   1.928   8.418  0.00  0.00    +0.000 A 
ATOM     20  C   UNL     1      45.026   2.512   9.355  0.00  0.00    +0.000 A 
ATOM     21  C   UNL     1      44.884   3.901   9.452  0.00  0.00    +0.000 A 
ATOM     22  C   UNL     1      45.632   4.692   8.568  0.00  0.00    +0.000 A 
ATOM     23  C   UNL     1      46.496   4.120   7.626  0.00  0.00    +0.000 A 
BRANCH  18  25
ATOM     24  N   UNL     1      47.786   2.902   5.410  0.00  0.00    +0.000 N 
ATOM     25  C   UNL     1      47.532   2.154   6.528  0.00  0.00    +0.000 C 
ATOM     26  O   UNL     1      48.074   1.067   6.693  0.00  0.00    +0.000 OA
ATOM     27  H   UNL     1      48.491   2.538   4.781  0.00  0.00    +0.000 HD
ATOM     28  H   UNL     1      47.583   3.890   5.365  0.00  0.00    +0.000 HD
ENDBRANCH  18  25
ENDBRANCH  16  21
ENDBRANCH   1  16
TORSDOF 5
ENDMDL
MODEL 6
REMARK VINA RESULT:    -7.803      3.977      7.436
REMARK INTER + INTRA:         -10.974
REMARK INTER:                 -10.472
REMARK INTRA:                  -0.502
REMARK UNBOUND:                -0.890
REMARK  Name = 
REMARK  5 active torsions:
REMARK  status: ('A' for Active; 'I' for Inactive)
REMARK    1  A    between atoms: C_2  and  C_4
REMARK    2  A    between atoms: C_7  and  N_8
REMARK    3  A    between atoms: N_8  and  C_9
REMARK    4  A    between atoms: C_9  and  C_10
REMARK    5  A    between atoms: C_14  and  C_15
REMARK                            x       y       z     vdW  Elec       q    Type
REMARK                         _______ _______ _______ _____ _____    ______ ____
ROOT
ATOM      1  C   UNL     1      46.151   7.426  11.993  0.00  0.00    +0.000 C 
ENDROOT
BRANCH   1   2
ATOM      2  C   UNL     1      45.233   6.391  11.370  0.00  0.00    +0.000 A 
ATOM      3  C   UNL     1      43.871   6.413  11.661  0.00  0.00    +0.000 A 
ATOM      4  C   UNL     1      43.039   5.492  11.042  0.00  0.00    +0.000 A 
ATOM      5  C   UNL     1      43.585   4.592  10.134  0.00  0.00    +0.000 A 
ATOM      6  C   UNL     1      44.950   4.639   9.851  0.00  0.00    +0.000 A 
ATOM      7  N   UNL     1      45.776   5.516  10.483  0.00  0.00    +0.000 NA
BRANCH   6   8
ATOM      8  C   UNL     1      45.595   3.769   8.851  0.00  0.00    +0.000 A 
ATOM      9  C   UNL     1      46.291   4.317   7.753  0.00  0.00    +0.000 A 
ATOM     10  C   UNL     1      46.909   3.505   6.794  0.00  0.00    +0.000 A 
ATOM     11  C   UNL     1      46.842   2.120   6.909  0.00  0.00    +0.000 A 
ATOM     12  C   UNL     1      46.149   1.561   7.973  0.00  0.00    +0.000 A 
ATOM     13  F   UNL     1      46.074   0.227   8.079  0.00  0.00    +0.000 F 
ATOM     14  C   UNL     1      45.531   2.367   8.926  0.00  0.00    +0.000 A 
ATOM     15  F   UNL     1      44.848   1.766   9.914  0.00  0.00    +0.000 F 
ENDBRANCH   6   8
ENDBRANCH   1   2
BRANCH   1  16
ATOM     16  N   UNL     1      47.421   6.824  12.389  0.00  0.00    +0.000 N 
ATOM     17  H   UNL     1      48.227   7.398  12.153  0.00  0.00    +0.000 HD
BRANCH  16  21
ATOM     18  C   UNL     1      47.554   4.699  16.028  0.00  0.00    +0.000 A 
ATOM     19  C   UNL     1      48.346   5.836  15.869  0.00  0.00    +0.000 A 
ATOM     20  C   UNL     1      48.344   6.531  14.653  0.00  0.00    +0.000 A 
ATOM     21  C   UNL     1      47.572   6.102  13.567  0.00  0.00    +0.000 A 
ATOM     22  C   UNL     1      46.790   4.950  13.742  0.00  0.00    +0.000 A 
ATOM     23  C   UNL     1      46.784   4.248  14.954  0.00  0.00    +0.000 A 
BRANCH  18  25
ATOM     24  N   UNL     1      48.281   4.415  18.336  0.00  0.00    +0.000 N 
ATOM     25  C   UNL     1      47.521   3.939  17.300  0.00  0.00    +0.000 C 
ATOM     26  O   UNL     1      46.818   2.946  17.442  0.00  0.00    +0.000 OA
ATOM     27  H   UNL     1      48.167   3.943  19.224  0.00  0.00    +0.000 HD
ATOM     28  H   UNL     1      48.648   5.355  18.348  0.00  0.00    +0.000 HD
ENDBRANCH  18  25
ENDBRANCH  16  21
ENDBRANCH   1  16
TORSDOF 5
ENDMDL
MODEL 7
REMARK VINA RESULT:    -7.792      1.975      2.725
REMARK INTER + INTRA:         -10.959
REMARK INTER:                 -10.181
REMARK INTRA:                  -0.779
REMARK UNBOUND:                -0.890
REMARK  Name = 
REMARK  5 active torsions:
REMARK  status: ('A' for Active; 'I' for Inactive)
REMARK    1  A    between atoms: C_2  and  C_4
REMARK    2  A    between atoms: C_7  and  N_8
REMARK    3  A    between atoms: N_8  and  C_9
REMARK    4  A    between atoms: C_9  and  C_10
REMARK    5  A    between atoms: C_14  and  C_15
REMARK                            x       y       z     vdW  Elec       q    Type
REMARK                         _______ _______ _______ _____ _____    ______ ____
ROOT
ATOM      1  C   UNL     1      43.964   5.216  11.338  0.00  0.00    +0.000 C 
ENDROOT
BRANCH   1   2
ATOM      2  C   UNL     1      44.671   6.544  11.536  0.00  0.00    +0.000 A 
ATOM      3  C   UNL     1      44.020   7.729  11.200  0.00  0.00    +0.000 A 
ATOM      4  C   UNL     1      44.661   8.936  11.436  0.00  0.00    +0.000 A 
ATOM      5  C   UNL     1      45.922   8.927  12.021  0.00  0.00    +0.000 A 
ATOM      6  C   UNL     1      46.512   7.714  12.372  0.00  0.00    +0.000 A 
ATOM      7  N   UNL     1      45.903   6.526  12.109  0.00  0.00    +0.000 NA
BRANCH   6   8
ATOM      8  C   UNL     1      47.814   7.621  13.059  0.00  0.00    +0.000 A 
ATOM      9  C   UNL     1      47.898   7.187  14.399  0.00  0.00    +0.000 A 
ATOM     10  C   UNL     1      49.125   7.092  15.066  0.00  0.00    +0.000 A 
ATOM     11  C   UNL     1      50.302   7.436  14.407  0.00  0.00    +0.000 A 
ATOM     12  C   UNL     1      50.239   7.879  13.094  0.00  0.00    +0.000 A 
ATOM     13  F   UNL     1      51.371   8.221  12.462  0.00  0.00    +0.000 F 
ATOM     14  C   UNL     1      49.018   7.977  12.430  0.00  0.00    +0.000 A 
ATOM     15  F   UNL     1      49.021   8.445  11.171  0.00  0.00    +0.000 F 
ENDBRANCH   6   8
ENDBRANCH   1   2
BRANCH   1  16
ATOM     16  N   UNL     1      43.877   4.879   9.920  0.00  0.00    +0.000 N 
ATOM     17  H   UNL     1      43.591   5.663   9.339  0.00  0.00    +0.000 HD
BRANCH  16  21
ATOM     18  C   UNL     1      46.452   2.349   7.743  0.00  0.00    +0.000 A 
ATOM     19  C   UNL     1      45.589   1.797   8.690  0.00  0.00    +0.000 A 
ATOM     20  C   UNL     1      44.756   2.628   9.450  0.00  0.00    +0.000 A 
ATOM     21  C   UNL     1      44.775   4.019   9.299  0.00  0.00    +0.000 A 
ATOM     22  C   UNL     1      45.657   4.556   8.349  0.00  0.00    +0.000 A 
ATOM     23  C   UNL     1      46.495   3.736   7.583  0.00  0.00    +0.000 A 
BRANCH  18  25
ATOM     24  N   UNL     1      48.480   2.090   6.416  0.00  0.00    +0.000 N 
ATOM     25  C   UNL     1      47.345   1.505   6.913  0.00  0.00    +0.000 C 
ATOM     26  O   UNL     1      47.105   0.322   6.703  0.00  0.00    +0.000 OA
ATOM     27  H   UNL     1      49.126   1.473   5.940  0.00  0.00    +0.000 HD
ATOM     28  H   UNL     1      48.843   2.957   6.782  0.00  0.00    +0.000 HD
ENDBRANCH  18  25
ENDBRANCH  16  21
ENDBRANCH   1  16
TORSDOF 5
ENDMDL
MODEL 8
REMARK VINA RESULT:    -7.279      3.993      7.109
REMARK INTER + INTRA:         -10.297
REMARK INTER:                  -9.887
REMARK INTRA:                  -0.410
REMARK UNBOUND:                -0.890
REMARK  Name = 
REMARK  5 active torsions:
REMARK  status: ('A' for Active; 'I' for Inactive)
REMARK    1  A    between atoms: C_2  and  C_4
REMARK    2  A    between atoms: C_7  and  N_8
REMARK    3  A    between atoms: N_8  and  C_9
REMARK    4  A    between atoms: C_9  and  C_10
REMARK    5  A    between atoms: C_14  and  C_15
REMARK                            x       y       z     vdW  Elec       q    Type
REMARK                         _______ _______ _______ _____ _____    ______ ____
ROOT
ATOM      1  C   UNL     1      44.103   6.618  11.421  0.00  0.00    +0.000 C 
ENDROOT
BRANCH   1   2
ATOM      2  C   UNL     1      44.132   5.137  11.092  0.00  0.00    +0.000 A 
ATOM      3  C   UNL     1      43.317   4.257  11.801  0.00  0.00    +0.000 A 
ATOM      4  C   UNL     1      43.317   2.915  11.451  0.00  0.00    +0.000 A 
ATOM      5  C   UNL     1      44.113   2.493  10.392  0.00  0.00    +0.000 A 
ATOM      6  C   UNL     1      44.881   3.423   9.693  0.00  0.00    +0.000 A 
ATOM      7  N   UNL     1      44.911   4.734  10.054  0.00  0.00    +0.000 NA
BRANCH   6   8
ATOM      8  C   UNL     1      45.696   3.071   8.515  0.00  0.00    +0.000 A 
ATOM      9  C   UNL     1      46.225   4.071   7.673  0.00  0.00    +0.000 A 
ATOM     10  C   UNL     1      47.000   3.755   6.551  0.00  0.00    +0.000 A 
ATOM     11  C   UNL     1      47.263   2.423   6.241  0.00  0.00    +0.000 A 
ATOM     12  C   UNL     1      46.739   1.424   7.049  0.00  0.00    +0.000 A 
ATOM     13  F   UNL     1      46.981   0.141   6.746  0.00  0.00    +0.000 F 
ATOM     14  C   UNL     1      45.964   1.738   8.163  0.00  0.00    +0.000 A 
ATOM     15  F   UNL     1      45.458   0.724   8.885  0.00  0.00    +0.000 F 
ENDBRANCH   6   8
ENDBRANCH   1   2
BRANCH   1  16
ATOM     16  N   UNL     1      44.784   6.883  12.685  0.00  0.00    +0.000 N 
ATOM     17  H   UNL     1      44.434   6.317  13.455  0.00  0.00    +0.000 HD
BRANCH  16  21
ATOM     18  C   UNL     1      48.900   7.788  12.586  0.00  0.00    +0.000 A 
ATOM     19  C   UNL     1      48.492   6.478  12.839  0.00  0.00    +0.000 A 
ATOM     20  C   UNL     1      47.128   6.168  12.915  0.00  0.00    +0.000 A 
ATOM     21  C   UNL     1      46.145   7.152  12.760  0.00  0.00    +0.000 A 
ATOM     22  C   UNL     1      46.575   8.465  12.517  0.00  0.00    +0.000 A 
ATOM     23  C   UNL     1      47.936   8.787  12.439  0.00  0.00    +0.000 A 
BRANCH  18  25
ATOM     24  N   UNL     1      50.827   8.442  11.246  0.00  0.00    +0.000 N 
ATOM     25  C   UNL     1      50.333   8.157  12.491  0.00  0.00    +0.000 C 
ATOM     26  O   UNL     1      51.046   8.241  13.484  0.00  0.00    +0.000 OA
ATOM     27  H   UNL     1      51.777   8.790  11.213  0.00  0.00    +0.000 HD
ATOM     28  H   UNL     1      50.226   8.647  10.462  0.00  0.00    +0.000 HD
ENDBRANCH  18  25
ENDBRANCH  16  21
ENDBRANCH   1  16
TORSDOF 5
ENDMDL
MODEL 9
REMARK VINA RESULT:    -7.070      3.538      6.783
REMARK INTER + INTRA:         -10.027
REMARK INTER:                  -9.128
REMARK INTRA:                  -0.899
REMARK UNBOUND:                -0.890
REMARK  Name = 
REMARK  5 active torsions:
REMARK  status: ('A' for Active; 'I' for Inactive)
REMARK    1  A    between atoms: C_2  and  C_4
REMARK    2  A    between atoms: C_7  and  N_8
REMARK    3  A    between atoms: N_8  and  C_9
REMARK    4  A    between atoms: C_9  and  C_10
REMARK    5  A    between atoms: C_14  and  C_15
REMARK                            x       y       z     vdW  Elec       q    Type
REMARK                         _______ _______ _______ _____ _____    ______ ____
ROOT
ATOM      1  C   UNL     1      46.108   4.705  13.858  0.00  0.00    +0.000 C 
ENDROOT
BRANCH   1   2
ATOM      2  C   UNL     1      45.124   4.473  12.727  0.00  0.00    +0.000 A 
ATOM      3  C   UNL     1      43.809   4.917  12.855  0.00  0.00    +0.000 A 
ATOM      4  C   UNL     1      42.937   4.744  11.791  0.00  0.00    +0.000 A 
ATOM      5  C   UNL     1      43.406   4.154  10.622  0.00  0.00    +0.000 A 
ATOM      6  C   UNL     1      44.742   3.763  10.535  0.00  0.00    +0.000 A 
ATOM      7  N   UNL     1      45.592   3.898  11.588  0.00  0.00    +0.000 NA
BRANCH   6   8
ATOM      8  C   UNL     1      45.336   3.196   9.310  0.00  0.00    +0.000 A 
ATOM      9  C   UNL     1      45.438   1.800   9.131  0.00  0.00    +0.000 A 
ATOM     10  C   UNL     1      45.998   1.245   7.974  0.00  0.00    +0.000 A 
ATOM     11  C   UNL     1      46.475   2.077   6.965  0.00  0.00    +0.000 A 
ATOM     12  C   UNL     1      46.398   3.453   7.129  0.00  0.00    +0.000 A 
ATOM     13  F   UNL     1      46.867   4.256   6.163  0.00  0.00    +0.000 F 
ATOM     14  C   UNL     1      45.844   4.006   8.281  0.00  0.00    +0.000 A 
ATOM     15  F   UNL     1      45.828   5.345   8.393  0.00  0.00    +0.000 F 
ENDBRANCH   6   8
ENDBRANCH   1   2
BRANCH   1  16
ATOM     16  N   UNL     1      46.392   6.129  14.017  0.00  0.00    +0.000 N 
ATOM     17  H   UNL     1      46.129   6.490  14.931  0.00  0.00    +0.000 HD
BRANCH  16  21
ATOM     18  C   UNL     1      49.874   7.672  12.210  0.00  0.00    +0.000 A 
ATOM     19  C   UNL     1      49.842   7.491  13.593  0.00  0.00    +0.000 A 
ATOM     20  C   UNL     1      48.679   7.017  14.213  0.00  0.00    +0.000 A 
ATOM     21  C   UNL     1      47.523   6.731  13.479  0.00  0.00    +0.000 A 
ATOM     22  C   UNL     1      47.571   6.930  12.091  0.00  0.00    +0.000 A 
ATOM     23  C   UNL     1      48.727   7.403  11.460  0.00  0.00    +0.000 A 
BRANCH  18  25
ATOM     24  N   UNL     1      51.751   7.280  10.707  0.00  0.00    +0.000 N 
ATOM     25  C   UNL     1      51.086   8.165  11.513  0.00  0.00    +0.000 C 
ATOM     26  O   UNL     1      51.466   9.326  11.619  0.00  0.00    +0.000 OA
ATOM     27  H   UNL     1      52.514   7.661  10.162  0.00  0.00    +0.000 HD
ATOM     28  H   UNL     1      51.329   6.422  10.386  0.00  0.00    +0.000 HD
ENDBRANCH  18  25
ENDBRANCH  16  21
ENDBRANCH   1  16
TORSDOF 5
ENDMDL
