MODEL 1
REMARK VINA RESULT:    -7.732      0.000      0.000
REMARK INTER + INTRA:         -11.761
REMARK INTER:                 -10.896
REMARK INTRA:                  -0.865
REMARK UNBOUND:                -0.865
REMARK  Name = 
REMARK  8 active torsions:
REMARK  status: ('A' for Active; 'I' for Inactive)
REMARK    1  A    between atoms: C_1  and  O_2
REMARK    2  A    between atoms: O_2  and  C_3
REMARK    3  A    between atoms: C_8  and  C_9
REMARK    4  A    between atoms: N_11  and  C_12
REMARK    5  A    between atoms: C_12  and  C_13
REMARK    6  A    between atoms: C_16  and  C_17
REMARK    7  A    between atoms: C_17  and  N_18
REMARK    8  A    between atoms: C_19  and  C_21
REMARK                            x       y       z     vdW  Elec       q    Type
REMARK                         _______ _______ _______ _____ _____    ______ ____
ROOT
ATOM      1  C   UNL     1      45.929   4.247  13.008  0.00  0.00    +0.000 A 
ATOM      2  C   UNL     1      46.285   5.536  12.590  0.00  0.00    +0.000 A 
ATOM      3  C   UNL     1      47.116   6.341  13.379  0.00  0.00    +0.000 A 
ATOM      4  C   UNL     1      47.625   5.866  14.594  0.00  0.00    +0.000 A 
ATOM      5  C   UNL     1      47.256   4.583  15.020  0.00  0.00    +0.000 A 
ATOM      6  C   UNL     1      46.426   3.780  14.232  0.00  0.00    +0.000 A 
ENDROOT
BRANCH   1   7
ATOM      7  C   UNL     1      45.046   3.373  12.152  0.00  0.00    +0.000 C 
BRANCH   7  10
ATOM      8  C   UNL     1      44.928   2.504   9.839  0.00  0.00    +0.000 C 
ATOM      9  O   UNL     1      43.757   2.164   9.970  0.00  0.00    +0.000 OA
ATOM     10  N   UNL     1      45.638   3.099  10.868  0.00  0.00    +0.000 N 
ATOM     11  H   UNL     1      46.608   3.337  10.679  0.00  0.00    +0.000 HD
BRANCH   8  17
ATOM     12  C   UNL     1      45.971   3.345   7.653  0.00  0.00    +0.000 A 
ATOM     13  C   UNL     1      46.730   3.026   6.521  0.00  0.00    +0.000 A 
ATOM     14  C   UNL     1      47.204   1.729   6.334  0.00  0.00    +0.000 A 
ATOM     15  C   UNL     1      46.910   0.772   7.291  0.00  0.00    +0.000 A 
ATOM     16  N   UNL     1      46.189   1.028   8.399  0.00  0.00    +0.000 NA
ATOM     17  C   UNL     1      45.731   2.312   8.570  0.00  0.00    +0.000 A 
BRANCH  12  19
ATOM     18  C   UNL     1      46.332   5.435   8.731  0.00  0.00    +0.000 C 
ATOM     19  O   UNL     1      45.514   4.606   7.914  0.00  0.00    +0.000 OA
ENDBRANCH  12  19
ENDBRANCH   8  17
ENDBRANCH   7  10
ENDBRANCH   1   7
BRANCH   4  20
ATOM     20  C   UNL     1      48.513   6.730  15.456  0.00  0.00    +0.000 C 
BRANCH  20  21
ATOM     21  N   UNL     1      49.603   5.963  16.002  0.00  0.00    +0.000 N 
ATOM     22  C   UNL     1      49.704   5.692  17.341  0.00  0.00    +0.000 C 
ATOM     23  O   UNL     1      48.843   6.035  18.146  0.00  0.00    +0.000 OA
ATOM     24  H   UNL     1      50.429   5.882  15.418  0.00  0.00    +0.000 HD
BRANCH  22  25
ATOM     25  C   UNL     1      50.873   4.903  17.756  0.00  0.00    +0.000 A 
ATOM     26  C   UNL     1      51.952   5.527  18.365  0.00  0.00    +0.000 A 
ATOM     27  S   UNL     1      53.180   4.448  18.855  0.00  0.00    +0.000 S 
ATOM     28  C   UNL     1      52.338   3.114  18.218  0.00  0.00    +0.000 A 
ATOM     29  N   UNL     1      52.853   1.857  18.295  0.00  0.00    +0.000 NA
ATOM     30  C   UNL     1      52.122   0.946  17.743  0.00  0.00    +0.000 A 
ATOM     31  N   UNL     1      50.923   1.177  17.122  0.00  0.00    +0.000 N 
ATOM     32  C   UNL     1      50.356   2.426  17.035  0.00  0.00    +0.000 A 
ATOM     33  O   UNL     1      49.272   2.593  16.487  0.00  0.00    +0.000 OA
ATOM     34  C   UNL     1      51.135   3.486  17.645  0.00  0.00    +0.000 A 
ATOM     35  H   UNL     1      50.398   0.421  16.709  0.00  0.00    +0.000 HD
ENDBRANCH  22  25
ENDBRANCH  20  21
ENDBRANCH   4  20
TORSDOF 7
ENDMDL
MODEL 2
REMARK VINA RESULT:    -7.420      2.179      3.687
REMARK INTER + INTRA:         -11.321
REMARK INTER:                 -10.214
REMARK INTRA:                  -1.107
REMARK UNBOUND:                -0.865
REMARK  Name = 
REMARK  8 active torsions:
REMARK  status: ('A' for Active; 'I' for Inactive)
REMARK    1  A    between atoms: C_1  and  O_2
REMARK    2  A    between atoms: O_2  and  C_3
REMARK    3  A    between atoms: C_8  and  C_9
REMARK    4  A    between atoms: N_11  and  C_12
REMARK    5  A    between atoms: C_12  and  C_13
REMARK    6  A    between atoms: C_16  and  C_17
REMARK    7  A    between atoms: C_17  and  N_18
REMARK    8  A    between atoms: C_19  and  C_21
REMARK                            x       y       z     vdW  Elec       q    Type
REMARK                         _______ _______ _______ _____ _____    ______ ____
ROOT
ATOM      1  C   UNL     1      47.477   5.688  14.452  0.00  0.00    +0.000 A 
ATOM      2  C   UNL     1      46.887   4.442  14.698  0.00  0.00    +0.000 A 
ATOM      3  C   UNL     1      47.172   3.733  15.872  0.00  0.00    +0.000 A 
ATOM      4  C   UNL     1      48.038   4.266  16.835  0.00  0.00    +0.000 A 
ATOM      5  C   UNL     1      48.642   5.505  16.582  0.00  0.00    +0.000 A 
ATOM      6  C   UNL     1      48.357   6.212  15.409  0.00  0.00    +0.000 A 
ENDROOT
BRANCH   1   7
ATOM      7  C   UNL     1      47.160   6.460  13.196  0.00  0.00    +0.000 C 
BRANCH   7  10
ATOM      8  C   UNL     1      45.828   6.028  11.157  0.00  0.00    +0.000 C 
ATOM      9  O   UNL     1      45.362   7.162  11.156  0.00  0.00    +0.000 OA
ATOM     10  N   UNL     1      46.715   5.599  12.130  0.00  0.00    +0.000 N 
ATOM     11  H   UNL     1      47.041   4.640  12.063  0.00  0.00    +0.000 HD
BRANCH   8  17
ATOM     12  C   UNL     1      44.739   3.826  10.419  0.00  0.00    +0.000 A 
ATOM     13  C   UNL     1      44.505   2.932   9.368  0.00  0.00    +0.000 A 
ATOM     14  C   UNL     1      45.020   3.188   8.098  0.00  0.00    +0.000 A 
ATOM     15  C   UNL     1      45.760   4.343   7.904  0.00  0.00    +0.000 A 
ATOM     16  N   UNL     1      46.010   5.237   8.880  0.00  0.00    +0.000 NA
ATOM     17  C   UNL     1      45.494   4.972  10.124  0.00  0.00    +0.000 A 
BRANCH  12  19
ATOM     18  C   UNL     1      43.323   2.571  11.861  0.00  0.00    +0.000 C 
ATOM     19  O   UNL     1      44.228   3.653  11.674  0.00  0.00    +0.000 OA
ENDBRANCH  12  19
ENDBRANCH   8  17
ENDBRANCH   7  10
ENDBRANCH   1   7
BRANCH   4  20
ATOM     20  C   UNL     1      48.360   3.505  18.097  0.00  0.00    +0.000 C 
BRANCH  20  21
ATOM     21  N   UNL     1      49.774   3.249  18.198  0.00  0.00    +0.000 N 
ATOM     22  C   UNL     1      50.410   2.348  17.385  0.00  0.00    +0.000 C 
ATOM     23  O   UNL     1      49.826   1.749  16.486  0.00  0.00    +0.000 OA
ATOM     24  H   UNL     1      50.220   3.534  19.063  0.00  0.00    +0.000 HD
BRANCH  22  25
ATOM     25  C   UNL     1      51.855   2.186  17.603  0.00  0.00    +0.000 A 
ATOM     26  C   UNL     1      52.400   0.916  17.729  0.00  0.00    +0.000 A 
ATOM     27  S   UNL     1      54.099   0.914  17.892  0.00  0.00    +0.000 S 
ATOM     28  C   UNL     1      54.159   2.615  17.860  0.00  0.00    +0.000 A 
ATOM     29  N   UNL     1      55.342   3.278  17.969  0.00  0.00    +0.000 NA
ATOM     30  C   UNL     1      55.235   4.565  17.960  0.00  0.00    +0.000 A 
ATOM     31  N   UNL     1      54.054   5.249  17.852  0.00  0.00    +0.000 N 
ATOM     32  C   UNL     1      52.838   4.623  17.722  0.00  0.00    +0.000 A 
ATOM     33  O   UNL     1      51.801   5.269  17.609  0.00  0.00    +0.000 OA
ATOM     34  C   UNL     1      52.902   3.175  17.721  0.00  0.00    +0.000 A 
ATOM     35  H   UNL     1      54.037   6.258  17.851  0.00  0.00    +0.000 HD
ENDBRANCH  22  25
ENDBRANCH  20  21
ENDBRANCH   4  20
TORSDOF 7
ENDMDL
MODEL 3
REMARK VINA RESULT:    -7.408      4.081     10.005
REMARK INTER + INTRA:         -11.304
REMARK INTER:                 -10.143
REMARK INTRA:                  -1.161
REMARK UNBOUND:                -0.865
REMARK  Name = 
REMARK  8 active torsions:
REMARK  status: ('A' for Active; 'I' for Inactive)
REMARK    1  A    between atoms: C_1  and  O_2
REMARK    2  A    between atoms: O_2  and  C_3
REMARK    3  A    between atoms: C_8  and  C_9
REMARK    4  A    between atoms: N_11  and  C_12
REMARK    5  A    between atoms: C_12  and  C_13
REMARK    6  A    between atoms: C_16  and  C_17
REMARK    7  A    between atoms: C_17  and  N_18
REMARK    8  A    between atoms: C_19  and  C_21
REMARK                            x       y       z     vdW  Elec       q    Type
REMARK                         _______ _______ _______ _____ _____    ______ ____
ROOT
ATOM      1  C   UNL     1      51.442   2.917  17.743  0.00  0.00    +0.000 A 
ATOM      2  C   UNL     1      50.812   4.098  18.157  0.00  0.00    +0.000 A 
ATOM      3  C   UNL     1      49.445   4.299  17.928  0.00  0.00    +0.000 A 
ATOM      4  C   UNL     1      48.675   3.314  17.297  0.00  0.00    +0.000 A 
ATOM      5  C   UNL     1      49.308   2.140  16.868  0.00  0.00    +0.000 A 
ATOM      6  C   UNL     1      50.673   1.940  17.097  0.00  0.00    +0.000 A 
ENDROOT
BRANCH   1   7
ATOM      7  C   UNL     1      52.911   2.692  18.002  0.00  0.00    +0.000 C 
BRANCH   7  10
ATOM      8  C   UNL     1      54.477   0.911  17.301  0.00  0.00    +0.000 C 
ATOM      9  O   UNL     1      55.290   1.721  16.869  0.00  0.00    +0.000 OA
ATOM     10  N   UNL     1      53.277   1.305  17.868  0.00  0.00    +0.000 N 
ATOM     11  H   UNL     1      52.656   0.568  18.188  0.00  0.00    +0.000 HD
BRANCH   8  17
ATOM     12  C   UNL     1      54.666  -1.394  18.412  0.00  0.00    +0.000 A 
ATOM     13  C   UNL     1      54.859  -2.767  18.229  0.00  0.00    +0.000 A 
ATOM     14  C   UNL     1      55.056  -3.286  16.950  0.00  0.00    +0.000 A 
ATOM     15  C   UNL     1      55.053  -2.415  15.874  0.00  0.00    +0.000 A 
ATOM     16  N   UNL     1      54.868  -1.086  15.995  0.00  0.00    +0.000 NA
ATOM     17  C   UNL     1      54.672  -0.591  17.261  0.00  0.00    +0.000 A 
BRANCH  12  19
ATOM     18  C   UNL     1      55.486  -0.870  20.583  0.00  0.00    +0.000 C 
ATOM     19  O   UNL     1      54.427  -0.829  19.633  0.00  0.00    +0.000 OA
ENDBRANCH  12  19
ENDBRANCH   8  17
ENDBRANCH   7  10
ENDBRANCH   1   7
BRANCH   4  20
ATOM     20  C   UNL     1      47.203   3.526  17.037  0.00  0.00    +0.000 C 
BRANCH  20  21
ATOM     21  N   UNL     1      47.001   4.533  16.027  0.00  0.00    +0.000 N 
ATOM     22  C   UNL     1      47.064   4.245  14.689  0.00  0.00    +0.000 C 
ATOM     23  O   UNL     1      47.239   3.104  14.271  0.00  0.00    +0.000 OA
ATOM     24  H   UNL     1      47.097   5.497  16.330  0.00  0.00    +0.000 HD
BRANCH  22  25
ATOM     25  C   UNL     1      46.842   5.373  13.772  0.00  0.00    +0.000 A 
ATOM     26  C   UNL     1      47.865   6.276  13.520  0.00  0.00    +0.000 A 
ATOM     27  S   UNL     1      47.458   7.469  12.370  0.00  0.00    +0.000 S 
ATOM     28  C   UNL     1      45.878   6.855  12.212  0.00  0.00    +0.000 A 
ATOM     29  N   UNL     1      44.980   7.437  11.371  0.00  0.00    +0.000 NA
ATOM     30  C   UNL     1      43.812   6.886  11.374  0.00  0.00    +0.000 A 
ATOM     31  N   UNL     1      43.460   5.806  12.141  0.00  0.00    +0.000 N 
ATOM     32  C   UNL     1      44.337   5.176  12.991  0.00  0.00    +0.000 A 
ATOM     33  O   UNL     1      43.993   4.200  13.648  0.00  0.00    +0.000 OA
ATOM     34  C   UNL     1      45.667   5.753  13.020  0.00  0.00    +0.000 A 
ATOM     35  H   UNL     1      42.529   5.421  12.099  0.00  0.00    +0.000 HD
ENDBRANCH  22  25
ENDBRANCH  20  21
ENDBRANCH   4  20
TORSDOF 7
ENDMDL
MODEL 4
REMARK VINA RESULT:    -7.339      2.909      9.407
REMARK INTER + INTRA:         -11.207
REMARK INTER:                 -10.020
REMARK INTRA:                  -1.187
REMARK UNBOUND:                -0.865
REMARK  Name = 
REMARK  8 active torsions:
REMARK  status: ('A' for Active; 'I' for Inactive)
REMARK    1  A    between atoms: C_1  and  O_2
REMARK    2  A    between atoms: O_2  and  C_3
REMARK    3  A    between atoms: C_8  and  C_9
REMARK    4  A    between atoms: N_11  and  C_12
REMARK    5  A    between atoms: C_12  and  C_13
REMARK    6  A    between atoms: C_16  and  C_17
REMARK    7  A    between atoms: C_17  and  N_18
REMARK    8  A    between atoms: C_19  and  C_21
REMARK                            x       y       z     vdW  Elec       q    Type
REMARK                         _______ _______ _______ _____ _____    ______ ____
ROOT
ATOM      1  C   UNL     1      50.368   7.453  15.279  0.00  0.00    +0.000 A 
ATOM      2  C   UNL     1      49.033   7.060  15.439  0.00  0.00    +0.000 A 
ATOM      3  C   UNL     1      48.116   7.191  14.389  0.00  0.00    +0.000 A 
ATOM      4  C   UNL     1      48.520   7.699  13.148  0.00  0.00    +0.000 A 
ATOM      5  C   UNL     1      49.852   8.107  12.992  0.00  0.00    +0.000 A 
ATOM      6  C   UNL     1      50.767   7.977  14.042  0.00  0.00    +0.000 A 
ENDROOT
BRANCH   1   7
ATOM      7  C   UNL     1      51.360   7.299  16.404  0.00  0.00    +0.000 C 
BRANCH   7  10
ATOM      8  C   UNL     1      51.151   5.198  17.692  0.00  0.00    +0.000 C 
ATOM      9  O   UNL     1      50.362   5.699  18.485  0.00  0.00    +0.000 OA
ATOM     10  N   UNL     1      51.696   5.918  16.644  0.00  0.00    +0.000 N 
ATOM     11  H   UNL     1      52.353   5.429  16.042  0.00  0.00    +0.000 HD
BRANCH   8  17
ATOM     12  C   UNL     1      50.877   2.681  17.281  0.00  0.00    +0.000 A 
ATOM     13  C   UNL     1      51.440   1.407  17.412  0.00  0.00    +0.000 A 
ATOM     14  C   UNL     1      52.689   1.248  18.009  0.00  0.00    +0.000 A 
ATOM     15  C   UNL     1      53.355   2.374  18.463  0.00  0.00    +0.000 A 
ATOM     16  N   UNL     1      52.860   3.622  18.357  0.00  0.00    +0.000 NA
ATOM     17  C   UNL     1      51.629   3.762  17.764  0.00  0.00    +0.000 A 
BRANCH  12  19
ATOM     18  C   UNL     1      48.509   2.810  17.477  0.00  0.00    +0.000 C 
ATOM     19  O   UNL     1      49.677   2.907  16.669  0.00  0.00    +0.000 OA
ENDBRANCH  12  19
ENDBRANCH   8  17
ENDBRANCH   7  10
ENDBRANCH   1   7
BRANCH   4  20
ATOM     20  C   UNL     1      47.537   7.853  12.014  0.00  0.00    +0.000 C 
BRANCH  20  21
ATOM     21  N   UNL     1      46.838   6.618  11.768  0.00  0.00    +0.000 N 
ATOM     22  C   UNL     1      45.469   6.550  11.739  0.00  0.00    +0.000 C 
ATOM     23  O   UNL     1      44.761   7.544  11.862  0.00  0.00    +0.000 OA
ATOM     24  H   UNL     1      47.372   5.766  11.906  0.00  0.00    +0.000 HD
BRANCH  22  25
ATOM     25  C   UNL     1      44.892   5.222  11.483  0.00  0.00    +0.000 A 
ATOM     26  C   UNL     1      44.167   4.576  12.474  0.00  0.00    +0.000 A 
ATOM     27  S   UNL     1      43.502   3.086  11.975  0.00  0.00    +0.000 S 
ATOM     28  C   UNL     1      44.209   3.224  10.433  0.00  0.00    +0.000 A 
ATOM     29  N   UNL     1      44.039   2.255   9.494  0.00  0.00    +0.000 NA
ATOM     30  C   UNL     1      44.657   2.476   8.381  0.00  0.00    +0.000 A 
ATOM     31  N   UNL     1      45.429   3.577   8.123  0.00  0.00    +0.000 N 
ATOM     32  C   UNL     1      45.616   4.589   9.034  0.00  0.00    +0.000 A 
ATOM     33  O   UNL     1      46.299   5.570   8.761  0.00  0.00    +0.000 OA
ATOM     34  C   UNL     1      44.937   4.393  10.300  0.00  0.00    +0.000 A 
ATOM     35  H   UNL     1      45.887   3.692   7.231  0.00  0.00    +0.000 HD
ENDBRANCH  22  25
ENDBRANCH  20  21
ENDBRANCH   4  20
TORSDOF 7
ENDMDL
MODEL 5
REMARK VINA RESULT:    -7.260      2.067      3.121
REMARK INTER + INTRA:         -11.096
REMARK INTER:                  -9.944
REMARK INTRA:                  -1.152
REMARK UNBOUND:                -0.865
REMARK  Name = 
REMARK  8 active torsions:
REMARK  status: ('A' for Active; 'I' for Inactive)
REMARK    1  A    between atoms: C_1  and  O_2
REMARK    2  A    between atoms: O_2  and  C_3
REMARK    3  A    between atoms: C_8  and  C_9
REMARK    4  A    between atoms: N_11  and  C_12
REMARK    5  A    between atoms: C_12  and  C_13
REMARK    6  A    between atoms: C_16  and  C_17
REMARK    7  A    between atoms: C_17  and  N_18
REMARK    8  A    between atoms: C_19  and  C_21
REMARK                            x       y       z     vdW  Elec       q    Type
REMARK                         _______ _______ _______ _____ _____    ______ ____
ROOT
ATOM      1  C   UNL     1      47.644   6.315  14.021  0.00  0.00    +0.000 A 
ATOM      2  C   UNL     1      47.099   5.131  14.533  0.00  0.00    +0.000 A 
ATOM      3  C   UNL     1      47.516   4.626  15.771  0.00  0.00    +0.000 A 
ATOM      4  C   UNL     1      48.473   5.308  16.533  0.00  0.00    +0.000 A 
ATOM      5  C   UNL     1      49.030   6.484  16.014  0.00  0.00    +0.000 A 
ATOM      6  C   UNL     1      48.613   6.987  14.777  0.00  0.00    +0.000 A 
ENDROOT
BRANCH   1   7
ATOM      7  C   UNL     1      47.185   6.869  12.695  0.00  0.00    +0.000 C 
BRANCH   7  10
ATOM      8  C   UNL     1      45.579   5.940  11.059  0.00  0.00    +0.000 C 
ATOM      9  O   UNL     1      44.850   6.923  11.135  0.00  0.00    +0.000 OA
ATOM     10  N   UNL     1      46.743   5.830  11.799  0.00  0.00    +0.000 N 
ATOM     11  H   UNL     1      47.280   4.975  11.686  0.00  0.00    +0.000 HD
BRANCH   8  17
ATOM     12  C   UNL     1      44.888   3.499  10.679  0.00  0.00    +0.000 A 
ATOM     13  C   UNL     1      44.664   2.479   9.748  0.00  0.00    +0.000 A 
ATOM     14  C   UNL     1      44.858   2.712   8.388  0.00  0.00    +0.000 A 
ATOM     15  C   UNL     1      45.272   3.970   7.984  0.00  0.00    +0.000 A 
ATOM     16  N   UNL     1      45.496   4.988   8.839  0.00  0.00    +0.000 NA
ATOM     17  C   UNL     1      45.298   4.742  10.175  0.00  0.00    +0.000 A 
BRANCH  12  19
ATOM     18  C   UNL     1      43.368   3.629  12.505  0.00  0.00    +0.000 C 
ATOM     19  O   UNL     1      44.676   3.346  12.020  0.00  0.00    +0.000 OA
ENDBRANCH  12  19
ENDBRANCH   8  17
ENDBRANCH   7  10
ENDBRANCH   1   7
BRANCH   4  20
ATOM     20  C   UNL     1      48.936   4.766  17.863  0.00  0.00    +0.000 C 
BRANCH  20  21
ATOM     21  N   UNL     1      50.263   4.215  17.760  0.00  0.00    +0.000 N 
ATOM     22  C   UNL     1      51.158   4.273  18.796  0.00  0.00    +0.000 C 
ATOM     23  O   UNL     1      50.865   4.745  19.890  0.00  0.00    +0.000 OA
ATOM     24  H   UNL     1      50.605   4.047  16.820  0.00  0.00    +0.000 HD
BRANCH  22  25
ATOM     25  C   UNL     1      52.478   3.674  18.546  0.00  0.00    +0.000 A 
ATOM     26  C   UNL     1      53.631   4.381  18.853  0.00  0.00    +0.000 A 
ATOM     27  S   UNL     1      55.067   3.501  18.577  0.00  0.00    +0.000 S 
ATOM     28  C   UNL     1      54.199   2.164  17.982  0.00  0.00    +0.000 A 
ATOM     29  N   UNL     1      54.841   1.044  17.552  0.00  0.00    +0.000 NA
ATOM     30  C   UNL     1      54.060   0.122  17.099  0.00  0.00    +0.000 A 
ATOM     31  N   UNL     1      52.694   0.216  17.036  0.00  0.00    +0.000 N 
ATOM     32  C   UNL     1      52.002   1.319  17.474  0.00  0.00    +0.000 A 
ATOM     33  O   UNL     1      50.777   1.361  17.420  0.00  0.00    +0.000 OA
ATOM     34  C   UNL     1      52.833   2.384  17.999  0.00  0.00    +0.000 A 
ATOM     35  H   UNL     1      52.138  -0.542  16.670  0.00  0.00    +0.000 HD
ENDBRANCH  22  25
ENDBRANCH  20  21
ENDBRANCH   4  20
TORSDOF 7
ENDMDL
MODEL 6
REMARK VINA RESULT:    -7.022      5.933      7.909
REMARK INTER + INTRA:         -10.760
REMARK INTER:                  -9.521
REMARK INTRA:                  -1.239
REMARK UNBOUND:                -0.865
REMARK  Name = 
REMARK  8 active torsions:
REMARK  status: ('A' for Active; 'I' for Inactive)
REMARK    1  A    between atoms: C_1  and  O_2
REMARK    2  A    between atoms: O_2  and  C_3
REMARK    3  A    between atoms: C_8  and  C_9
REMARK    4  A    between atoms: N_11  and  C_12
REMARK    5  A    between atoms: C_12  and  C_13
REMARK    6  A    between atoms: C_16  and  C_17
REMARK    7  A    between atoms: C_17  and  N_18
REMARK    8  A    between atoms: C_19  and  C_21
REMARK                            x       y       z     vdW  Elec       q    Type
REMARK                         _______ _______ _______ _____ _____    ______ ____
ROOT
ATOM      1  C   UNL     1      49.110   7.016  13.908  0.00  0.00    +0.000 A 
ATOM      2  C   UNL     1      49.035   7.047  12.510  0.00  0.00    +0.000 A 
ATOM      3  C   UNL     1      49.954   7.791  11.759  0.00  0.00    +0.000 A 
ATOM      4  C   UNL     1      50.981   8.503  12.391  0.00  0.00    +0.000 A 
ATOM      5  C   UNL     1      51.046   8.486  13.791  0.00  0.00    +0.000 A 
ATOM      6  C   UNL     1      50.128   7.743  14.540  0.00  0.00    +0.000 A 
ENDROOT
BRANCH   1   7
ATOM      7  C   UNL     1      48.130   6.203  14.718  0.00  0.00    +0.000 C 
BRANCH   7  10
ATOM      8  C   UNL     1      46.714   4.567  13.519  0.00  0.00    +0.000 C 
ATOM      9  O   UNL     1      47.495   3.647  13.743  0.00  0.00    +0.000 OA
ATOM     10  N   UNL     1      46.956   5.857  13.958  0.00  0.00    +0.000 N 
ATOM     11  H   UNL     1      46.264   6.562  13.717  0.00  0.00    +0.000 HD
BRANCH   8  17
ATOM     12  C   UNL     1      44.917   5.411  11.896  0.00  0.00    +0.000 A 
ATOM     13  C   UNL     1      43.712   5.136  11.241  0.00  0.00    +0.000 A 
ATOM     14  C   UNL     1      43.058   3.923  11.449  0.00  0.00    +0.000 A 
ATOM     15  C   UNL     1      43.629   3.002  12.311  0.00  0.00    +0.000 A 
ATOM     16  N   UNL     1      44.789   3.215  12.962  0.00  0.00    +0.000 NA
ATOM     17  C   UNL     1      45.422   4.414  12.744  0.00  0.00    +0.000 A 
BRANCH  12  19
ATOM     18  C   UNL     1      44.880   7.750  11.463  0.00  0.00    +0.000 C 
ATOM     19  O   UNL     1      45.627   6.562  11.703  0.00  0.00    +0.000 OA
ENDBRANCH  12  19
ENDBRANCH   8  17
ENDBRANCH   7  10
ENDBRANCH   1   7
BRANCH   4  20
ATOM     20  C   UNL     1      51.969   9.316  11.591  0.00  0.00    +0.000 C 
BRANCH  20  21
ATOM     21  N   UNL     1      52.178   8.735  10.290  0.00  0.00    +0.000 N 
ATOM     22  C   UNL     1      53.271   9.043   9.523  0.00  0.00    +0.000 C 
ATOM     23  O   UNL     1      54.164   9.785   9.921  0.00  0.00    +0.000 OA
ATOM     24  H   UNL     1      51.363   8.325   9.846  0.00  0.00    +0.000 HD
BRANCH  22  25
ATOM     25  C   UNL     1      53.352   8.378   8.213  0.00  0.00    +0.000 A 
ATOM     26  C   UNL     1      53.287   9.128   7.048  0.00  0.00    +0.000 A 
ATOM     27  S   UNL     1      53.481   8.203   5.627  0.00  0.00    +0.000 S 
ATOM     28  C   UNL     1      53.600   6.759   6.518  0.00  0.00    +0.000 A 
ATOM     29  N   UNL     1      53.769   5.561   5.894  0.00  0.00    +0.000 NA
ATOM     30  C   UNL     1      53.813   4.546   6.691  0.00  0.00    +0.000 A 
ATOM     31  N   UNL     1      53.703   4.618   8.055  0.00  0.00    +0.000 N 
ATOM     32  C   UNL     1      53.548   5.806   8.729  0.00  0.00    +0.000 A 
ATOM     33  O   UNL     1      53.472   5.835   9.953  0.00  0.00    +0.000 OA
ATOM     34  C   UNL     1      53.499   6.979   7.880  0.00  0.00    +0.000 A 
ATOM     35  H   UNL     1      53.745   3.786   8.624  0.00  0.00    +0.000 HD
ENDBRANCH  22  25
ENDBRANCH  20  21
ENDBRANCH   4  20
TORSDOF 7
ENDMDL
MODEL 7
REMARK VINA RESULT:    -7.005      2.198      3.495
REMARK INTER + INTRA:         -10.737
REMARK INTER:                  -9.528
REMARK INTRA:                  -1.209
REMARK UNBOUND:                -0.865
REMARK  Name = 
REMARK  8 active torsions:
REMARK  status: ('A' for Active; 'I' for Inactive)
REMARK    1  A    between atoms: C_1  and  O_2
REMARK    2  A    between atoms: O_2  and  C_3
REMARK    3  A    between atoms: C_8  and  C_9
REMARK    4  A    between atoms: N_11  and  C_12
REMARK    5  A    between atoms: C_12  and  C_13
REMARK    6  A    between atoms: C_16  and  C_17
REMARK    7  A    between atoms: C_17  and  N_18
REMARK    8  A    between atoms: C_19  and  C_21
REMARK                            x       y       z     vdW  Elec       q    Type
REMARK                         _______ _______ _______ _____ _____    ______ ____
ROOT
ATOM      1  C   UNL     1      48.228   7.884  13.148  0.00  0.00    +0.000 A 
ATOM      2  C   UNL     1      49.349   7.123  13.506  0.00  0.00    +0.000 A 
ATOM      3  C   UNL     1      49.912   7.233  14.783  0.00  0.00    +0.000 A 
ATOM      4  C   UNL     1      49.353   8.092  15.738  0.00  0.00    +0.000 A 
ATOM      5  C   UNL     1      48.241   8.865  15.375  0.00  0.00    +0.000 A 
ATOM      6  C   UNL     1      47.680   8.754  14.099  0.00  0.00    +0.000 A 
ENDROOT
BRANCH   1   7
ATOM      7  C   UNL     1      47.611   7.755  11.778  0.00  0.00    +0.000 C 
BRANCH   7  10
ATOM      8  C   UNL     1      45.409   6.650  11.551  0.00  0.00    +0.000 C 
ATOM      9  O   UNL     1      44.811   7.720  11.557  0.00  0.00    +0.000 OA
ATOM     10  N   UNL     1      46.787   6.578  11.664  0.00  0.00    +0.000 N 
ATOM     11  H   UNL     1      47.201   5.650  11.664  0.00  0.00    +0.000 HD
BRANCH   8  17
ATOM     12  C   UNL     1      44.824   4.494  10.291  0.00  0.00    +0.000 A 
ATOM     13  C   UNL     1      44.148   3.270  10.320  0.00  0.00    +0.000 A 
ATOM     14  C   UNL     1      43.415   2.897  11.445  0.00  0.00    +0.000 A 
ATOM     15  C   UNL     1      43.376   3.762  12.526  0.00  0.00    +0.000 A 
ATOM     16  N   UNL     1      44.013   4.949  12.551  0.00  0.00    +0.000 NA
ATOM     17  C   UNL     1      44.733   5.300  11.435  0.00  0.00    +0.000 A 
BRANCH  12  19
ATOM     18  C   UNL     1      45.658   4.026   8.112  0.00  0.00    +0.000 C 
ATOM     19  O   UNL     1      45.592   4.898   9.235  0.00  0.00    +0.000 OA
ENDBRANCH  12  19
ENDBRANCH   8  17
ENDBRANCH   7  10
ENDBRANCH   1   7
BRANCH   4  20
ATOM     20  C   UNL     1      49.959   8.225  17.113  0.00  0.00    +0.000 C 
BRANCH  20  21
ATOM     21  N   UNL     1      50.845   7.124  17.393  0.00  0.00    +0.000 N 
ATOM     22  C   UNL     1      50.460   6.058  18.163  0.00  0.00    +0.000 C 
ATOM     23  O   UNL     1      49.322   5.950  18.612  0.00  0.00    +0.000 OA
ATOM     24  H   UNL     1      51.834   7.297  17.248  0.00  0.00    +0.000 HD
BRANCH  22  25
ATOM     25  C   UNL     1      51.470   5.009  18.370  0.00  0.00    +0.000 A 
ATOM     26  C   UNL     1      52.663   5.310  19.012  0.00  0.00    +0.000 A 
ATOM     27  S   UNL     1      53.678   3.958  19.239  0.00  0.00    +0.000 S 
ATOM     28  C   UNL     1      52.584   2.933  18.434  0.00  0.00    +0.000 A 
ATOM     29  N   UNL     1      52.855   1.610  18.266  0.00  0.00    +0.000 NA
ATOM     30  C   UNL     1      51.953   0.959  17.611  0.00  0.00    +0.000 A 
ATOM     31  N   UNL     1      50.803   1.510  17.108  0.00  0.00    +0.000 N 
ATOM     32  C   UNL     1      50.479   2.836  17.268  0.00  0.00    +0.000 A 
ATOM     33  O   UNL     1      49.432   3.291  16.821  0.00  0.00    +0.000 OA
ATOM     34  C   UNL     1      51.458   3.612  18.003  0.00  0.00    +0.000 A 
ATOM     35  H   UNL     1      50.135   0.947  16.604  0.00  0.00    +0.000 HD
ENDBRANCH  22  25
ENDBRANCH  20  21
ENDBRANCH   4  20
TORSDOF 7
ENDMDL
MODEL 8
REMARK VINA RESULT:    -6.987      4.235     10.075
REMARK INTER + INTRA:         -10.711
REMARK INTER:                  -9.495
REMARK INTRA:                  -1.216
REMARK UNBOUND:                -0.865
REMARK  Name = 
REMARK  8 active torsions:
REMARK  status: ('A' for Active; 'I' for Inactive)
REMARK    1  A    between atoms: C_1  and  O_2
REMARK    2  A    between atoms: O_2  and  C_3
REMARK    3  A    between atoms: C_8  and  C_9
REMARK    4  A    between atoms: N_11  and  C_12
REMARK    5  A    between atoms: C_12  and  C_13
REMARK    6  A    between atoms: C_16  and  C_17
REMARK    7  A    between atoms: C_17  and  N_18
REMARK    8  A    between atoms: C_19  and  C_21
REMARK                            x       y       z     vdW  Elec       q    Type
REMARK                         _______ _______ _______ _____ _____    ______ ____
ROOT
ATOM      1  C   UNL     1      51.540   2.916  17.769  0.00  0.00    +0.000 A 
ATOM      2  C   UNL     1      50.776   1.946  17.106  0.00  0.00    +0.000 A 
ATOM      3  C   UNL     1      49.419   2.164  16.838  0.00  0.00    +0.000 A 
ATOM      4  C   UNL     1      48.802   3.366  17.208  0.00  0.00    +0.000 A 
ATOM      5  C   UNL     1      49.562   4.329  17.886  0.00  0.00    +0.000 A 
ATOM      6  C   UNL     1      50.917   4.110  18.154  0.00  0.00    +0.000 A 
ENDROOT
BRANCH   1   7
ATOM      7  C   UNL     1      53.005   2.689  18.045  0.00  0.00    +0.000 C 
BRANCH   7  10
ATOM      8  C   UNL     1      54.558   0.781  18.302  0.00  0.00    +0.000 C 
ATOM      9  O   UNL     1      55.517   1.440  17.913  0.00  0.00    +0.000 OA
ATOM     10  N   UNL     1      53.285   1.319  18.389  0.00  0.00    +0.000 N 
ATOM     11  H   UNL     1      52.546   0.699  18.707  0.00  0.00    +0.000 HD
BRANCH   8  17
ATOM     12  C   UNL     1      54.738  -1.726  17.793  0.00  0.00    +0.000 A 
ATOM     13  C   UNL     1      54.805  -3.023  18.314  0.00  0.00    +0.000 A 
ATOM     14  C   UNL     1      54.763  -3.231  19.691  0.00  0.00    +0.000 A 
ATOM     15  C   UNL     1      54.658  -2.130  20.524  0.00  0.00    +0.000 A 
ATOM     16  N   UNL     1      54.595  -0.862  20.074  0.00  0.00    +0.000 NA
ATOM     17  C   UNL     1      54.640  -0.674  18.715  0.00  0.00    +0.000 A 
BRANCH  12  19
ATOM     18  C   UNL     1      55.018  -2.558  15.581  0.00  0.00    +0.000 C 
ATOM     19  O   UNL     1      54.815  -1.454  16.456  0.00  0.00    +0.000 OA
ENDBRANCH  12  19
ENDBRANCH   8  17
ENDBRANCH   7  10
ENDBRANCH   1   7
BRANCH   4  20
ATOM     20  C   UNL     1      47.338   3.605  16.933  0.00  0.00    +0.000 C 
BRANCH  20  21
ATOM     21  N   UNL     1      47.164   4.571  15.878  0.00  0.00    +0.000 N 
ATOM     22  C   UNL     1      47.165   4.213  14.555  0.00  0.00    +0.000 C 
ATOM     23  O   UNL     1      47.255   3.044  14.193  0.00  0.00    +0.000 OA
ATOM     24  H   UNL     1      47.331   5.540  16.128  0.00  0.00    +0.000 HD
BRANCH  22  25
ATOM     25  C   UNL     1      46.984   5.306  13.589  0.00  0.00    +0.000 A 
ATOM     26  C   UNL     1      45.971   5.235  12.642  0.00  0.00    +0.000 A 
ATOM     27  S   UNL     1      45.855   6.626  11.660  0.00  0.00    +0.000 S 
ATOM     28  C   UNL     1      47.191   7.347  12.427  0.00  0.00    +0.000 A 
ATOM     29  N   UNL     1      47.638   8.576  12.050  0.00  0.00    +0.000 NA
ATOM     30  C   UNL     1      48.678   8.987  12.697  0.00  0.00    +0.000 A 
ATOM     31  N   UNL     1      49.310   8.283  13.687  0.00  0.00    +0.000 N 
ATOM     32  C   UNL     1      48.884   7.048  14.114  0.00  0.00    +0.000 A 
ATOM     33  O   UNL     1      49.464   6.454  15.016  0.00  0.00    +0.000 OA
ATOM     34  C   UNL     1      47.715   6.542  13.423  0.00  0.00    +0.000 A 
ATOM     35  H   UNL     1      50.120   8.659  14.156  0.00  0.00    +0.000 HD
ENDBRANCH  22  25
ENDBRANCH  20  21
ENDBRANCH   4  20
TORSDOF 7
ENDMDL
MODEL 9
REMARK VINA RESULT:    -6.973      3.441      9.393
REMARK INTER + INTRA:         -10.691
REMARK INTER:                  -9.379
REMARK INTRA:                  -1.312
REMARK UNBOUND:                -0.865
REMARK  Name = 
REMARK  8 active torsions:
REMARK  status: ('A' for Active; 'I' for Inactive)
REMARK    1  A    between atoms: C_1  and  O_2
REMARK    2  A    between atoms: O_2  and  C_3
REMARK    3  A    between atoms: C_8  and  C_9
REMARK    4  A    between atoms: N_11  and  C_12
REMARK    5  A    between atoms: C_12  and  C_13
REMARK    6  A    between atoms: C_16  and  C_17
REMARK    7  A    between atoms: C_17  and  N_18
REMARK    8  A    between atoms: C_19  and  C_21
REMARK                            x       y       z     vdW  Elec       q    Type
REMARK                         _______ _______ _______ _____ _____    ______ ____
ROOT
ATOM      1  C   UNL     1      49.077   4.880  17.402  0.00  0.00    +0.000 A 
ATOM      2  C   UNL     1      47.993   4.445  16.628  0.00  0.00    +0.000 A 
ATOM      3  C   UNL     1      47.648   5.107  15.442  0.00  0.00    +0.000 A 
ATOM      4  C   UNL     1      48.394   6.205  14.995  0.00  0.00    +0.000 A 
ATOM      5  C   UNL     1      49.468   6.650  15.778  0.00  0.00    +0.000 A 
ATOM      6  C   UNL     1      49.811   5.989  16.962  0.00  0.00    +0.000 A 
ENDROOT
BRANCH   1   7
ATOM      7  C   UNL     1      49.459   4.160  18.671  0.00  0.00    +0.000 C 
BRANCH   7  10
ATOM      8  C   UNL     1      51.122   2.536  17.823  0.00  0.00    +0.000 C 
ATOM      9  O   UNL     1      50.284   1.951  17.146  0.00  0.00    +0.000 OA
ATOM     10  N   UNL     1      50.797   3.629  18.609  0.00  0.00    +0.000 N 
ATOM     11  H   UNL     1      51.550   4.046  19.149  0.00  0.00    +0.000 HD
BRANCH   8  17
ATOM     12  C   UNL     1      53.631   3.061  17.741  0.00  0.00    +0.000 A 
ATOM     13  C   UNL     1      54.934   2.558  17.829  0.00  0.00    +0.000 A 
ATOM     14  C   UNL     1      55.150   1.199  18.050  0.00  0.00    +0.000 A 
ATOM     15  C   UNL     1      54.052   0.366  18.182  0.00  0.00    +0.000 A 
ATOM     16  N   UNL     1      52.779   0.800  18.109  0.00  0.00    +0.000 NA
ATOM     17  C   UNL     1      52.582   2.142  17.894  0.00  0.00    +0.000 A 
BRANCH  12  19
ATOM     18  C   UNL     1      54.213   5.319  18.213  0.00  0.00    +0.000 C 
ATOM     19  O   UNL     1      53.352   4.387  17.567  0.00  0.00    +0.000 OA
ENDBRANCH  12  19
ENDBRANCH   8  17
ENDBRANCH   7  10
ENDBRANCH   1   7
BRANCH   4  20
ATOM     20  C   UNL     1      48.023   6.930  13.725  0.00  0.00    +0.000 C 
BRANCH  20  21
ATOM     21  N   UNL     1      47.307   6.061  12.827  0.00  0.00    +0.000 N 
ATOM     22  C   UNL     1      46.417   6.543  11.903  0.00  0.00    +0.000 C 
ATOM     23  O   UNL     1      46.221   7.744  11.746  0.00  0.00    +0.000 OA
ATOM     24  H   UNL     1      47.263   5.083  13.092  0.00  0.00    +0.000 HD
BRANCH  22  25
ATOM     25  C   UNL     1      45.755   5.539  11.057  0.00  0.00    +0.000 A 
ATOM     26  C   UNL     1      45.861   5.616   9.675  0.00  0.00    +0.000 A 
ATOM     27  S   UNL     1      45.102   4.324   8.858  0.00  0.00    +0.000 S 
ATOM     28  C   UNL     1      44.555   3.647  10.321  0.00  0.00    +0.000 A 
ATOM     29  N   UNL     1      43.815   2.505  10.333  0.00  0.00    +0.000 NA
ATOM     30  C   UNL     1      43.443   2.123  11.509  0.00  0.00    +0.000 A 
ATOM     31  N   UNL     1      43.744   2.778  12.674  0.00  0.00    +0.000 N 
ATOM     32  C   UNL     1      44.501   3.924  12.713  0.00  0.00    +0.000 A 
ATOM     33  O   UNL     1      44.767   4.474  13.776  0.00  0.00    +0.000 OA
ATOM     34  C   UNL     1      44.951   4.393  11.417  0.00  0.00    +0.000 A 
ATOM     35  H   UNL     1      43.422   2.428  13.564  0.00  0.00    +0.000 HD
ENDBRANCH  22  25
ENDBRANCH  20  21
ENDBRANCH   4  20
TORSDOF 7
ENDMDL
