MODEL 1
REMARK VINA RESULT:    -8.288      0.000      0.000
REMARK INTER + INTRA:         -11.697
REMARK INTER:                 -10.711
REMARK INTRA:                  -0.987
REMARK UNBOUND:                -0.987
REMARK  Name = 
REMARK  6 active torsions:
REMARK  status: ('A' for Active; 'I' for Inactive)
REMARK    1  A    between atoms: C_1  and  C_2
REMARK    2  A    between atoms: C_5  and  C_6
REMARK    3  A    between atoms: C_6  and  C_7
REMARK    4  A    between atoms: C_10  and  C_11
REMARK    5  A    between atoms: C_11  and  N_12
REMARK    6  A    between atoms: C_13  and  C_15
REMARK                            x       y       z     vdW  Elec       q    Type
REMARK                         _______ _______ _______ _____ _____    ______ ____
ROOT
ATOM      1  C   UNL     1      47.271   8.208  13.583  0.00  0.00    +0.000 C 
ENDROOT
BRANCH   1   5
ATOM      2  C   UNL     1      44.789   5.588  11.191  0.00  0.00    +0.000 A 
ATOM      3  C   UNL     1      44.451   6.939  11.350  0.00  0.00    +0.000 A 
ATOM      4  C   UNL     1      45.235   7.780  12.147  0.00  0.00    +0.000 A 
ATOM      5  C   UNL     1      46.378   7.291  12.790  0.00  0.00    +0.000 A 
ATOM      6  C   UNL     1      46.687   5.930  12.672  0.00  0.00    +0.000 A 
ATOM      7  C   UNL     1      45.906   5.088  11.874  0.00  0.00    +0.000 A 
BRANCH   2   8
ATOM      8  C   UNL     1      43.985   4.696  10.274  0.00  0.00    +0.000 C 
BRANCH   8  13
ATOM      9  C   UNL     1      47.094   1.127   6.975  0.00  0.00    +0.000 C 
ATOM     10  C   UNL     1      46.309   2.095   7.809  0.00  0.00    +0.000 A 
ATOM     11  C   UNL     1      46.349   3.461   7.548  0.00  0.00    +0.000 A 
ATOM     12  C   UNL     1      45.598   4.323   8.349  0.00  0.00    +0.000 A 
ATOM     13  C   UNL     1      44.824   3.808   9.390  0.00  0.00    +0.000 A 
ATOM     14  C   UNL     1      44.866   2.432   9.585  0.00  0.00    +0.000 A 
ATOM     15  N   UNL     1      45.580   1.571   8.821  0.00  0.00    +0.000 NA
ENDBRANCH   8  13
ENDBRANCH   2   8
ENDBRANCH   1   5
BRANCH   1  16
ATOM     16  N   UNL     1      47.720   7.603  14.812  0.00  0.00    +0.000 N 
ATOM     17  C   UNL     1      48.971   7.046  14.890  0.00  0.00    +0.000 C 
ATOM     18  O   UNL     1      49.763   7.099  13.950  0.00  0.00    +0.000 OA
ATOM     19  H   UNL     1      47.014   7.364  15.502  0.00  0.00    +0.000 HD
BRANCH  17  20
ATOM     20  C   UNL     1      49.349   6.430  16.167  0.00  0.00    +0.000 A 
ATOM     21  C   UNL     1      50.410   6.958  16.891  0.00  0.00    +0.000 A 
ATOM     22  S   UNL     1      50.715   6.141  18.356  0.00  0.00    +0.000 S 
ATOM     23  C   UNL     1      49.468   5.024  18.053  0.00  0.00    +0.000 A 
ATOM     24  N   UNL     1      49.216   4.008  18.922  0.00  0.00    +0.000 NA
ATOM     25  C   UNL     1      48.266   3.218  18.554  0.00  0.00    +0.000 A 
ATOM     26  N   UNL     1      47.536   3.354  17.402  0.00  0.00    +0.000 N 
ATOM     27  C   UNL     1      47.732   4.385  16.510  0.00  0.00    +0.000 A 
ATOM     28  O   UNL     1      47.027   4.511  15.516  0.00  0.00    +0.000 OA
ATOM     29  C   UNL     1      48.810   5.289  16.865  0.00  0.00    +0.000 A 
ATOM     30  H   UNL     1      46.794   2.708  17.180  0.00  0.00    +0.000 HD
ENDBRANCH  17  20
ENDBRANCH   1  16
TORSDOF 5
ENDMDL
MODEL 2
REMARK VINA RESULT:    -8.067      0.747      1.037
REMARK INTER + INTRA:         -11.411
REMARK INTER:                 -10.478
REMARK INTRA:                  -0.933
REMARK UNBOUND:                -0.987
REMARK  Name = 
REMARK  6 active torsions:
REMARK  status: ('A' for Active; 'I' for Inactive)
REMARK    1  A    between atoms: C_1  and  C_2
REMARK    2  A    between atoms: C_5  and  C_6
REMARK    3  A    between atoms: C_6  and  C_7
REMARK    4  A    between atoms: C_10  and  C_11
REMARK    5  A    between atoms: C_11  and  N_12
REMARK    6  A    between atoms: C_13  and  C_15
REMARK                            x       y       z     vdW  Elec       q    Type
REMARK                         _______ _______ _______ _____ _____    ______ ____
ROOT
ATOM      1  C   UNL     1      47.461   8.269  13.547  0.00  0.00    +0.000 C 
ENDROOT
BRANCH   1   5
ATOM      2  C   UNL     1      44.870   5.655  11.269  0.00  0.00    +0.000 A 
ATOM      3  C   UNL     1      44.607   7.029  11.341  0.00  0.00    +0.000 A 
ATOM      4  C   UNL     1      45.426   7.872  12.101  0.00  0.00    +0.000 A 
ATOM      5  C   UNL     1      46.530   7.358  12.793  0.00  0.00    +0.000 A 
ATOM      6  C   UNL     1      46.762   5.977  12.762  0.00  0.00    +0.000 A 
ATOM      7  C   UNL     1      45.945   5.135  12.001  0.00  0.00    +0.000 A 
BRANCH   2   8
ATOM      8  C   UNL     1      44.030   4.756  10.391  0.00  0.00    +0.000 C 
BRANCH   8  13
ATOM      9  C   UNL     1      47.185   1.726   6.630  0.00  0.00    +0.000 C 
ATOM     10  C   UNL     1      46.345   2.469   7.625  0.00  0.00    +0.000 A 
ATOM     11  C   UNL     1      45.633   1.790   8.609  0.00  0.00    +0.000 A 
ATOM     12  C   UNL     1      44.868   2.525   9.517  0.00  0.00    +0.000 A 
ATOM     13  C   UNL     1      44.829   3.917   9.426  0.00  0.00    +0.000 A 
ATOM     14  C   UNL     1      45.558   4.502   8.396  0.00  0.00    +0.000 A 
ATOM     15  N   UNL     1      46.312   3.816   7.506  0.00  0.00    +0.000 NA
ENDBRANCH   8  13
ENDBRANCH   2   8
ENDBRANCH   1   5
BRANCH   1  16
ATOM     16  N   UNL     1      47.714   7.803  14.888  0.00  0.00    +0.000 N 
ATOM     17  C   UNL     1      48.875   7.132  15.177  0.00  0.00    +0.000 C 
ATOM     18  O   UNL     1      49.754   6.965  14.333  0.00  0.00    +0.000 OA
ATOM     19  H   UNL     1      46.921   7.742  15.520  0.00  0.00    +0.000 HD
BRANCH  17  20
ATOM     20  C   UNL     1      49.052   6.670  16.558  0.00  0.00    +0.000 A 
ATOM     21  C   UNL     1      49.632   7.517  17.493  0.00  0.00    +0.000 A 
ATOM     22  S   UNL     1      49.754   6.840  19.052  0.00  0.00    +0.000 S 
ATOM     23  C   UNL     1      49.077   5.371  18.524  0.00  0.00    +0.000 A 
ATOM     24  N   UNL     1      48.930   4.324  19.379  0.00  0.00    +0.000 NA
ATOM     25  C   UNL     1      48.433   3.263  18.839  0.00  0.00    +0.000 A 
ATOM     26  N   UNL     1      48.058   3.155  17.526  0.00  0.00    +0.000 N 
ATOM     27  C   UNL     1      48.156   4.199  16.632  0.00  0.00    +0.000 A 
ATOM     28  O   UNL     1      47.762   4.087  15.477  0.00  0.00    +0.000 OA
ATOM     29  C   UNL     1      48.735   5.409  17.183  0.00  0.00    +0.000 A 
ATOM     30  H   UNL     1      47.660   2.299  17.169  0.00  0.00    +0.000 HD
ENDBRANCH  17  20
ENDBRANCH   1  16
TORSDOF 5
ENDMDL
MODEL 3
REMARK VINA RESULT:    -7.364      2.543      4.396
REMARK INTER + INTRA:         -10.502
REMARK INTER:                  -9.342
REMARK INTRA:                  -1.161
REMARK UNBOUND:                -0.987
REMARK  Name = 
REMARK  6 active torsions:
REMARK  status: ('A' for Active; 'I' for Inactive)
REMARK    1  A    between atoms: C_1  and  C_2
REMARK    2  A    between atoms: C_5  and  C_6
REMARK    3  A    between atoms: C_6  and  C_7
REMARK    4  A    between atoms: C_10  and  C_11
REMARK    5  A    between atoms: C_11  and  N_12
REMARK    6  A    between atoms: C_13  and  C_15
REMARK                            x       y       z     vdW  Elec       q    Type
REMARK                         _______ _______ _______ _____ _____    ______ ____
ROOT
ATOM      1  C   UNL     1      47.083   5.376  14.594  0.00  0.00    +0.000 C 
ENDROOT
BRANCH   1   5
ATOM      2  C   UNL     1      44.944   3.909  11.128  0.00  0.00    +0.000 A 
ATOM      3  C   UNL     1      45.186   5.280  11.287  0.00  0.00    +0.000 A 
ATOM      4  C   UNL     1      45.851   5.759  12.420  0.00  0.00    +0.000 A 
ATOM      5  C   UNL     1      46.298   4.876  13.411  0.00  0.00    +0.000 A 
ATOM      6  C   UNL     1      46.010   3.512  13.277  0.00  0.00    +0.000 A 
ATOM      7  C   UNL     1      45.347   3.032  12.143  0.00  0.00    +0.000 A 
BRANCH   2   8
ATOM      8  C   UNL     1      44.291   3.383   9.871  0.00  0.00    +0.000 C 
BRANCH   8  13
ATOM      9  C   UNL     1      47.971   1.996   5.650  0.00  0.00    +0.000 C 
ATOM     10  C   UNL     1      47.020   2.406   6.734  0.00  0.00    +0.000 A 
ATOM     11  C   UNL     1      46.566   3.718   6.829  0.00  0.00    +0.000 A 
ATOM     12  C   UNL     1      45.677   4.052   7.853  0.00  0.00    +0.000 A 
ATOM     13  C   UNL     1      45.259   3.075   8.758  0.00  0.00    +0.000 A 
ATOM     14  C   UNL     1      45.784   1.798   8.592  0.00  0.00    +0.000 A 
ATOM     15  N   UNL     1      46.642   1.444   7.607  0.00  0.00    +0.000 NA
ENDBRANCH   8  13
ENDBRANCH   2   8
ENDBRANCH   1   5
BRANCH   1  16
ATOM     16  N   UNL     1      47.579   6.715  14.395  0.00  0.00    +0.000 N 
ATOM     17  C   UNL     1      48.815   7.071  14.873  0.00  0.00    +0.000 C 
ATOM     18  O   UNL     1      49.557   6.257  15.420  0.00  0.00    +0.000 OA
ATOM     19  H   UNL     1      46.903   7.432  14.149  0.00  0.00    +0.000 HD
BRANCH  17  20
ATOM     20  C   UNL     1      49.241   8.457  14.651  0.00  0.00    +0.000 A 
ATOM     21  C   UNL     1      49.628   9.234  15.735  0.00  0.00    +0.000 A 
ATOM     22  S   UNL     1      50.108  10.814  15.312  0.00  0.00    +0.000 S 
ATOM     23  C   UNL     1      49.772  10.531  13.668  0.00  0.00    +0.000 A 
ATOM     24  N   UNL     1      49.936  11.516  12.744  0.00  0.00    +0.000 NA
ATOM     25  C   UNL     1      49.615  11.175  11.542  0.00  0.00    +0.000 A 
ATOM     26  N   UNL     1      49.155   9.938  11.176  0.00  0.00    +0.000 N 
ATOM     27  C   UNL     1      49.006   8.901  12.070  0.00  0.00    +0.000 A 
ATOM     28  O   UNL     1      48.643   7.789  11.702  0.00  0.00    +0.000 OA
ATOM     29  C   UNL     1      49.329   9.240  13.442  0.00  0.00    +0.000 A 
ATOM     30  H   UNL     1      48.935   9.731  10.213  0.00  0.00    +0.000 HD
ENDBRANCH  17  20
ENDBRANCH   1  16
TORSDOF 5
ENDMDL
MODEL 4
REMARK VINA RESULT:    -7.190      1.993      2.574
REMARK INTER + INTRA:         -10.278
REMARK INTER:                  -9.314
REMARK INTRA:                  -0.964
REMARK UNBOUND:                -0.987
REMARK  Name = 
REMARK  6 active torsions:
REMARK  status: ('A' for Active; 'I' for Inactive)
REMARK    1  A    between atoms: C_1  and  C_2
REMARK    2  A    between atoms: C_5  and  C_6
REMARK    3  A    between atoms: C_6  and  C_7
REMARK    4  A    between atoms: C_10  and  C_11
REMARK    5  A    between atoms: C_11  and  N_12
REMARK    6  A    between atoms: C_13  and  C_15
REMARK                            x       y       z     vdW  Elec       q    Type
REMARK                         _______ _______ _______ _____ _____    ______ ____
ROOT
ATOM      1  C   UNL     1      47.562   8.397  13.837  0.00  0.00    +0.000 C 
ENDROOT
BRANCH   1   5
ATOM      2  C   UNL     1      45.176   5.695  11.438  0.00  0.00    +0.000 A 
ATOM      3  C   UNL     1      46.190   5.201  12.270  0.00  0.00    +0.000 A 
ATOM      4  C   UNL     1      46.982   6.074  13.023  0.00  0.00    +0.000 A 
ATOM      5  C   UNL     1      46.768   7.457  12.969  0.00  0.00    +0.000 A 
ATOM      6  C   UNL     1      45.789   7.954  12.099  0.00  0.00    +0.000 A 
ATOM      7  C   UNL     1      44.996   7.082  11.347  0.00  0.00    +0.000 A 
BRANCH   2   8
ATOM      8  C   UNL     1      44.274   4.750  10.679  0.00  0.00    +0.000 C 
BRANCH   8  13
ATOM      9  C   UNL     1      47.046   1.952   6.464  0.00  0.00    +0.000 C 
ATOM     10  C   UNL     1      46.305   2.633   7.575  0.00  0.00    +0.000 A 
ATOM     11  C   UNL     1      45.640   1.897   8.550  0.00  0.00    +0.000 A 
ATOM     12  C   UNL     1      44.967   2.576   9.567  0.00  0.00    +0.000 A 
ATOM     13  C   UNL     1      44.973   3.972   9.594  0.00  0.00    +0.000 A 
ATOM     14  C   UNL     1      45.648   4.618   8.565  0.00  0.00    +0.000 A 
ATOM     15  N   UNL     1      46.313   3.986   7.569  0.00  0.00    +0.000 NA
ENDBRANCH   8  13
ENDBRANCH   2   8
ENDBRANCH   1   5
BRANCH   1  16
ATOM     16  N   UNL     1      47.785   7.863  15.157  0.00  0.00    +0.000 N 
ATOM     17  C   UNL     1      49.019   7.371  15.503  0.00  0.00    +0.000 C 
ATOM     18  O   UNL     1      49.977   7.426  14.733  0.00  0.00    +0.000 OA
ATOM     19  H   UNL     1      46.968   7.617  15.708  0.00  0.00    +0.000 HD
BRANCH  17  20
ATOM     20  C   UNL     1      49.163   6.825  16.857  0.00  0.00    +0.000 A 
ATOM     21  C   UNL     1      49.785   5.595  17.034  0.00  0.00    +0.000 A 
ATOM     22  S   UNL     1      49.887   5.107  18.664  0.00  0.00    +0.000 S 
ATOM     23  C   UNL     1      49.064   6.500  19.188  0.00  0.00    +0.000 A 
ATOM     24  N   UNL     1      48.782   6.689  20.505  0.00  0.00    +0.000 NA
ATOM     25  C   UNL     1      48.128   7.771  20.758  0.00  0.00    +0.000 A 
ATOM     26  N   UNL     1      47.736   8.687  19.818  0.00  0.00    +0.000 N 
ATOM     27  C   UNL     1      48.028   8.555  18.478  0.00  0.00    +0.000 A 
ATOM     28  O   UNL     1      47.712   9.420  17.669  0.00  0.00    +0.000 OA
ATOM     29  C   UNL     1      48.742   7.340  18.137  0.00  0.00    +0.000 A 
ATOM     30  H   UNL     1      47.238   9.523  20.085  0.00  0.00    +0.000 HD
ENDBRANCH  17  20
ENDBRANCH   1  16
TORSDOF 5
ENDMDL
MODEL 5
REMARK VINA RESULT:    -7.023      2.859      3.694
REMARK INTER + INTRA:         -10.063
REMARK INTER:                  -9.014
REMARK INTRA:                  -1.049
REMARK UNBOUND:                -0.987
REMARK  Name = 
REMARK  6 active torsions:
REMARK  status: ('A' for Active; 'I' for Inactive)
REMARK    1  A    between atoms: C_1  and  C_2
REMARK    2  A    between atoms: C_5  and  C_6
REMARK    3  A    between atoms: C_6  and  C_7
REMARK    4  A    between atoms: C_10  and  C_11
REMARK    5  A    between atoms: C_11  and  N_12
REMARK    6  A    between atoms: C_13  and  C_15
REMARK                            x       y       z     vdW  Elec       q    Type
REMARK                         _______ _______ _______ _____ _____    ______ ____
ROOT
ATOM      1  C   UNL     1      48.014   5.045  15.426  0.00  0.00    +0.000 C 
ENDROOT
BRANCH   1   5
ATOM      2  C   UNL     1      45.445   4.354  12.011  0.00  0.00    +0.000 A 
ATOM      3  C   UNL     1      45.960   3.276  12.743  0.00  0.00    +0.000 A 
ATOM      4  C   UNL     1      46.814   3.496  13.829  0.00  0.00    +0.000 A 
ATOM      5  C   UNL     1      47.161   4.797  14.211  0.00  0.00    +0.000 A 
ATOM      6  C   UNL     1      46.687   5.872  13.448  0.00  0.00    +0.000 A 
ATOM      7  C   UNL     1      45.832   5.654  12.363  0.00  0.00    +0.000 A 
BRANCH   2   8
ATOM      8  C   UNL     1      44.466   4.121  10.883  0.00  0.00    +0.000 C 
BRANCH   8  13
ATOM      9  C   UNL     1      46.991   2.621   5.918  0.00  0.00    +0.000 C 
ATOM     10  C   UNL     1      46.322   2.961   7.215  0.00  0.00    +0.000 A 
ATOM     11  C   UNL     1      45.871   1.961   8.072  0.00  0.00    +0.000 A 
ATOM     12  C   UNL     1      45.258   2.327   9.272  0.00  0.00    +0.000 A 
ATOM     13  C   UNL     1      45.108   3.677   9.594  0.00  0.00    +0.000 A 
ATOM     14  C   UNL     1      45.573   4.601   8.665  0.00  0.00    +0.000 A 
ATOM     15  N   UNL     1      46.176   4.276   7.497  0.00  0.00    +0.000 NA
ENDBRANCH   8  13
ENDBRANCH   2   8
ENDBRANCH   1   5
BRANCH   1  16
ATOM     16  N   UNL     1      47.924   6.408  15.888  0.00  0.00    +0.000 N 
ATOM     17  C   UNL     1      49.056   7.176  15.997  0.00  0.00    +0.000 C 
ATOM     18  O   UNL     1      50.159   6.757  15.649  0.00  0.00    +0.000 OA
ATOM     19  H   UNL     1      47.075   6.682  16.374  0.00  0.00    +0.000 HD
BRANCH  17  20
ATOM     20  C   UNL     1      48.887   8.545  16.495  0.00  0.00    +0.000 A 
ATOM     21  C   UNL     1      49.419   9.605  15.772  0.00  0.00    +0.000 A 
ATOM     22  S   UNL     1      49.127  11.130  16.474  0.00  0.00    +0.000 S 
ATOM     23  C   UNL     1      48.318  10.427  17.794  0.00  0.00    +0.000 A 
ATOM     24  N   UNL     1      47.835  11.196  18.806  0.00  0.00    +0.000 NA
ATOM     25  C   UNL     1      47.272  10.531  19.757  0.00  0.00    +0.000 A 
ATOM     26  N   UNL     1      47.138   9.168  19.786  0.00  0.00    +0.000 N 
ATOM     27  C   UNL     1      47.581   8.351  18.769  0.00  0.00    +0.000 A 
ATOM     28  O   UNL     1      47.398   7.139  18.799  0.00  0.00    +0.000 OA
ATOM     29  C   UNL     1      48.246   9.049  17.685  0.00  0.00    +0.000 A 
ATOM     30  H   UNL     1      46.673   8.709  20.555  0.00  0.00    +0.000 HD
ENDBRANCH  17  20
ENDBRANCH   1  16
TORSDOF 5
ENDMDL
MODEL 6
REMARK VINA RESULT:    -6.686      3.365      8.156
REMARK INTER + INTRA:          -9.627
REMARK INTER:                  -8.617
REMARK INTRA:                  -1.010
REMARK UNBOUND:                -0.987
REMARK  Name = 
REMARK  6 active torsions:
REMARK  status: ('A' for Active; 'I' for Inactive)
REMARK    1  A    between atoms: C_1  and  C_2
REMARK    2  A    between atoms: C_5  and  C_6
REMARK    3  A    between atoms: C_6  and  C_7
REMARK    4  A    between atoms: C_10  and  C_11
REMARK    5  A    between atoms: C_11  and  N_12
REMARK    6  A    between atoms: C_13  and  C_15
REMARK                            x       y       z     vdW  Elec       q    Type
REMARK                         _______ _______ _______ _____ _____    ______ ____
ROOT
ATOM      1  C   UNL     1      48.959   8.118  14.836  0.00  0.00    +0.000 C 
ENDROOT
BRANCH   1   5
ATOM      2  C   UNL     1      50.515   5.448  17.868  0.00  0.00    +0.000 A 
ATOM      3  C   UNL     1      51.380   6.078  16.964  0.00  0.00    +0.000 A 
ATOM      4  C   UNL     1      50.878   6.918  15.964  0.00  0.00    +0.000 A 
ATOM      5  C   UNL     1      49.501   7.154  15.858  0.00  0.00    +0.000 A 
ATOM      6  C   UNL     1      48.633   6.484  16.729  0.00  0.00    +0.000 A 
ATOM      7  C   UNL     1      49.135   5.646  17.730  0.00  0.00    +0.000 A 
BRANCH   2   8
ATOM      8  C   UNL     1      51.062   4.598  18.992  0.00  0.00    +0.000 C 
BRANCH   8  13
ATOM      9  C   UNL     1      53.899  -0.157  17.374  0.00  0.00    +0.000 C 
ATOM     10  C   UNL     1      53.125   1.067  17.759  0.00  0.00    +0.000 A 
ATOM     11  C   UNL     1      51.838   1.283  17.275  0.00  0.00    +0.000 A 
ATOM     12  C   UNL     1      51.155   2.436  17.666  0.00  0.00    +0.000 A 
ATOM     13  C   UNL     1      51.764   3.347  18.530  0.00  0.00    +0.000 A 
ATOM     14  C   UNL     1      53.059   3.053  18.944  0.00  0.00    +0.000 A 
ATOM     15  N   UNL     1      53.744   1.941  18.586  0.00  0.00    +0.000 NA
ENDBRANCH   8  13
ENDBRANCH   2   8
ENDBRANCH   1   5
BRANCH   1  16
ATOM     16  N   UNL     1      47.719   7.663  14.260  0.00  0.00    +0.000 N 
ATOM     17  C   UNL     1      47.730   6.801  13.193  0.00  0.00    +0.000 C 
ATOM     18  O   UNL     1      48.778   6.344  12.740  0.00  0.00    +0.000 OA
ATOM     19  H   UNL     1      46.879   8.192  14.477  0.00  0.00    +0.000 HD
BRANCH  17  20
ATOM     20  C   UNL     1      46.428   6.399  12.647  0.00  0.00    +0.000 A 
ATOM     21  C   UNL     1      45.585   7.365  12.113  0.00  0.00    +0.000 A 
ATOM     22  S   UNL     1      44.120   6.738  11.509  0.00  0.00    +0.000 S 
ATOM     23  C   UNL     1      44.540   5.158  11.979  0.00  0.00    +0.000 A 
ATOM     24  N   UNL     1      43.684   4.120  11.781  0.00  0.00    +0.000 NA
ATOM     25  C   UNL     1      44.117   2.985  12.213  0.00  0.00    +0.000 A 
ATOM     26  N   UNL     1      45.331   2.788  12.817  0.00  0.00    +0.000 N 
ATOM     27  C   UNL     1      46.244   3.801  13.008  0.00  0.00    +0.000 A 
ATOM     28  O   UNL     1      47.344   3.583  13.503  0.00  0.00    +0.000 OA
ATOM     29  C   UNL     1      45.794   5.106  12.563  0.00  0.00    +0.000 A 
ATOM     30  H   UNL     1      45.616   1.869  13.119  0.00  0.00    +0.000 HD
ENDBRANCH  17  20
ENDBRANCH   1  16
TORSDOF 5
ENDMDL
MODEL 7
REMARK VINA RESULT:    -6.350      1.663      2.388
REMARK INTER + INTRA:          -9.192
REMARK INTER:                  -8.106
REMARK INTRA:                  -1.086
REMARK UNBOUND:                -0.987
REMARK  Name = 
REMARK  6 active torsions:
REMARK  status: ('A' for Active; 'I' for Inactive)
REMARK    1  A    between atoms: C_1  and  C_2
REMARK    2  A    between atoms: C_5  and  C_6
REMARK    3  A    between atoms: C_6  and  C_7
REMARK    4  A    between atoms: C_10  and  C_11
REMARK    5  A    between atoms: C_11  and  N_12
REMARK    6  A    between atoms: C_13  and  C_15
REMARK                            x       y       z     vdW  Elec       q    Type
REMARK                         _______ _______ _______ _____ _____    ______ ____
ROOT
ATOM      1  C   UNL     1      50.174   7.607  14.246  0.00  0.00    +0.000 C 
ENDROOT
BRANCH   1   5
ATOM      2  C   UNL     1      46.586   6.718  11.991  0.00  0.00    +0.000 A 
ATOM      3  C   UNL     1      46.718   6.285  13.317  0.00  0.00    +0.000 A 
ATOM      4  C   UNL     1      47.888   6.545  14.038  0.00  0.00    +0.000 A 
ATOM      5  C   UNL     1      48.944   7.254  13.452  0.00  0.00    +0.000 A 
ATOM      6  C   UNL     1      48.833   7.641  12.110  0.00  0.00    +0.000 A 
ATOM      7  C   UNL     1      47.663   7.384  11.389  0.00  0.00    +0.000 A 
BRANCH   2   8
ATOM      8  C   UNL     1      45.296   6.501  11.235  0.00  0.00    +0.000 C 
BRANCH   8  13
ATOM      9  C   UNL     1      44.901   1.369   8.630  0.00  0.00    +0.000 C 
ATOM     10  C   UNL     1      45.029   2.721   9.265  0.00  0.00    +0.000 A 
ATOM     11  C   UNL     1      45.497   3.812   8.539  0.00  0.00    +0.000 A 
ATOM     12  C   UNL     1      45.594   5.052   9.172  0.00  0.00    +0.000 A 
ATOM     13  C   UNL     1      45.223   5.181  10.511  0.00  0.00    +0.000 A 
ATOM     14  C   UNL     1      44.787   4.029  11.157  0.00  0.00    +0.000 A 
ATOM     15  N   UNL     1      44.677   2.815  10.568  0.00  0.00    +0.000 NA
ENDBRANCH   8  13
ENDBRANCH   2   8
ENDBRANCH   1   5
BRANCH   1  16
ATOM     16  N   UNL     1      50.001   7.364  15.656  0.00  0.00    +0.000 N 
ATOM     17  C   UNL     1      51.052   6.909  16.412  0.00  0.00    +0.000 C 
ATOM     18  O   UNL     1      52.175   6.756  15.933  0.00  0.00    +0.000 OA
ATOM     19  H   UNL     1      49.051   7.277  16.004  0.00  0.00    +0.000 HD
BRANCH  17  20
ATOM     20  C   UNL     1      50.794   6.664  17.835  0.00  0.00    +0.000 A 
ATOM     21  C   UNL     1      51.480   7.404  18.790  0.00  0.00    +0.000 A 
ATOM     22  S   UNL     1      51.059   7.013  20.394  0.00  0.00    +0.000 S 
ATOM     23  C   UNL     1      49.977   5.808  19.872  0.00  0.00    +0.000 A 
ATOM     24  N   UNL     1      49.296   5.047  20.770  0.00  0.00    +0.000 NA
ATOM     25  C   UNL     1      48.535   4.151  20.237  0.00  0.00    +0.000 A 
ATOM     26  N   UNL     1      48.384   3.953  18.890  0.00  0.00    +0.000 N 
ATOM     27  C   UNL     1      49.027   4.721  17.944  0.00  0.00    +0.000 A 
ATOM     28  O   UNL     1      48.830   4.553  16.746  0.00  0.00    +0.000 OA
ATOM     29  C   UNL     1      49.917   5.726  18.492  0.00  0.00    +0.000 A 
ATOM     30  H   UNL     1      47.760   3.243  18.537  0.00  0.00    +0.000 HD
ENDBRANCH  17  20
ENDBRANCH   1  16
TORSDOF 5
ENDMDL
MODEL 8
REMARK VINA RESULT:    -6.161      5.396      6.994
REMARK INTER + INTRA:          -8.948
REMARK INTER:                  -8.053
REMARK INTRA:                  -0.895
REMARK UNBOUND:                -0.987
REMARK  Name = 
REMARK  6 active torsions:
REMARK  status: ('A' for Active; 'I' for Inactive)
REMARK    1  A    between atoms: C_1  and  C_2
REMARK    2  A    between atoms: C_5  and  C_6
REMARK    3  A    between atoms: C_6  and  C_7
REMARK    4  A    between atoms: C_10  and  C_11
REMARK    5  A    between atoms: C_11  and  N_12
REMARK    6  A    between atoms: C_13  and  C_15
REMARK                            x       y       z     vdW  Elec       q    Type
REMARK                         _______ _______ _______ _____ _____    ______ ____
ROOT
ATOM      1  C   UNL     1      50.963   8.794  11.674  0.00  0.00    +0.000 C 
ENDROOT
BRANCH   1   5
ATOM      2  C   UNL     1      47.036   7.196  12.550  0.00  0.00    +0.000 A 
ATOM      3  C   UNL     1      47.180   8.500  12.057  0.00  0.00    +0.000 A 
ATOM      4  C   UNL     1      48.449   9.029  11.801  0.00  0.00    +0.000 A 
ATOM      5  C   UNL     1      49.599   8.261  12.021  0.00  0.00    +0.000 A 
ATOM      6  C   UNL     1      49.457   6.976  12.562  0.00  0.00    +0.000 A 
ATOM      7  C   UNL     1      48.189   6.446  12.816  0.00  0.00    +0.000 A 
BRANCH   2   8
ATOM      8  C   UNL     1      45.663   6.599  12.758  0.00  0.00    +0.000 C 
BRANCH   8  13
ATOM      9  C   UNL     1      44.577   2.238   9.141  0.00  0.00    +0.000 C 
ATOM     10  C   UNL     1      44.842   3.342  10.120  0.00  0.00    +0.000 A 
ATOM     11  C   UNL     1      44.751   3.120  11.491  0.00  0.00    +0.000 A 
ATOM     12  C   UNL     1      45.012   4.177  12.364  0.00  0.00    +0.000 A 
ATOM     13  C   UNL     1      45.359   5.430  11.856  0.00  0.00    +0.000 A 
ATOM     14  C   UNL     1      45.404   5.558  10.472  0.00  0.00    +0.000 A 
ATOM     15  N   UNL     1      45.161   4.550   9.601  0.00  0.00    +0.000 NA
ENDBRANCH   8  13
ENDBRANCH   2   8
ENDBRANCH   1   5
BRANCH   1  16
ATOM     16  N   UNL     1      51.884   7.745  11.313  0.00  0.00    +0.000 N 
ATOM     17  C   UNL     1      52.764   7.926  10.276  0.00  0.00    +0.000 C 
ATOM     18  O   UNL     1      52.842   8.994   9.672  0.00  0.00    +0.000 OA
ATOM     19  H   UNL     1      51.682   6.808  11.650  0.00  0.00    +0.000 HD
BRANCH  17  20
ATOM     20  C   UNL     1      53.655   6.805   9.954  0.00  0.00    +0.000 A 
ATOM     21  C   UNL     1      54.623   6.418  10.871  0.00  0.00    +0.000 A 
ATOM     22  S   UNL     1      55.566   5.095  10.356  0.00  0.00    +0.000 S 
ATOM     23  C   UNL     1      54.744   5.021   8.869  0.00  0.00    +0.000 A 
ATOM     24  N   UNL     1      55.095   4.108   7.923  0.00  0.00    +0.000 NA
ATOM     25  C   UNL     1      54.411   4.183   6.833  0.00  0.00    +0.000 A 
ATOM     26  N   UNL     1      53.400   5.080   6.603  0.00  0.00    +0.000 N 
ATOM     27  C   UNL     1      52.987   5.998   7.542  0.00  0.00    +0.000 A 
ATOM     28  O   UNL     1      52.044   6.751   7.327  0.00  0.00    +0.000 OA
ATOM     29  C   UNL     1      53.744   5.973   8.779  0.00  0.00    +0.000 A 
ATOM     30  H   UNL     1      52.892   5.076   5.731  0.00  0.00    +0.000 HD
ENDBRANCH  17  20
ENDBRANCH   1  16
TORSDOF 5
ENDMDL
MODEL 9
REMARK VINA RESULT:    -6.008      5.799      7.826
REMARK INTER + INTRA:          -8.751
REMARK INTER:                  -7.743
REMARK INTRA:                  -1.008
REMARK UNBOUND:                -0.987
REMARK  Name = 
REMARK  6 active torsions:
REMARK  status: ('A' for Active; 'I' for Inactive)
REMARK    1  A    between atoms: C_1  and  C_2
REMARK    2  A    between atoms: C_5  and  C_6
REMARK    3  A    between atoms: C_6  and  C_7
REMARK    4  A    between atoms: C_10  and  C_11
REMARK    5  A    between atoms: C_11  and  N_12
REMARK    6  A    between atoms: C_13  and  C_15
REMARK                            x       y       z     vdW  Elec       q    Type
REMARK                         _______ _______ _______ _____ _____    ______ ____
ROOT
ATOM      1  C   UNL     1      51.715   8.317  11.974  0.00  0.00    +0.000 C 
ENDROOT
BRANCH   1   5
ATOM      2  C   UNL     1      47.503   7.931  12.900  0.00  0.00    +0.000 A 
ATOM      3  C   UNL     1      48.420   8.293  13.895  0.00  0.00    +0.000 A 
ATOM      4  C   UNL     1      49.785   8.390  13.606  0.00  0.00    +0.000 A 
ATOM      5  C   UNL     1      50.259   8.138  12.313  0.00  0.00    +0.000 A 
ATOM      6  C   UNL     1      49.349   7.725  11.330  0.00  0.00    +0.000 A 
ATOM      7  C   UNL     1      47.984   7.630  11.618  0.00  0.00    +0.000 A 
BRANCH   2   8
ATOM      8  C   UNL     1      46.021   7.896  13.193  0.00  0.00    +0.000 C 
BRANCH   8  13
ATOM      9  C   UNL     1      43.517   2.865  11.892  0.00  0.00    +0.000 C 
ATOM     10  C   UNL     1      44.147   4.192  12.187  0.00  0.00    +0.000 A 
ATOM     11  C   UNL     1      43.821   5.321  11.441  0.00  0.00    +0.000 A 
ATOM     12  C   UNL     1      44.430   6.537  11.756  0.00  0.00    +0.000 A 
ATOM     13  C   UNL     1      45.348   6.604  12.806  0.00  0.00    +0.000 A 
ATOM     14  C   UNL     1      45.623   5.419  13.478  0.00  0.00    +0.000 A 
ATOM     15  N   UNL     1      45.044   4.227  13.199  0.00  0.00    +0.000 NA
ENDBRANCH   8  13
ENDBRANCH   2   8
ENDBRANCH   1   5
BRANCH   1  16
ATOM     16  N   UNL     1      52.021   7.882  10.634  0.00  0.00    +0.000 N 
ATOM     17  C   UNL     1      52.836   8.640   9.832  0.00  0.00    +0.000 C 
ATOM     18  O   UNL     1      53.376   9.666  10.243  0.00  0.00    +0.000 OA
ATOM     19  H   UNL     1      51.420   7.173  10.222  0.00  0.00    +0.000 HD
BRANCH  17  20
ATOM     20  C   UNL     1      53.085   8.144   8.474  0.00  0.00    +0.000 A 
ATOM     21  C   UNL     1      52.985   9.018   7.399  0.00  0.00    +0.000 A 
ATOM     22  S   UNL     1      53.315   8.293   5.892  0.00  0.00    +0.000 S 
ATOM     23  C   UNL     1      53.560   6.774   6.617  0.00  0.00    +0.000 A 
ATOM     24  N   UNL     1      53.845   5.679   5.863  0.00  0.00    +0.000 NA
ATOM     25  C   UNL     1      53.975   4.587   6.537  0.00  0.00    +0.000 A 
ATOM     26  N   UNL     1      53.855   4.490   7.899  0.00  0.00    +0.000 N 
ATOM     27  C   UNL     1      53.600   5.576   8.707  0.00  0.00    +0.000 A 
ATOM     28  O   UNL     1      53.553   5.466   9.927  0.00  0.00    +0.000 OA
ATOM     29  C   UNL     1      53.420   6.825   7.993  0.00  0.00    +0.000 A 
ATOM     30  H   UNL     1      53.983   3.606   8.369  0.00  0.00    +0.000 HD
ENDBRANCH  17  20
ENDBRANCH   1  16
TORSDOF 5
ENDMDL
