MODEL 1
REMARK VINA RESULT:    -7.897      0.000      0.000
REMARK INTER + INTRA:         -12.197
REMARK INTER:                 -11.128
REMARK INTRA:                  -1.069
REMARK UNBOUND:                -1.069
REMARK  Name = 
REMARK  7 active torsions:
REMARK  status: ('A' for Active; 'I' for Inactive)
REMARK    1  A    between atoms: C_2  and  C_19
REMARK    2  A    between atoms: N_3  and  C_4
REMARK    3  A    between atoms: C_4  and  C_5
REMARK    4  A    between atoms: C_8  and  C_9
REMARK    5  A    between atoms: C_9  and  N_10
REMARK    6  A    between atoms: N_10  and  C_11
REMARK    7  A    between atoms: C_11  and  C_12
REMARK                            x       y       z     vdW  Elec       q    Type
REMARK                         _______ _______ _______ _____ _____    ______ ____
ROOT
ATOM      1  C   UNL     1      46.591   7.996  12.847  0.00  0.00    +0.000 C 
ENDROOT
BRANCH   1   2
ATOM      2  C   UNL     1      45.849   6.764  12.377  0.00  0.00    +0.000 A 
ATOM      3  N   UNL     1      46.364   6.084  11.337  0.00  0.00    +0.000 NA
ATOM      4  C   UNL     1      45.654   5.025  10.902  0.00  0.00    +0.000 A 
ATOM      5  C   UNL     1      44.455   4.622  11.448  0.00  0.00    +0.000 A 
ATOM      6  C   UNL     1      43.994   5.413  12.480  0.00  0.00    +0.000 A 
ATOM      7  N   UNL     1      44.653   6.494  12.947  0.00  0.00    +0.000 NA
BRANCH   5   8
ATOM      8  C   UNL     1      43.720   3.416  10.955  0.00  0.00    +0.000 C 
BRANCH   8   9
ATOM      9  N   UNL     1      44.654   2.425  10.416  0.00  0.00    +0.000 NA
ATOM     10  H   UNL     1      44.464   1.534  10.886  0.00  0.00    +0.000 HD
BRANCH   9  11
ATOM     11  C   UNL     1      44.446   2.187   8.984  0.00  0.00    +0.000 C 
BRANCH  11  12
ATOM     12  C   UNL     1      45.733   2.027   8.236  0.00  0.00    +0.000 A 
ATOM     13  N   UNL     1      46.416   0.910   8.061  0.00  0.00    +0.000 NA
ATOM     14  C   UNL     1      47.479   1.246   7.265  0.00  0.00    +0.000 A 
ATOM     15  C   UNL     1      47.450   2.583   6.957  0.00  0.00    +0.000 A 
ATOM     16  N   UNL     1      46.339   3.073   7.584  0.00  0.00    +0.000 N 
ATOM     17  H   UNL     1      46.007   4.027   7.560  0.00  0.00    +0.000 HD
ENDBRANCH  11  12
ENDBRANCH   9  11
ENDBRANCH   8   9
ENDBRANCH   5   8
ENDBRANCH   1   2
BRANCH   1  20
ATOM     18  O   UNL     1      49.061   6.636  13.316  0.00  0.00    +0.000 OA
ATOM     19  C   UNL     1      48.373   7.018  14.250  0.00  0.00    +0.000 C 
ATOM     20  N   UNL     1      47.221   7.755  14.124  0.00  0.00    +0.000 N 
ATOM     21  H   UNL     1      46.589   7.785  14.911  0.00  0.00    +0.000 HD
BRANCH  19  22
ATOM     22  C   UNL     1      48.531   6.553  15.621  0.00  0.00    +0.000 A 
ATOM     23  C   UNL     1      49.182   7.294  16.590  0.00  0.00    +0.000 A 
ATOM     24  S   UNL     1      49.812   6.278  17.824  0.00  0.00    +0.000 S 
ATOM     25  C   UNL     1      49.059   4.900  17.152  0.00  0.00    +0.000 A 
ATOM     26  N   UNL     1      49.297   3.641  17.603  0.00  0.00    +0.000 NA
ATOM     27  C   UNL     1      48.593   2.727  17.013  0.00  0.00    +0.000 A 
ATOM     28  N   UNL     1      47.634   2.966  16.059  0.00  0.00    +0.000 N 
ATOM     29  C   UNL     1      47.353   4.221  15.572  0.00  0.00    +0.000 A 
ATOM     30  O   UNL     1      46.452   4.426  14.776  0.00  0.00    +0.000 OA
ATOM     31  C   UNL     1      48.222   5.249  16.117  0.00  0.00    +0.000 A 
ATOM     32  H   UNL     1      47.047   2.218  15.714  0.00  0.00    +0.000 HD
ENDBRANCH  19  22
ENDBRANCH   1  20
TORSDOF 7
ENDMDL
MODEL 2
REMARK VINA RESULT:    -7.310      2.434      3.017
REMARK INTER + INTRA:         -11.370
REMARK INTER:                 -10.512
REMARK INTRA:                  -0.858
REMARK UNBOUND:                -1.069
REMARK  Name = 
REMARK  7 active torsions:
REMARK  status: ('A' for Active; 'I' for Inactive)
REMARK    1  A    between atoms: C_2  and  C_19
REMARK    2  A    between atoms: N_3  and  C_4
REMARK    3  A    between atoms: C_4  and  C_5
REMARK    4  A    between atoms: C_8  and  C_9
REMARK    5  A    between atoms: C_9  and  N_10
REMARK    6  A    between atoms: N_10  and  C_11
REMARK    7  A    between atoms: C_11  and  C_12
REMARK                            x       y       z     vdW  Elec       q    Type
REMARK                         _______ _______ _______ _____ _____    ______ ____
ROOT
ATOM      1  C   UNL     1      47.164   4.035  14.991  0.00  0.00    +0.000 C 
ENDROOT
BRANCH   1   2
ATOM      2  C   UNL     1      46.378   4.301  13.726  0.00  0.00    +0.000 A 
ATOM      3  N   UNL     1      45.975   3.238  13.006  0.00  0.00    +0.000 NA
ATOM      4  C   UNL     1      45.328   3.503  11.855  0.00  0.00    +0.000 A 
ATOM      5  C   UNL     1      45.074   4.774  11.387  0.00  0.00    +0.000 A 
ATOM      6  C   UNL     1      45.566   5.792  12.178  0.00  0.00    +0.000 A 
ATOM      7  N   UNL     1      46.236   5.586  13.332  0.00  0.00    +0.000 NA
BRANCH   5   8
ATOM      8  C   UNL     1      44.318   5.021  10.120  0.00  0.00    +0.000 C 
BRANCH   8   9
ATOM      9  N   UNL     1      45.194   4.866   8.956  0.00  0.00    +0.000 NA
ATOM     10  H   UNL     1      46.144   4.704   9.303  0.00  0.00    +0.000 HD
BRANCH   9  11
ATOM     11  C   UNL     1      44.845   3.689   8.152  0.00  0.00    +0.000 C 
BRANCH  11  12
ATOM     12  C   UNL     1      46.051   2.950   7.664  0.00  0.00    +0.000 A 
ATOM     13  N   UNL     1      46.391   1.707   7.954  0.00  0.00    +0.000 NA
ATOM     14  C   UNL     1      47.525   1.454   7.229  0.00  0.00    +0.000 A 
ATOM     15  C   UNL     1      47.887   2.555   6.493  0.00  0.00    +0.000 A 
ATOM     16  N   UNL     1      46.946   3.504   6.782  0.00  0.00    +0.000 N 
ATOM     17  H   UNL     1      46.900   4.440   6.402  0.00  0.00    +0.000 HD
ENDBRANCH  11  12
ENDBRANCH   9  11
ENDBRANCH   8   9
ENDBRANCH   5   8
ENDBRANCH   1   2
BRANCH   1  20
ATOM     18  O   UNL     1      49.479   4.376  16.634  0.00  0.00    +0.000 OA
ATOM     19  C   UNL     1      48.737   5.317  16.400  0.00  0.00    +0.000 C 
ATOM     20  N   UNL     1      47.656   5.271  15.554  0.00  0.00    +0.000 N 
ATOM     21  H   UNL     1      46.958   5.996  15.636  0.00  0.00    +0.000 HD
BRANCH  19  22
ATOM     22  C   UNL     1      48.735   6.560  17.158  0.00  0.00    +0.000 A 
ATOM     23  C   UNL     1      49.444   7.679  16.760  0.00  0.00    +0.000 A 
ATOM     24  S   UNL     1      49.822   8.681  18.102  0.00  0.00    +0.000 S 
ATOM     25  C   UNL     1      48.890   7.715  19.158  0.00  0.00    +0.000 A 
ATOM     26  N   UNL     1      48.887   7.891  20.505  0.00  0.00    +0.000 NA
ATOM     27  C   UNL     1      48.075   7.106  21.139  0.00  0.00    +0.000 A 
ATOM     28  N   UNL     1      47.227   6.205  20.544  0.00  0.00    +0.000 N 
ATOM     29  C   UNL     1      47.188   5.990  19.185  0.00  0.00    +0.000 A 
ATOM     30  O   UNL     1      46.382   5.238  18.666  0.00  0.00    +0.000 OA
ATOM     31  C   UNL     1      48.184   6.760  18.461  0.00  0.00    +0.000 A 
ATOM     32  H   UNL     1      46.543   5.695  21.090  0.00  0.00    +0.000 HD
ENDBRANCH  19  22
ENDBRANCH   1  20
TORSDOF 7
ENDMDL
MODEL 3
REMARK VINA RESULT:    -7.142      3.122      8.037
REMARK INTER + INTRA:         -11.133
REMARK INTER:                 -10.425
REMARK INTRA:                  -0.708
REMARK UNBOUND:                -1.069
REMARK  Name = 
REMARK  7 active torsions:
REMARK  status: ('A' for Active; 'I' for Inactive)
REMARK    1  A    between atoms: C_2  and  C_19
REMARK    2  A    between atoms: N_3  and  C_4
REMARK    3  A    between atoms: C_4  and  C_5
REMARK    4  A    between atoms: C_8  and  C_9
REMARK    5  A    between atoms: C_9  and  N_10
REMARK    6  A    between atoms: N_10  and  C_11
REMARK    7  A    between atoms: C_11  and  C_12
REMARK                            x       y       z     vdW  Elec       q    Type
REMARK                         _______ _______ _______ _____ _____    ______ ____
ROOT
ATOM      1  C   UNL     1      47.598   6.358  13.223  0.00  0.00    +0.000 C 
ENDROOT
BRANCH   1   2
ATOM      2  C   UNL     1      47.780   5.691  14.569  0.00  0.00    +0.000 A 
ATOM      3  N   UNL     1      48.555   6.314  15.475  0.00  0.00    +0.000 NA
ATOM      4  C   UNL     1      48.748   5.672  16.643  0.00  0.00    +0.000 A 
ATOM      5  C   UNL     1      48.214   4.438  16.943  0.00  0.00    +0.000 A 
ATOM      6  C   UNL     1      47.471   3.867  15.931  0.00  0.00    +0.000 A 
ATOM      7  N   UNL     1      47.258   4.455  14.735  0.00  0.00    +0.000 NA
BRANCH   5   8
ATOM      8  C   UNL     1      48.424   3.779  18.270  0.00  0.00    +0.000 C 
BRANCH   8   9
ATOM      9  N   UNL     1      49.817   3.348  18.418  0.00  0.00    +0.000 NA
ATOM     10  H   UNL     1      49.903   2.892  19.333  0.00  0.00    +0.000 HD
BRANCH   9  11
ATOM     11  C   UNL     1      50.197   2.343  17.420  0.00  0.00    +0.000 C 
BRANCH  11  12
ATOM     12  C   UNL     1      51.615   1.891  17.571  0.00  0.00    +0.000 A 
ATOM     13  N   UNL     1      52.634   2.609  18.010  0.00  0.00    +0.000 NA
ATOM     14  C   UNL     1      53.706   1.757  18.032  0.00  0.00    +0.000 A 
ATOM     15  C   UNL     1      53.342   0.508  17.595  0.00  0.00    +0.000 A 
ATOM     16  N   UNL     1      52.011   0.605  17.298  0.00  0.00    +0.000 N 
ATOM     17  H   UNL     1      51.416  -0.137  16.958  0.00  0.00    +0.000 HD
ENDBRANCH  11  12
ENDBRANCH   9  11
ENDBRANCH   8   9
ENDBRANCH   5   8
ENDBRANCH   1   2
BRANCH   1  20
ATOM     18  O   UNL     1      45.594   7.264  11.397  0.00  0.00    +0.000 OA
ATOM     19  C   UNL     1      45.783   6.070  11.572  0.00  0.00    +0.000 C 
ATOM     20  N   UNL     1      46.778   5.542  12.358  0.00  0.00    +0.000 N 
ATOM     21  H   UNL     1      46.687   4.582  12.657  0.00  0.00    +0.000 HD
BRANCH  19  22
ATOM     22  C   UNL     1      44.845   5.031  11.173  0.00  0.00    +0.000 A 
ATOM     23  C   UNL     1      43.792   4.628  11.973  0.00  0.00    +0.000 A 
ATOM     24  S   UNL     1      43.320   3.018  11.609  0.00  0.00    +0.000 S 
ATOM     25  C   UNL     1      44.391   2.944  10.281  0.00  0.00    +0.000 A 
ATOM     26  N   UNL     1      44.633   1.797   9.595  0.00  0.00    +0.000 NA
ATOM     27  C   UNL     1      45.427   1.943   8.583  0.00  0.00    +0.000 A 
ATOM     28  N   UNL     1      45.953   3.141   8.162  0.00  0.00    +0.000 N 
ATOM     29  C   UNL     1      45.737   4.330   8.819  0.00  0.00    +0.000 A 
ATOM     30  O   UNL     1      46.153   5.395   8.395  0.00  0.00    +0.000 OA
ATOM     31  C   UNL     1      44.960   4.173  10.035  0.00  0.00    +0.000 A 
ATOM     32  H   UNL     1      46.483   3.202   7.302  0.00  0.00    +0.000 HD
ENDBRANCH  19  22
ENDBRANCH   1  20
TORSDOF 7
ENDMDL
MODEL 4
REMARK VINA RESULT:    -7.087      2.096      3.539
REMARK INTER + INTRA:         -11.056
REMARK INTER:                 -10.270
REMARK INTRA:                  -0.786
REMARK UNBOUND:                -1.069
REMARK  Name = 
REMARK  7 active torsions:
REMARK  status: ('A' for Active; 'I' for Inactive)
REMARK    1  A    between atoms: C_2  and  C_19
REMARK    2  A    between atoms: N_3  and  C_4
REMARK    3  A    between atoms: C_4  and  C_5
REMARK    4  A    between atoms: C_8  and  C_9
REMARK    5  A    between atoms: C_9  and  N_10
REMARK    6  A    between atoms: N_10  and  C_11
REMARK    7  A    between atoms: C_11  and  C_12
REMARK                            x       y       z     vdW  Elec       q    Type
REMARK                         _______ _______ _______ _____ _____    ______ ____
ROOT
ATOM      1  C   UNL     1      47.144   4.049  15.117  0.00  0.00    +0.000 C 
ENDROOT
BRANCH   1   2
ATOM      2  C   UNL     1      46.424   4.351  13.821  0.00  0.00    +0.000 A 
ATOM      3  N   UNL     1      45.917   3.313  13.132  0.00  0.00    +0.000 NA
ATOM      4  C   UNL     1      45.332   3.604  11.953  0.00  0.00    +0.000 A 
ATOM      5  C   UNL     1      45.240   4.875  11.430  0.00  0.00    +0.000 A 
ATOM      6  C   UNL     1      45.829   5.860  12.195  0.00  0.00    +0.000 A 
ATOM      7  N   UNL     1      46.443   5.627  13.374  0.00  0.00    +0.000 NA
BRANCH   5   8
ATOM      8  C   UNL     1      44.548   5.155  10.134  0.00  0.00    +0.000 C 
BRANCH   8   9
ATOM      9  N   UNL     1      45.454   4.933   9.004  0.00  0.00    +0.000 NA
ATOM     10  H   UNL     1      46.371   4.684   9.388  0.00  0.00    +0.000 HD
BRANCH   9  11
ATOM     11  C   UNL     1      45.036   3.800   8.171  0.00  0.00    +0.000 C 
BRANCH  11  12
ATOM     12  C   UNL     1      46.193   2.976   7.702  0.00  0.00    +0.000 A 
ATOM     13  N   UNL     1      46.385   1.686   7.912  0.00  0.00    +0.000 NA
ATOM     14  C   UNL     1      47.537   1.368   7.242  0.00  0.00    +0.000 A 
ATOM     15  C   UNL     1      48.058   2.476   6.622  0.00  0.00    +0.000 A 
ATOM     16  N   UNL     1      47.199   3.495   6.926  0.00  0.00    +0.000 N 
ATOM     17  H   UNL     1      47.275   4.456   6.620  0.00  0.00    +0.000 HD
ENDBRANCH  11  12
ENDBRANCH   9  11
ENDBRANCH   8   9
ENDBRANCH   5   8
ENDBRANCH   1   2
BRANCH   1  20
ATOM     18  O   UNL     1      49.372   4.309  16.890  0.00  0.00    +0.000 OA
ATOM     19  C   UNL     1      48.670   5.273  16.627  0.00  0.00    +0.000 C 
ATOM     20  N   UNL     1      47.637   5.265  15.722  0.00  0.00    +0.000 N 
ATOM     21  H   UNL     1      46.954   6.007  15.774  0.00  0.00    +0.000 HD
BRANCH  19  22
ATOM     22  C   UNL     1      48.659   6.507  17.399  0.00  0.00    +0.000 A 
ATOM     23  C   UNL     1      48.071   6.601  18.647  0.00  0.00    +0.000 A 
ATOM     24  S   UNL     1      47.602   8.218  18.987  0.00  0.00    +0.000 S 
ATOM     25  C   UNL     1      48.344   8.793  17.561  0.00  0.00    +0.000 A 
ATOM     26  N   UNL     1      48.201  10.071  17.123  0.00  0.00    +0.000 NA
ATOM     27  C   UNL     1      48.883  10.344  16.057  0.00  0.00    +0.000 A 
ATOM     28  N   UNL     1      49.738   9.474  15.426  0.00  0.00    +0.000 N 
ATOM     29  C   UNL     1      49.922   8.172  15.831  0.00  0.00    +0.000 A 
ATOM     30  O   UNL     1      50.736   7.433  15.304  0.00  0.00    +0.000 OA
ATOM     31  C   UNL     1      49.066   7.798  16.943  0.00  0.00    +0.000 A 
ATOM     32  H   UNL     1      50.321   9.783  14.658  0.00  0.00    +0.000 HD
ENDBRANCH  19  22
ENDBRANCH   1  20
TORSDOF 7
ENDMDL
MODEL 5
REMARK VINA RESULT:    -7.001      1.765      2.239
REMARK INTER + INTRA:         -10.934
REMARK INTER:                  -9.912
REMARK INTRA:                  -1.022
REMARK UNBOUND:                -1.069
REMARK  Name = 
REMARK  7 active torsions:
REMARK  status: ('A' for Active; 'I' for Inactive)
REMARK    1  A    between atoms: C_2  and  C_19
REMARK    2  A    between atoms: N_3  and  C_4
REMARK    3  A    between atoms: C_4  and  C_5
REMARK    4  A    between atoms: C_8  and  C_9
REMARK    5  A    between atoms: C_9  and  N_10
REMARK    6  A    between atoms: N_10  and  C_11
REMARK    7  A    between atoms: C_11  and  C_12
REMARK                            x       y       z     vdW  Elec       q    Type
REMARK                         _______ _______ _______ _____ _____    ______ ____
ROOT
ATOM      1  C   UNL     1      48.196   6.631  13.674  0.00  0.00    +0.000 C 
ENDROOT
BRANCH   1   2
ATOM      2  C   UNL     1      46.905   5.956  13.264  0.00  0.00    +0.000 A 
ATOM      3  N   UNL     1      45.862   6.744  12.948  0.00  0.00    +0.000 NA
ATOM      4  C   UNL     1      44.708   6.118  12.644  0.00  0.00    +0.000 A 
ATOM      5  C   UNL     1      44.547   4.750  12.649  0.00  0.00    +0.000 A 
ATOM      6  C   UNL     1      45.665   4.037  13.028  0.00  0.00    +0.000 A 
ATOM      7  N   UNL     1      46.842   4.609  13.360  0.00  0.00    +0.000 NA
BRANCH   5   8
ATOM      8  C   UNL     1      43.256   4.098  12.267  0.00  0.00    +0.000 C 
BRANCH   8   9
ATOM      9  N   UNL     1      43.432   3.259  11.078  0.00  0.00    +0.000 NA
ATOM     10  H   UNL     1      42.526   2.829  10.866  0.00  0.00    +0.000 HD
BRANCH   9  11
ATOM     11  C   UNL     1      43.801   4.043   9.895  0.00  0.00    +0.000 C 
BRANCH  11  12
ATOM     12  C   UNL     1      44.773   3.326   9.011  0.00  0.00    +0.000 A 
ATOM     13  N   UNL     1      45.440   3.833   7.990  0.00  0.00    +0.000 NA
ATOM     14  C   UNL     1      46.246   2.823   7.535  0.00  0.00    +0.000 A 
ATOM     15  C   UNL     1      46.064   1.684   8.281  0.00  0.00    +0.000 A 
ATOM     16  N   UNL     1      45.120   2.013   9.213  0.00  0.00    +0.000 N 
ATOM     17  H   UNL     1      44.754   1.409   9.936  0.00  0.00    +0.000 HD
ENDBRANCH  11  12
ENDBRANCH   9  11
ENDBRANCH   8   9
ENDBRANCH   5   8
ENDBRANCH   1   2
BRANCH   1  20
ATOM     18  O   UNL     1      50.344   6.640  15.561  0.00  0.00    +0.000 OA
ATOM     19  C   UNL     1      49.210   6.937  15.906  0.00  0.00    +0.000 C 
ATOM     20  N   UNL     1      48.137   7.047  15.056  0.00  0.00    +0.000 N 
ATOM     21  H   UNL     1      47.210   7.023  15.457  0.00  0.00    +0.000 HD
BRANCH  19  22
ATOM     22  C   UNL     1      48.767   6.985  17.292  0.00  0.00    +0.000 A 
ATOM     23  C   UNL     1      48.863   8.126  18.067  0.00  0.00    +0.000 A 
ATOM     24  S   UNL     1      48.938   7.734  19.737  0.00  0.00    +0.000 S 
ATOM     25  C   UNL     1      48.662   6.079  19.419  0.00  0.00    +0.000 A 
ATOM     26  N   UNL     1      48.756   5.121  20.377  0.00  0.00    +0.000 NA
ATOM     27  C   UNL     1      48.454   3.931  19.966  0.00  0.00    +0.000 A 
ATOM     28  N   UNL     1      48.012   3.623  18.702  0.00  0.00    +0.000 N 
ATOM     29  C   UNL     1      47.895   4.556  17.697  0.00  0.00    +0.000 A 
ATOM     30  O   UNL     1      47.436   4.282  16.602  0.00  0.00    +0.000 OA
ATOM     31  C   UNL     1      48.356   5.875  18.092  0.00  0.00    +0.000 A 
ATOM     32  H   UNL     1      47.693   2.690  18.476  0.00  0.00    +0.000 HD
ENDBRANCH  19  22
ENDBRANCH   1  20
TORSDOF 7
ENDMDL
MODEL 6
REMARK VINA RESULT:    -6.792      2.222      2.962
REMARK INTER + INTRA:         -10.640
REMARK INTER:                  -9.858
REMARK INTRA:                  -0.781
REMARK UNBOUND:                -1.069
REMARK  Name = 
REMARK  7 active torsions:
REMARK  status: ('A' for Active; 'I' for Inactive)
REMARK    1  A    between atoms: C_2  and  C_19
REMARK    2  A    between atoms: N_3  and  C_4
REMARK    3  A    between atoms: C_4  and  C_5
REMARK    4  A    between atoms: C_8  and  C_9
REMARK    5  A    between atoms: C_9  and  N_10
REMARK    6  A    between atoms: N_10  and  C_11
REMARK    7  A    between atoms: C_11  and  C_12
REMARK                            x       y       z     vdW  Elec       q    Type
REMARK                         _______ _______ _______ _____ _____    ______ ____
ROOT
ATOM      1  C   UNL     1      47.145   4.445  14.832  0.00  0.00    +0.000 C 
ENDROOT
BRANCH   1   2
ATOM      2  C   UNL     1      46.263   4.435  13.602  0.00  0.00    +0.000 A 
ATOM      3  N   UNL     1      45.679   5.592  13.243  0.00  0.00    +0.000 NA
ATOM      4  C   UNL     1      44.854   5.543  12.179  0.00  0.00    +0.000 A 
ATOM      5  C   UNL     1      44.578   4.396  11.468  0.00  0.00    +0.000 A 
ATOM      6  C   UNL     1      45.194   3.257  11.944  0.00  0.00    +0.000 A 
ATOM      7  N   UNL     1      46.017   3.243  13.014  0.00  0.00    +0.000 NA
BRANCH   5   8
ATOM      8  C   UNL     1      43.683   4.397  10.270  0.00  0.00    +0.000 C 
BRANCH   8   9
ATOM      9  N   UNL     1      44.165   3.448   9.262  0.00  0.00    +0.000 NA
ATOM     10  H   UNL     1      43.357   3.151   8.706  0.00  0.00    +0.000 HD
BRANCH   9  11
ATOM     11  C   UNL     1      45.106   4.067   8.322  0.00  0.00    +0.000 C 
BRANCH  11  12
ATOM     12  C   UNL     1      46.122   3.098   7.806  0.00  0.00    +0.000 A 
ATOM     13  N   UNL     1      46.187   1.804   8.065  0.00  0.00    +0.000 NA
ATOM     14  C   UNL     1      47.238   1.330   7.324  0.00  0.00    +0.000 A 
ATOM     15  C   UNL     1      47.825   2.346   6.611  0.00  0.00    +0.000 A 
ATOM     16  N   UNL     1      47.112   3.468   6.930  0.00  0.00    +0.000 N 
ATOM     17  H   UNL     1      47.268   4.400   6.573  0.00  0.00    +0.000 HD
ENDBRANCH  11  12
ENDBRANCH   9  11
ENDBRANCH   8   9
ENDBRANCH   5   8
ENDBRANCH   1   2
BRANCH   1  20
ATOM     18  O   UNL     1      49.037   6.275  13.718  0.00  0.00    +0.000 OA
ATOM     19  C   UNL     1      48.392   6.574  14.711  0.00  0.00    +0.000 C 
ATOM     20  N   UNL     1      47.401   5.799  15.263  0.00  0.00    +0.000 N 
ATOM     21  H   UNL     1      47.124   5.990  16.215  0.00  0.00    +0.000 HD
BRANCH  19  22
ATOM     22  C   UNL     1      48.731   7.675  15.601  0.00  0.00    +0.000 A 
ATOM     23  C   UNL     1      48.484   8.997  15.281  0.00  0.00    +0.000 A 
ATOM     24  S   UNL     1      49.557  10.045  16.118  0.00  0.00    +0.000 S 
ATOM     25  C   UNL     1      50.206   8.751  17.023  0.00  0.00    +0.000 A 
ATOM     26  N   UNL     1      51.289   8.890  17.832  0.00  0.00    +0.000 NA
ATOM     27  C   UNL     1      51.603   7.817  18.485  0.00  0.00    +0.000 A 
ATOM     28  N   UNL     1      50.898   6.638  18.446  0.00  0.00    +0.000 N 
ATOM     29  C   UNL     1      49.794   6.446  17.648  0.00  0.00    +0.000 A 
ATOM     30  O   UNL     1      49.139   5.419  17.677  0.00  0.00    +0.000 OA
ATOM     31  C   UNL     1      49.500   7.590  16.803  0.00  0.00    +0.000 A 
ATOM     32  H   UNL     1      51.137   5.870  19.060  0.00  0.00    +0.000 HD
ENDBRANCH  19  22
ENDBRANCH   1  20
TORSDOF 7
ENDMDL
MODEL 7
REMARK VINA RESULT:    -6.537      2.294      2.935
REMARK INTER + INTRA:         -10.281
REMARK INTER:                  -9.395
REMARK INTRA:                  -0.886
REMARK UNBOUND:                -1.069
REMARK  Name = 
REMARK  7 active torsions:
REMARK  status: ('A' for Active; 'I' for Inactive)
REMARK    1  A    between atoms: C_2  and  C_19
REMARK    2  A    between atoms: N_3  and  C_4
REMARK    3  A    between atoms: C_4  and  C_5
REMARK    4  A    between atoms: C_8  and  C_9
REMARK    5  A    between atoms: C_9  and  N_10
REMARK    6  A    between atoms: N_10  and  C_11
REMARK    7  A    between atoms: C_11  and  C_12
REMARK                            x       y       z     vdW  Elec       q    Type
REMARK                         _______ _______ _______ _____ _____    ______ ____
ROOT
ATOM      1  C   UNL     1      48.376   6.803  12.917  0.00  0.00    +0.000 C 
ENDROOT
BRANCH   1   2
ATOM      2  C   UNL     1      46.950   6.294  12.911  0.00  0.00    +0.000 A 
ATOM      3  N   UNL     1      46.660   5.240  13.694  0.00  0.00    +0.000 NA
ATOM      4  C   UNL     1      45.399   4.770  13.626  0.00  0.00    +0.000 A 
ATOM      5  C   UNL     1      44.423   5.296  12.808  0.00  0.00    +0.000 A 
ATOM      6  C   UNL     1      44.836   6.347  12.015  0.00  0.00    +0.000 A 
ATOM      7  N   UNL     1      46.089   6.848  12.029  0.00  0.00    +0.000 NA
BRANCH   5   8
ATOM      8  C   UNL     1      43.025   4.765  12.794  0.00  0.00    +0.000 C 
BRANCH   8   9
ATOM      9  N   UNL     1      42.705   4.183  11.488  0.00  0.00    +0.000 NA
ATOM     10  H   UNL     1      43.025   4.841  10.770  0.00  0.00    +0.000 HD
BRANCH   9  11
ATOM     11  C   UNL     1      43.429   2.930  11.247  0.00  0.00    +0.000 C 
BRANCH  11  12
ATOM     12  C   UNL     1      44.244   2.969   9.993  0.00  0.00    +0.000 A 
ATOM     13  N   UNL     1      44.449   4.015   9.213  0.00  0.00    +0.000 NA
ATOM     14  C   UNL     1      45.303   3.585   8.233  0.00  0.00    +0.000 A 
ATOM     15  C   UNL     1      45.618   2.261   8.411  0.00  0.00    +0.000 A 
ATOM     16  N   UNL     1      44.934   1.876   9.530  0.00  0.00    +0.000 N 
ATOM     17  H   UNL     1      44.946   0.960   9.956  0.00  0.00    +0.000 HD
ENDBRANCH  11  12
ENDBRANCH   9  11
ENDBRANCH   8   9
ENDBRANCH   5   8
ENDBRANCH   1   2
BRANCH   1  20
ATOM     18  O   UNL     1      50.805   8.076  13.724  0.00  0.00    +0.000 OA
ATOM     19  C   UNL     1      50.051   7.591  14.554  0.00  0.00    +0.000 C 
ATOM     20  N   UNL     1      48.825   7.040  14.269  0.00  0.00    +0.000 N 
ATOM     21  H   UNL     1      48.408   6.430  14.958  0.00  0.00    +0.000 HD
BRANCH  19  22
ATOM     22  C   UNL     1      50.431   7.302  15.929  0.00  0.00    +0.000 A 
ATOM     23  C   UNL     1      51.599   6.640  16.258  0.00  0.00    +0.000 A 
ATOM     24  S   UNL     1      51.456   5.852  17.777  0.00  0.00    +0.000 S 
ATOM     25  C   UNL     1      49.922   6.547  18.056  0.00  0.00    +0.000 A 
ATOM     26  N   UNL     1      49.131   6.186  19.101  0.00  0.00    +0.000 NA
ATOM     27  C   UNL     1      48.030   6.861  19.188  0.00  0.00    +0.000 A 
ATOM     28  N   UNL     1      47.676   7.900  18.362  0.00  0.00    +0.000 N 
ATOM     29  C   UNL     1      48.441   8.307  17.293  0.00  0.00    +0.000 A 
ATOM     30  O   UNL     1      48.149   9.274  16.611  0.00  0.00    +0.000 OA
ATOM     31  C   UNL     1      49.617   7.479  17.090  0.00  0.00    +0.000 A 
ATOM     32  H   UNL     1      46.850   8.454  18.548  0.00  0.00    +0.000 HD
ENDBRANCH  19  22
ENDBRANCH   1  20
TORSDOF 7
ENDMDL
MODEL 8
REMARK VINA RESULT:    -6.487      3.008      7.336
REMARK INTER + INTRA:         -10.210
REMARK INTER:                  -9.074
REMARK INTRA:                  -1.136
REMARK UNBOUND:                -1.069
REMARK  Name = 
REMARK  7 active torsions:
REMARK  status: ('A' for Active; 'I' for Inactive)
REMARK    1  A    between atoms: C_2  and  C_19
REMARK    2  A    between atoms: N_3  and  C_4
REMARK    3  A    between atoms: C_4  and  C_5
REMARK    4  A    between atoms: C_8  and  C_9
REMARK    5  A    between atoms: C_9  and  N_10
REMARK    6  A    between atoms: N_10  and  C_11
REMARK    7  A    between atoms: C_11  and  C_12
REMARK                            x       y       z     vdW  Elec       q    Type
REMARK                         _______ _______ _______ _____ _____    ______ ____
ROOT
ATOM      1  C   UNL     1      47.241   8.569  12.476  0.00  0.00    +0.000 C 
ENDROOT
BRANCH   1   2
ATOM      2  C   UNL     1      47.855   8.021  13.746  0.00  0.00    +0.000 A 
ATOM      3  N   UNL     1      48.049   6.692  13.822  0.00  0.00    +0.000 NA
ATOM      4  C   UNL     1      48.542   6.224  14.985  0.00  0.00    +0.000 A 
ATOM      5  C   UNL     1      48.839   7.016  16.073  0.00  0.00    +0.000 A 
ATOM      6  C   UNL     1      48.563   8.357  15.905  0.00  0.00    +0.000 A 
ATOM      7  N   UNL     1      48.054   8.880  14.770  0.00  0.00    +0.000 NA
BRANCH   5   8
ATOM      8  C   UNL     1      49.421   6.455  17.332  0.00  0.00    +0.000 C 
BRANCH   8   9
ATOM      9  N   UNL     1      48.359   6.053  18.259  0.00  0.00    +0.000 NA
ATOM     10  H   UNL     1      47.534   5.814  17.699  0.00  0.00    +0.000 HD
BRANCH   9  11
ATOM     11  C   UNL     1      48.709   4.844  19.012  0.00  0.00    +0.000 C 
BRANCH  11  12
ATOM     12  C   UNL     1      49.036   3.687  18.121  0.00  0.00    +0.000 A 
ATOM     13  N   UNL     1      48.260   3.157  17.193  0.00  0.00    +0.000 NA
ATOM     14  C   UNL     1      49.007   2.173  16.602  0.00  0.00    +0.000 A 
ATOM     15  C   UNL     1      50.251   2.096  17.179  0.00  0.00    +0.000 A 
ATOM     16  N   UNL     1      50.256   3.060  18.149  0.00  0.00    +0.000 N 
ATOM     17  H   UNL     1      51.025   3.287  18.764  0.00  0.00    +0.000 HD
ENDBRANCH  11  12
ENDBRANCH   9  11
ENDBRANCH   8   9
ENDBRANCH   5   8
ENDBRANCH   1   2
BRANCH   1  20
ATOM     18  O   UNL     1      44.623   7.728  11.696  0.00  0.00    +0.000 OA
ATOM     19  C   UNL     1      45.611   7.118  11.319  0.00  0.00    +0.000 C 
ATOM     20  N   UNL     1      46.907   7.497  11.568  0.00  0.00    +0.000 N 
ATOM     21  H   UNL     1      47.633   6.803  11.461  0.00  0.00    +0.000 HD
BRANCH  19  22
ATOM     22  C   UNL     1      45.573   5.775  10.759  0.00  0.00    +0.000 A 
ATOM     23  C   UNL     1      45.898   5.505   9.443  0.00  0.00    +0.000 A 
ATOM     24  S   UNL     1      45.129   4.070   8.898  0.00  0.00    +0.000 S 
ATOM     25  C   UNL     1      44.527   3.732  10.460  0.00  0.00    +0.000 A 
ATOM     26  N   UNL     1      43.641   2.732  10.705  0.00  0.00    +0.000 NA
ATOM     27  C   UNL     1      43.342   2.586  11.956  0.00  0.00    +0.000 A 
ATOM     28  N   UNL     1      43.891   3.310  12.986  0.00  0.00    +0.000 N 
ATOM     29  C   UNL     1      44.793   4.330  12.793  0.00  0.00    +0.000 A 
ATOM     30  O   UNL     1      45.324   4.917  13.719  0.00  0.00    +0.000 OA
ATOM     31  C   UNL     1      45.044   4.606  11.389  0.00  0.00    +0.000 A 
ATOM     32  H   UNL     1      43.691   3.076  13.951  0.00  0.00    +0.000 HD
ENDBRANCH  19  22
ENDBRANCH   1  20
TORSDOF 7
ENDMDL
MODEL 9
REMARK VINA RESULT:    -6.327      2.941      4.183
REMARK INTER + INTRA:          -9.984
REMARK INTER:                  -9.149
REMARK INTRA:                  -0.835
REMARK UNBOUND:                -1.069
REMARK  Name = 
REMARK  7 active torsions:
REMARK  status: ('A' for Active; 'I' for Inactive)
REMARK    1  A    between atoms: C_2  and  C_19
REMARK    2  A    between atoms: N_3  and  C_4
REMARK    3  A    between atoms: C_4  and  C_5
REMARK    4  A    between atoms: C_8  and  C_9
REMARK    5  A    between atoms: C_9  and  N_10
REMARK    6  A    between atoms: N_10  and  C_11
REMARK    7  A    between atoms: C_11  and  C_12
REMARK                            x       y       z     vdW  Elec       q    Type
REMARK                         _______ _______ _______ _____ _____    ______ ____
ROOT
ATOM      1  C   UNL     1      47.424   5.333  14.469  0.00  0.00    +0.000 C 
ENDROOT
BRANCH   1   2
ATOM      2  C   UNL     1      46.423   4.984  13.388  0.00  0.00    +0.000 A 
ATOM      3  N   UNL     1      46.057   3.695  13.269  0.00  0.00    +0.000 NA
ATOM      4  C   UNL     1      45.210   3.402  12.264  0.00  0.00    +0.000 A 
ATOM      5  C   UNL     1      44.723   4.331  11.370  0.00  0.00    +0.000 A 
ATOM      6  C   UNL     1      45.193   5.614  11.554  0.00  0.00    +0.000 A 
ATOM      7  N   UNL     1      46.054   5.963  12.532  0.00  0.00    +0.000 NA
BRANCH   5   8
ATOM      8  C   UNL     1      43.753   3.965  10.290  0.00  0.00    +0.000 C 
BRANCH   8   9
ATOM      9  N   UNL     1      44.375   3.058   9.322  0.00  0.00    +0.000 NA
ATOM     10  H   UNL     1      43.620   2.584   8.815  0.00  0.00    +0.000 HD
BRANCH   9  11
ATOM     11  C   UNL     1      45.160   3.776   8.312  0.00  0.00    +0.000 C 
BRANCH  11  12
ATOM     12  C   UNL     1      46.247   2.933   7.725  0.00  0.00    +0.000 A 
ATOM     13  N   UNL     1      46.449   1.644   7.927  0.00  0.00    +0.000 NA
ATOM     14  C   UNL     1      47.513   1.305   7.135  0.00  0.00    +0.000 A 
ATOM     15  C   UNL     1      47.972   2.400   6.446  0.00  0.00    +0.000 A 
ATOM     16  N   UNL     1      47.164   3.433   6.833  0.00  0.00    +0.000 N 
ATOM     17  H   UNL     1      47.215   4.389   6.510  0.00  0.00    +0.000 HD
ENDBRANCH  11  12
ENDBRANCH   9  11
ENDBRANCH   8   9
ENDBRANCH   5   8
ENDBRANCH   1   2
BRANCH   1  20
ATOM     18  O   UNL     1      48.554   7.470  15.994  0.00  0.00    +0.000 OA
ATOM     19  C   UNL     1      48.771   7.378  14.796  0.00  0.00    +0.000 C 
ATOM     20  N   UNL     1      48.346   6.342  14.001  0.00  0.00    +0.000 N 
ATOM     21  H   UNL     1      48.332   6.486  13.002  0.00  0.00    +0.000 HD
BRANCH  19  22
ATOM     22  C   UNL     1      49.301   8.461  13.979  0.00  0.00    +0.000 A 
ATOM     23  C   UNL     1      48.489   9.376  13.334  0.00  0.00    +0.000 A 
ATOM     24  S   UNL     1      49.280  10.045  11.965  0.00  0.00    +0.000 S 
ATOM     25  C   UNL     1      50.742   9.253  12.352  0.00  0.00    +0.000 A 
ATOM     26  N   UNL     1      51.816   9.245  11.520  0.00  0.00    +0.000 NA
ATOM     27  C   UNL     1      52.856   8.646  12.004  0.00  0.00    +0.000 A 
ATOM     28  N   UNL     1      52.938   8.106  13.265  0.00  0.00    +0.000 N 
ATOM     29  C   UNL     1      51.882   8.091  14.147  0.00  0.00    +0.000 A 
ATOM     30  O   UNL     1      51.989   7.672  15.287  0.00  0.00    +0.000 OA
ATOM     31  C   UNL     1      50.662   8.636  13.580  0.00  0.00    +0.000 A 
ATOM     32  H   UNL     1      53.813   7.744  13.620  0.00  0.00    +0.000 HD
ENDBRANCH  19  22
ENDBRANCH   1  20
TORSDOF 7
ENDMDL
