MODEL 1
REMARK VINA RESULT:    -7.735      0.000      0.000
REMARK INTER + INTRA:         -12.591
REMARK INTER:                 -11.353
REMARK INTRA:                  -1.238
REMARK UNBOUND:                -1.238
REMARK  Name = 
REMARK  10 active torsions:
REMARK  status: ('A' for Active; 'I' for Inactive)
REMARK    1  A    between atoms: C_1  and  O_2
REMARK    2  A    between atoms: O_2  and  C_3
REMARK    3  A    between atoms: C_10  and  C_11
REMARK    4  A    between atoms: N_13  and  C_14
REMARK    5  A    between atoms: C_14  and  C_15
REMARK    6  A    between atoms: C_18  and  C_19
REMARK    7  A    between atoms: C_19  and  N_20
REMARK    8  A    between atoms: N_20  and  C_21
REMARK    9  A    between atoms: C_21  and  C_22
REMARK   10  A    between atoms: N_26  and  C_27
REMARK                            x       y       z     vdW  Elec       q    Type
REMARK                         _______ _______ _______ _____ _____    ______ ____
ROOT
ATOM      1  C   UNL     1      47.108   6.296  13.008  0.00  0.00    +0.000 A 
ATOM      2  C   UNL     1      46.227   5.349  13.544  0.00  0.00    +0.000 A 
ATOM      3  C   UNL     1      45.043   5.031  12.877  0.00  0.00    +0.000 A 
ATOM      4  C   UNL     1      44.696   5.675  11.681  0.00  0.00    +0.000 A 
ATOM      5  C   UNL     1      45.611   6.575  11.119  0.00  0.00    +0.000 A 
ATOM      6  C   UNL     1      46.806   6.880  11.773  0.00  0.00    +0.000 A 
ENDROOT
BRANCH   1   7
ATOM      7  C   UNL     1      48.382   6.637  13.728  0.00  0.00    +0.000 C 
BRANCH   7  10
ATOM      8  C   UNL     1      49.107   6.723  16.068  0.00  0.00    +0.000 C 
ATOM      9  O   UNL     1      50.249   6.381  15.760  0.00  0.00    +0.000 OA
ATOM     10  N   UNL     1      48.130   6.856  15.129  0.00  0.00    +0.000 N 
ATOM     11  H   UNL     1      47.184   7.090  15.403  0.00  0.00    +0.000 HD
BRANCH   8  19
ATOM     12  C   UNL     1      48.993   4.820  18.945  0.00  0.00    +0.000 A 
ATOM     13  N   UNL     1      48.776   4.311  20.175  0.00  0.00    +0.000 NA
ATOM     14  C   UNL     1      48.291   5.122  21.117  0.00  0.00    +0.000 A 
ATOM     15  N   UNL     1      47.995   6.412  20.990  0.00  0.00    +0.000 NA
ATOM     16  C   UNL     1      48.213   6.877  19.748  0.00  0.00    +0.000 A 
ATOM     17  S   UNL     1      47.899   8.512  19.408  0.00  0.00    +0.000 S 
ATOM     18  C   UNL     1      48.357   8.312  17.785  0.00  0.00    +0.000 A 
ATOM     19  C   UNL     1      48.746   7.016  17.466  0.00  0.00    +0.000 A 
ATOM     20  C   UNL     1      48.690   6.164  18.653  0.00  0.00    +0.000 A 
BRANCH  12  22
ATOM     21  C   UNL     1      50.957   3.886  18.051  0.00  0.00    +0.000 C 
ATOM     22  O   UNL     1      49.534   3.993  17.981  0.00  0.00    +0.000 OA
ENDBRANCH  12  22
ENDBRANCH   8  19
ENDBRANCH   7  10
ENDBRANCH   1   7
BRANCH   4  23
ATOM     23  C   UNL     1      43.386   5.418  10.969  0.00  0.00    +0.000 C 
BRANCH  23  24
ATOM     24  N   UNL     1      43.466   4.562   9.787  0.00  0.00    +0.000 NA
ATOM     25  H   UNL     1      44.005   5.027   9.060  0.00  0.00    +0.000 HD
BRANCH  24  26
ATOM     26  C   UNL     1      44.014   3.229  10.055  0.00  0.00    +0.000 C 
BRANCH  26  27
ATOM     27  C   UNL     1      45.310   3.038   9.252  0.00  0.00    +0.000 C 
ATOM     28  C   UNL     1      45.413   4.042   8.097  0.00  0.00    +0.000 C 
ATOM     29  C   UNL     1      46.696   3.801   7.314  0.00  0.00    +0.000 C 
ATOM     30  C   UNL     1      46.798   2.348   6.852  0.00  0.00    +0.000 C 
ATOM     31  N   UNL     1      46.682   1.414   7.980  0.00  0.00    +0.000 NA
ATOM     32  C   UNL     1      46.812   0.033   7.516  0.00  0.00    +0.000 C 
ATOM     33  C   UNL     1      45.416   1.601   8.707  0.00  0.00    +0.000 C 
ENDBRANCH  26  27
ENDBRANCH  24  26
ENDBRANCH  23  24
ENDBRANCH   4  23
TORSDOF 8
ENDMDL
MODEL 2
REMARK VINA RESULT:    -7.634      1.543      1.870
REMARK INTER + INTRA:         -12.442
REMARK INTER:                 -11.276
REMARK INTRA:                  -1.166
REMARK UNBOUND:                -1.238
REMARK  Name = 
REMARK  10 active torsions:
REMARK  status: ('A' for Active; 'I' for Inactive)
REMARK    1  A    between atoms: C_1  and  O_2
REMARK    2  A    between atoms: O_2  and  C_3
REMARK    3  A    between atoms: C_10  and  C_11
REMARK    4  A    between atoms: N_13  and  C_14
REMARK    5  A    between atoms: C_14  and  C_15
REMARK    6  A    between atoms: C_18  and  C_19
REMARK    7  A    between atoms: C_19  and  N_20
REMARK    8  A    between atoms: N_20  and  C_21
REMARK    9  A    between atoms: C_21  and  C_22
REMARK   10  A    between atoms: N_26  and  C_27
REMARK                            x       y       z     vdW  Elec       q    Type
REMARK                         _______ _______ _______ _____ _____    ______ ____
ROOT
ATOM      1  C   UNL     1      46.390   6.224  13.130  0.00  0.00    +0.000 A 
ATOM      2  C   UNL     1      45.033   6.473  12.892  0.00  0.00    +0.000 A 
ATOM      3  C   UNL     1      44.150   5.415  12.673  0.00  0.00    +0.000 A 
ATOM      4  C   UNL     1      44.607   4.090  12.652  0.00  0.00    +0.000 A 
ATOM      5  C   UNL     1      45.953   3.844  12.954  0.00  0.00    +0.000 A 
ATOM      6  C   UNL     1      46.835   4.900  13.194  0.00  0.00    +0.000 A 
ENDROOT
BRANCH   1   7
ATOM      7  C   UNL     1      47.338   7.366  13.366  0.00  0.00    +0.000 C 
BRANCH   7  10
ATOM      8  C   UNL     1      49.256   7.329  14.892  0.00  0.00    +0.000 C 
ATOM      9  O   UNL     1      50.046   7.413  13.952  0.00  0.00    +0.000 OA
ATOM     10  N   UNL     1      47.910   7.286  14.686  0.00  0.00    +0.000 N 
ATOM     11  H   UNL     1      47.275   7.167  15.464  0.00  0.00    +0.000 HD
BRANCH   8  19
ATOM     12  C   UNL     1      49.119   4.935  17.374  0.00  0.00    +0.000 A 
ATOM     13  N   UNL     1      49.132   4.238  18.528  0.00  0.00    +0.000 NA
ATOM     14  C   UNL     1      49.659   4.816  19.609  0.00  0.00    +0.000 A 
ATOM     15  N   UNL     1      50.198   6.029  19.686  0.00  0.00    +0.000 NA
ATOM     16  C   UNL     1      50.155   6.695  18.520  0.00  0.00    +0.000 A 
ATOM     17  S   UNL     1      50.812   8.259  18.432  0.00  0.00    +0.000 S 
ATOM     18  C   UNL     1      50.378   8.402  16.797  0.00  0.00    +0.000 A 
ATOM     19  C   UNL     1      49.727   7.284  16.288  0.00  0.00    +0.000 A 
ATOM     20  C   UNL     1      49.623   6.248  17.314  0.00  0.00    +0.000 A 
BRANCH  12  22
ATOM     21  C   UNL     1      47.373   3.646  16.469  0.00  0.00    +0.000 C 
ATOM     22  O   UNL     1      48.612   4.321  16.246  0.00  0.00    +0.000 OA
ENDBRANCH  12  22
ENDBRANCH   8  19
ENDBRANCH   7  10
ENDBRANCH   1   7
BRANCH   4  23
ATOM     23  C   UNL     1      43.700   2.921  12.340  0.00  0.00    +0.000 C 
BRANCH  23  24
ATOM     24  N   UNL     1      43.763   2.420  10.968  0.00  0.00    +0.000 NA
ATOM     25  H   UNL     1      42.920   1.893  10.752  0.00  0.00    +0.000 HD
BRANCH  24  26
ATOM     26  C   UNL     1      43.982   3.466   9.964  0.00  0.00    +0.000 C 
BRANCH  26  27
ATOM     27  C   UNL     1      45.289   3.181   9.207  0.00  0.00    +0.000 C 
ATOM     28  C   UNL     1      45.471   4.132   8.016  0.00  0.00    +0.000 C 
ATOM     29  C   UNL     1      46.761   3.799   7.281  0.00  0.00    +0.000 C 
ATOM     30  C   UNL     1      46.807   2.325   6.881  0.00  0.00    +0.000 C 
ATOM     31  N   UNL     1      46.616   1.445   8.041  0.00  0.00    +0.000 NA
ATOM     32  C   UNL     1      46.694   0.042   7.637  0.00  0.00    +0.000 C 
ATOM     33  C   UNL     1      45.341   1.720   8.723  0.00  0.00    +0.000 C 
ENDBRANCH  26  27
ENDBRANCH  24  26
ENDBRANCH  23  24
ENDBRANCH   4  23
TORSDOF 8
ENDMDL
MODEL 3
REMARK VINA RESULT:    -7.292      1.858      3.189
REMARK INTER + INTRA:         -11.941
REMARK INTER:                 -10.560
REMARK INTRA:                  -1.381
REMARK UNBOUND:                -1.238
REMARK  Name = 
REMARK  10 active torsions:
REMARK  status: ('A' for Active; 'I' for Inactive)
REMARK    1  A    between atoms: C_1  and  O_2
REMARK    2  A    between atoms: O_2  and  C_3
REMARK    3  A    between atoms: C_10  and  C_11
REMARK    4  A    between atoms: N_13  and  C_14
REMARK    5  A    between atoms: C_14  and  C_15
REMARK    6  A    between atoms: C_18  and  C_19
REMARK    7  A    between atoms: C_19  and  N_20
REMARK    8  A    between atoms: N_20  and  C_21
REMARK    9  A    between atoms: C_21  and  C_22
REMARK   10  A    between atoms: N_26  and  C_27
REMARK                            x       y       z     vdW  Elec       q    Type
REMARK                         _______ _______ _______ _____ _____    ______ ____
ROOT
ATOM      1  C   UNL     1      46.446   4.318  13.706  0.00  0.00    +0.000 A 
ATOM      2  C   UNL     1      45.798   3.261  13.055  0.00  0.00    +0.000 A 
ATOM      3  C   UNL     1      44.891   3.517  12.026  0.00  0.00    +0.000 A 
ATOM      4  C   UNL     1      44.583   4.832  11.650  0.00  0.00    +0.000 A 
ATOM      5  C   UNL     1      45.280   5.882  12.263  0.00  0.00    +0.000 A 
ATOM      6  C   UNL     1      46.205   5.627  13.278  0.00  0.00    +0.000 A 
ENDROOT
BRANCH   1   7
ATOM      7  C   UNL     1      47.424   4.039  14.814  0.00  0.00    +0.000 C 
BRANCH   7  10
ATOM      8  C   UNL     1      48.531   5.265  16.624  0.00  0.00    +0.000 C 
ATOM      9  O   UNL     1      49.309   4.332  16.823  0.00  0.00    +0.000 OA
ATOM     10  N   UNL     1      47.567   5.192  15.665  0.00  0.00    +0.000 N 
ATOM     11  H   UNL     1      46.903   5.947  15.546  0.00  0.00    +0.000 HD
BRANCH   8  19
ATOM     12  C   UNL     1      48.720   8.602  15.767  0.00  0.00    +0.000 A 
ATOM     13  N   UNL     1      48.886   9.940  15.725  0.00  0.00    +0.000 NA
ATOM     14  C   UNL     1      49.023  10.596  16.879  0.00  0.00    +0.000 A 
ATOM     15  N   UNL     1      49.003  10.076  18.102  0.00  0.00    +0.000 NA
ATOM     16  C   UNL     1      48.849   8.741  18.101  0.00  0.00    +0.000 A 
ATOM     17  S   UNL     1      48.790   7.911  19.582  0.00  0.00    +0.000 S 
ATOM     18  C   UNL     1      48.622   6.417  18.793  0.00  0.00    +0.000 A 
ATOM     19  C   UNL     1      48.614   6.511  17.406  0.00  0.00    +0.000 A 
ATOM     20  C   UNL     1      48.717   7.910  16.993  0.00  0.00    +0.000 A 
BRANCH  12  22
ATOM     21  C   UNL     1      49.737   7.778  13.813  0.00  0.00    +0.000 C 
ATOM     22  O   UNL     1      48.538   7.929  14.576  0.00  0.00    +0.000 OA
ENDBRANCH  12  22
ENDBRANCH   8  19
ENDBRANCH   7  10
ENDBRANCH   1   7
BRANCH   4  23
ATOM     23  C   UNL     1      43.547   5.155  10.597  0.00  0.00    +0.000 C 
BRANCH  23  24
ATOM     24  N   UNL     1      43.700   4.454   9.323  0.00  0.00    +0.000 NA
ATOM     25  H   UNL     1      42.999   4.781   8.662  0.00  0.00    +0.000 HD
BRANCH  24  26
ATOM     26  C   UNL     1      45.041   4.566   8.742  0.00  0.00    +0.000 C 
BRANCH  26  27
ATOM     27  C   UNL     1      45.375   3.275   7.977  0.00  0.00    +0.000 C 
ATOM     28  C   UNL     1      45.659   2.109   8.933  0.00  0.00    +0.000 C 
ATOM     29  C   UNL     1      46.010   0.861   8.136  0.00  0.00    +0.000 C 
ATOM     30  C   UNL     1      47.157   1.129   7.163  0.00  0.00    +0.000 C 
ATOM     31  N   UNL     1      46.858   2.259   6.273  0.00  0.00    +0.000 NA
ATOM     32  C   UNL     1      47.957   2.475   5.334  0.00  0.00    +0.000 C 
ATOM     33  C   UNL     1      46.576   3.485   7.036  0.00  0.00    +0.000 C 
ENDBRANCH  26  27
ENDBRANCH  24  26
ENDBRANCH  23  24
ENDBRANCH   4  23
TORSDOF 8
ENDMDL
MODEL 4
REMARK VINA RESULT:    -7.264      1.587      2.271
REMARK INTER + INTRA:         -11.900
REMARK INTER:                 -10.782
REMARK INTRA:                  -1.118
REMARK UNBOUND:                -1.238
REMARK  Name = 
REMARK  10 active torsions:
REMARK  status: ('A' for Active; 'I' for Inactive)
REMARK    1  A    between atoms: C_1  and  O_2
REMARK    2  A    between atoms: O_2  and  C_3
REMARK    3  A    between atoms: C_10  and  C_11
REMARK    4  A    between atoms: N_13  and  C_14
REMARK    5  A    between atoms: C_14  and  C_15
REMARK    6  A    between atoms: C_18  and  C_19
REMARK    7  A    between atoms: C_19  and  N_20
REMARK    8  A    between atoms: N_20  and  C_21
REMARK    9  A    between atoms: C_21  and  C_22
REMARK   10  A    between atoms: N_26  and  C_27
REMARK                            x       y       z     vdW  Elec       q    Type
REMARK                         _______ _______ _______ _____ _____    ______ ____
ROOT
ATOM      1  C   UNL     1      46.313   7.379  12.734  0.00  0.00    +0.000 A 
ATOM      2  C   UNL     1      45.205   7.875  12.037  0.00  0.00    +0.000 A 
ATOM      3  C   UNL     1      44.307   7.000  11.426  0.00  0.00    +0.000 A 
ATOM      4  C   UNL     1      44.513   5.614  11.466  0.00  0.00    +0.000 A 
ATOM      5  C   UNL     1      45.589   5.122  12.217  0.00  0.00    +0.000 A 
ATOM      6  C   UNL     1      46.478   5.995  12.848  0.00  0.00    +0.000 A 
ENDROOT
BRANCH   1   7
ATOM      7  C   UNL     1      47.279   8.325  13.392  0.00  0.00    +0.000 C 
BRANCH   7  10
ATOM      8  C   UNL     1      49.026   7.774  15.020  0.00  0.00    +0.000 C 
ATOM      9  O   UNL     1      49.907   8.170  14.256  0.00  0.00    +0.000 OA
ATOM     10  N   UNL     1      47.712   7.803  14.662  0.00  0.00    +0.000 N 
ATOM     11  H   UNL     1      47.004   7.429  15.280  0.00  0.00    +0.000 HD
BRANCH   8  19
ATOM     12  C   UNL     1      48.252   4.864  16.705  0.00  0.00    +0.000 A 
ATOM     13  N   UNL     1      48.038   3.889  17.611  0.00  0.00    +0.000 NA
ATOM     14  C   UNL     1      48.552   4.038  18.833  0.00  0.00    +0.000 A 
ATOM     15  N   UNL     1      49.281   5.058  19.276  0.00  0.00    +0.000 NA
ATOM     16  C   UNL     1      49.461   6.013  18.348  0.00  0.00    +0.000 A 
ATOM     17  S   UNL     1      50.380   7.388  18.740  0.00  0.00    +0.000 S 
ATOM     18  C   UNL     1      50.132   8.052  17.196  0.00  0.00    +0.000 A 
ATOM     19  C   UNL     1      49.350   7.261  16.363  0.00  0.00    +0.000 A 
ATOM     20  C   UNL     1      48.975   6.023  17.044  0.00  0.00    +0.000 A 
BRANCH  12  22
ATOM     21  C   UNL     1      47.470   3.328  15.105  0.00  0.00    +0.000 C 
ATOM     22  O   UNL     1      47.755   4.690  15.428  0.00  0.00    +0.000 OA
ENDBRANCH  12  22
ENDBRANCH   8  19
ENDBRANCH   7  10
ENDBRANCH   1   7
BRANCH   4  23
ATOM     23  C   UNL     1      43.609   4.635  10.750  0.00  0.00    +0.000 C 
BRANCH  23  24
ATOM     24  N   UNL     1      43.739   4.605   9.294  0.00  0.00    +0.000 NA
ATOM     25  H   UNL     1      43.222   5.379   8.885  0.00  0.00    +0.000 HD
BRANCH  24  26
ATOM     26  C   UNL     1      45.126   4.609   8.822  0.00  0.00    +0.000 C 
BRANCH  26  27
ATOM     27  C   UNL     1      45.406   3.311   8.047  0.00  0.00    +0.000 C 
ATOM     28  C   UNL     1      45.663   2.132   8.994  0.00  0.00    +0.000 C 
ATOM     29  C   UNL     1      45.961   0.876   8.188  0.00  0.00    +0.000 C 
ATOM     30  C   UNL     1      47.103   1.109   7.200  0.00  0.00    +0.000 C 
ATOM     31  N   UNL     1      46.830   2.252   6.319  0.00  0.00    +0.000 NA
ATOM     32  C   UNL     1      47.923   2.435   5.365  0.00  0.00    +0.000 C 
ATOM     33  C   UNL     1      46.600   3.485   7.090  0.00  0.00    +0.000 C 
ENDBRANCH  26  27
ENDBRANCH  24  26
ENDBRANCH  23  24
ENDBRANCH   4  23
TORSDOF 8
ENDMDL
MODEL 5
REMARK VINA RESULT:    -7.209      1.817      2.558
REMARK INTER + INTRA:         -11.819
REMARK INTER:                 -10.746
REMARK INTRA:                  -1.073
REMARK UNBOUND:                -1.238
REMARK  Name = 
REMARK  10 active torsions:
REMARK  status: ('A' for Active; 'I' for Inactive)
REMARK    1  A    between atoms: C_1  and  O_2
REMARK    2  A    between atoms: O_2  and  C_3
REMARK    3  A    between atoms: C_10  and  C_11
REMARK    4  A    between atoms: N_13  and  C_14
REMARK    5  A    between atoms: C_14  and  C_15
REMARK    6  A    between atoms: C_18  and  C_19
REMARK    7  A    between atoms: C_19  and  N_20
REMARK    8  A    between atoms: N_20  and  C_21
REMARK    9  A    between atoms: C_21  and  C_22
REMARK   10  A    between atoms: N_26  and  C_27
REMARK                            x       y       z     vdW  Elec       q    Type
REMARK                         _______ _______ _______ _____ _____    ______ ____
ROOT
ATOM      1  C   UNL     1      46.733   4.142  13.811  0.00  0.00    +0.000 A 
ATOM      2  C   UNL     1      47.001   5.494  13.566  0.00  0.00    +0.000 A 
ATOM      3  C   UNL     1      46.510   6.113  12.415  0.00  0.00    +0.000 A 
ATOM      4  C   UNL     1      45.774   5.388  11.468  0.00  0.00    +0.000 A 
ATOM      5  C   UNL     1      45.457   4.052  11.749  0.00  0.00    +0.000 A 
ATOM      6  C   UNL     1      45.929   3.436  12.910  0.00  0.00    +0.000 A 
ENDROOT
BRANCH   1   7
ATOM      7  C   UNL     1      47.263   3.478  15.051  0.00  0.00    +0.000 C 
BRANCH   7  10
ATOM      8  C   UNL     1      47.418   4.378  17.326  0.00  0.00    +0.000 C 
ATOM      9  O   UNL     1      46.725   3.463  17.770  0.00  0.00    +0.000 OA
ATOM     10  N   UNL     1      47.715   4.464  15.999  0.00  0.00    +0.000 N 
ATOM     11  H   UNL     1      48.245   5.248  15.641  0.00  0.00    +0.000 HD
BRANCH   8  19
ATOM     12  C   UNL     1      50.626   5.428  18.045  0.00  0.00    +0.000 A 
ATOM     13  N   UNL     1      51.743   5.972  18.570  0.00  0.00    +0.000 NA
ATOM     14  C   UNL     1      51.608   6.902  19.516  0.00  0.00    +0.000 A 
ATOM     15  N   UNL     1      50.471   7.381  20.013  0.00  0.00    +0.000 NA
ATOM     16  C   UNL     1      49.383   6.806  19.474  0.00  0.00    +0.000 A 
ATOM     17  S   UNL     1      47.841   7.306  19.984  0.00  0.00    +0.000 S 
ATOM     18  C   UNL     1      47.085   6.190  18.952  0.00  0.00    +0.000 A 
ATOM     19  C   UNL     1      47.972   5.418  18.211  0.00  0.00    +0.000 A 
ATOM     20  C   UNL     1      49.350   5.811  18.502  0.00  0.00    +0.000 A 
BRANCH  12  22
ATOM     21  C   UNL     1      51.044   3.176  17.511  0.00  0.00    +0.000 C 
ATOM     22  O   UNL     1      50.764   4.495  17.037  0.00  0.00    +0.000 OA
ENDBRANCH  12  22
ENDBRANCH   8  19
ENDBRANCH   7  10
ENDBRANCH   1   7
BRANCH   4  23
ATOM     23  C   UNL     1      45.293   5.999  10.170  0.00  0.00    +0.000 C 
BRANCH  23  24
ATOM     24  N   UNL     1      45.515   5.193   8.971  0.00  0.00    +0.000 NA
ATOM     25  H   UNL     1      46.420   4.732   9.028  0.00  0.00    +0.000 HD
BRANCH  24  26
ATOM     26  C   UNL     1      44.457   4.212   8.711  0.00  0.00    +0.000 C 
BRANCH  26  27
ATOM     27  C   UNL     1      45.041   3.027   7.926  0.00  0.00    +0.000 C 
ATOM     28  C   UNL     1      45.516   1.908   8.861  0.00  0.00    +0.000 C 
ATOM     29  C   UNL     1      46.109   0.768   8.045  0.00  0.00    +0.000 C 
ATOM     30  C   UNL     1      47.207   1.269   7.109  0.00  0.00    +0.000 C 
ATOM     31  N   UNL     1      46.722   2.349   6.238  0.00  0.00    +0.000 NA
ATOM     32  C   UNL     1      47.783   2.790   5.333  0.00  0.00    +0.000 C 
ATOM     33  C   UNL     1      46.202   3.481   7.021  0.00  0.00    +0.000 C 
ENDBRANCH  26  27
ENDBRANCH  24  26
ENDBRANCH  23  24
ENDBRANCH   4  23
TORSDOF 8
ENDMDL
MODEL 6
REMARK VINA RESULT:    -7.112      1.680      2.643
REMARK INTER + INTRA:         -11.676
REMARK INTER:                 -10.394
REMARK INTRA:                  -1.282
REMARK UNBOUND:                -1.238
REMARK  Name = 
REMARK  10 active torsions:
REMARK  status: ('A' for Active; 'I' for Inactive)
REMARK    1  A    between atoms: C_1  and  O_2
REMARK    2  A    between atoms: O_2  and  C_3
REMARK    3  A    between atoms: C_10  and  C_11
REMARK    4  A    between atoms: N_13  and  C_14
REMARK    5  A    between atoms: C_14  and  C_15
REMARK    6  A    between atoms: C_18  and  C_19
REMARK    7  A    between atoms: C_19  and  N_20
REMARK    8  A    between atoms: N_20  and  C_21
REMARK    9  A    between atoms: C_21  and  C_22
REMARK   10  A    between atoms: N_26  and  C_27
REMARK                            x       y       z     vdW  Elec       q    Type
REMARK                         _______ _______ _______ _____ _____    ______ ____
ROOT
ATOM      1  C   UNL     1      47.186   5.870  13.541  0.00  0.00    +0.000 A 
ATOM      2  C   UNL     1      47.052   4.506  13.824  0.00  0.00    +0.000 A 
ATOM      3  C   UNL     1      46.008   3.769  13.263  0.00  0.00    +0.000 A 
ATOM      4  C   UNL     1      45.056   4.384  12.439  0.00  0.00    +0.000 A 
ATOM      5  C   UNL     1      45.231   5.734  12.110  0.00  0.00    +0.000 A 
ATOM      6  C   UNL     1      46.287   6.469  12.652  0.00  0.00    +0.000 A 
ENDROOT
BRANCH   1   7
ATOM      7  C   UNL     1      48.312   6.662  14.145  0.00  0.00    +0.000 C 
BRANCH   7  10
ATOM      8  C   UNL     1      48.839   6.331  16.516  0.00  0.00    +0.000 C 
ATOM      9  O   UNL     1      49.763   5.567  16.237  0.00  0.00    +0.000 OA
ATOM     10  N   UNL     1      48.070   6.898  15.545  0.00  0.00    +0.000 N 
ATOM     11  H   UNL     1      47.284   7.486  15.791  0.00  0.00    +0.000 HD
BRANCH   8  19
ATOM     12  C   UNL     1      47.925   9.263  18.089  0.00  0.00    +0.000 A 
ATOM     13  N   UNL     1      47.649  10.256  18.959  0.00  0.00    +0.000 NA
ATOM     14  C   UNL     1      47.587   9.958  20.258  0.00  0.00    +0.000 A 
ATOM     15  N   UNL     1      47.759   8.762  20.815  0.00  0.00    +0.000 NA
ATOM     16  C   UNL     1      48.044   7.804  19.917  0.00  0.00    +0.000 A 
ATOM     17  S   UNL     1      48.284   6.210  20.452  0.00  0.00    +0.000 S 
ATOM     18  C   UNL     1      48.593   5.674  18.871  0.00  0.00    +0.000 A 
ATOM     19  C   UNL     1      48.529   6.680  17.914  0.00  0.00    +0.000 A 
ATOM     20  C   UNL     1      48.168   7.952  18.538  0.00  0.00    +0.000 A 
BRANCH  12  22
ATOM     21  C   UNL     1      49.113  10.283  16.334  0.00  0.00    +0.000 C 
ATOM     22  O   UNL     1      47.948   9.563  16.742  0.00  0.00    +0.000 OA
ENDBRANCH  12  22
ENDBRANCH   8  19
ENDBRANCH   7  10
ENDBRANCH   1   7
BRANCH   4  23
ATOM     23  C   UNL     1      43.864   3.640  11.877  0.00  0.00    +0.000 C 
BRANCH  23  24
ATOM     24  N   UNL     1      44.156   2.710  10.788  0.00  0.00    +0.000 NA
ATOM     25  H   UNL     1      43.431   1.997  10.737  0.00  0.00    +0.000 HD
BRANCH  24  26
ATOM     26  C   UNL     1      44.327   3.357   9.484  0.00  0.00    +0.000 C 
BRANCH  26  27
ATOM     27  C   UNL     1      45.624   2.856   8.831  0.00  0.00    +0.000 C 
ATOM     28  C   UNL     1      45.996   3.690   7.598  0.00  0.00    +0.000 C 
ATOM     29  C   UNL     1      47.270   3.145   6.969  0.00  0.00    +0.000 C 
ATOM     30  C   UNL     1      47.143   1.654   6.664  0.00  0.00    +0.000 C 
ATOM     31  N   UNL     1      46.773   0.888   7.862  0.00  0.00    +0.000 NA
ATOM     32  C   UNL     1      46.687  -0.539   7.550  0.00  0.00    +0.000 C 
ATOM     33  C   UNL     1      45.510   1.370   8.442  0.00  0.00    +0.000 C 
ENDBRANCH  26  27
ENDBRANCH  24  26
ENDBRANCH  23  24
ENDBRANCH   4  23
TORSDOF 8
ENDMDL
MODEL 7
REMARK VINA RESULT:    -6.952      3.041      5.020
REMARK INTER + INTRA:         -11.442
REMARK INTER:                  -9.985
REMARK INTRA:                  -1.457
REMARK UNBOUND:                -1.238
REMARK  Name = 
REMARK  10 active torsions:
REMARK  status: ('A' for Active; 'I' for Inactive)
REMARK    1  A    between atoms: C_1  and  O_2
REMARK    2  A    between atoms: O_2  and  C_3
REMARK    3  A    between atoms: C_10  and  C_11
REMARK    4  A    between atoms: N_13  and  C_14
REMARK    5  A    between atoms: C_14  and  C_15
REMARK    6  A    between atoms: C_18  and  C_19
REMARK    7  A    between atoms: C_19  and  N_20
REMARK    8  A    between atoms: N_20  and  C_21
REMARK    9  A    between atoms: C_21  and  C_22
REMARK   10  A    between atoms: N_26  and  C_27
REMARK                            x       y       z     vdW  Elec       q    Type
REMARK                         _______ _______ _______ _____ _____    ______ ____
ROOT
ATOM      1  C   UNL     1      47.705   4.411  15.945  0.00  0.00    +0.000 A 
ATOM      2  C   UNL     1      47.138   3.976  14.741  0.00  0.00    +0.000 A 
ATOM      3  C   UNL     1      47.132   4.811  13.623  0.00  0.00    +0.000 A 
ATOM      4  C   UNL     1      47.658   6.108  13.691  0.00  0.00    +0.000 A 
ATOM      5  C   UNL     1      48.279   6.515  14.879  0.00  0.00    +0.000 A 
ATOM      6  C   UNL     1      48.306   5.674  15.994  0.00  0.00    +0.000 A 
ENDROOT
BRANCH   1   7
ATOM      7  C   UNL     1      47.711   3.510  17.148  0.00  0.00    +0.000 C 
BRANCH   7  10
ATOM      8  C   UNL     1      49.873   2.368  16.987  0.00  0.00    +0.000 C 
ATOM      9  O   UNL     1      49.481   1.690  16.037  0.00  0.00    +0.000 OA
ATOM     10  N   UNL     1      49.059   3.274  17.597  0.00  0.00    +0.000 N 
ATOM     11  H   UNL     1      49.379   3.788  18.407  0.00  0.00    +0.000 HD
BRANCH   8  19
ATOM     12  C   UNL     1      52.066   4.574  18.483  0.00  0.00    +0.000 A 
ATOM     13  N   UNL     1      53.133   5.221  18.994  0.00  0.00    +0.000 NA
ATOM     14  C   UNL     1      54.265   4.536  19.163  0.00  0.00    +0.000 A 
ATOM     15  N   UNL     1      54.473   3.252  18.889  0.00  0.00    +0.000 NA
ATOM     16  C   UNL     1      53.392   2.647  18.370  0.00  0.00    +0.000 A 
ATOM     17  S   UNL     1      53.475   0.997  17.970  0.00  0.00    +0.000 S 
ATOM     18  C   UNL     1      51.873   1.003  17.408  0.00  0.00    +0.000 A 
ATOM     19  C   UNL     1      51.248   2.241  17.503  0.00  0.00    +0.000 A 
ATOM     20  C   UNL     1      52.150   3.219  18.110  0.00  0.00    +0.000 A 
BRANCH  12  22
ATOM     21  C   UNL     1      51.063   6.650  18.022  0.00  0.00    +0.000 C 
ATOM     22  O   UNL     1      50.882   5.271  18.347  0.00  0.00    +0.000 OA
ENDBRANCH  12  22
ENDBRANCH   8  19
ENDBRANCH   7  10
ENDBRANCH   1   7
BRANCH   4  23
ATOM     23  C   UNL     1      47.599   7.073  12.527  0.00  0.00    +0.000 C 
BRANCH  23  24
ATOM     24  N   UNL     1      46.746   6.666  11.412  0.00  0.00    +0.000 NA
ATOM     25  H   UNL     1      46.738   5.651  11.335  0.00  0.00    +0.000 HD
BRANCH  24  26
ATOM     26  C   UNL     1      45.377   7.182  11.492  0.00  0.00    +0.000 C 
BRANCH  26  27
ATOM     27  C   UNL     1      44.383   6.014  11.400  0.00  0.00    +0.000 C 
ATOM     28  C   UNL     1      43.959   5.521  12.789  0.00  0.00    +0.000 C 
ATOM     29  C   UNL     1      42.997   4.349  12.652  0.00  0.00    +0.000 C 
ATOM     30  C   UNL     1      43.592   3.243  11.782  0.00  0.00    +0.000 C 
ATOM     31  N   UNL     1      43.999   3.752  10.466  0.00  0.00    +0.000 NA
ATOM     32  C   UNL     1      44.537   2.669   9.643  0.00  0.00    +0.000 C 
ATOM     33  C   UNL     1      44.976   4.846  10.589  0.00  0.00    +0.000 C 
ENDBRANCH  26  27
ENDBRANCH  24  26
ENDBRANCH  23  24
ENDBRANCH   4  23
TORSDOF 8
ENDMDL
MODEL 8
REMARK VINA RESULT:    -6.934      2.416      3.621
REMARK INTER + INTRA:         -11.415
REMARK INTER:                  -9.518
REMARK INTRA:                  -1.897
REMARK UNBOUND:                -1.238
REMARK  Name = 
REMARK  10 active torsions:
REMARK  status: ('A' for Active; 'I' for Inactive)
REMARK    1  A    between atoms: C_1  and  O_2
REMARK    2  A    between atoms: O_2  and  C_3
REMARK    3  A    between atoms: C_10  and  C_11
REMARK    4  A    between atoms: N_13  and  C_14
REMARK    5  A    between atoms: C_14  and  C_15
REMARK    6  A    between atoms: C_18  and  C_19
REMARK    7  A    between atoms: C_19  and  N_20
REMARK    8  A    between atoms: N_20  and  C_21
REMARK    9  A    between atoms: C_21  and  C_22
REMARK   10  A    between atoms: N_26  and  C_27
REMARK                            x       y       z     vdW  Elec       q    Type
REMARK                         _______ _______ _______ _____ _____    ______ ____
ROOT
ATOM      1  C   UNL     1      48.258   8.056  12.750  0.00  0.00    +0.000 A 
ATOM      2  C   UNL     1      47.592   6.999  12.117  0.00  0.00    +0.000 A 
ATOM      3  C   UNL     1      46.281   7.159  11.669  0.00  0.00    +0.000 A 
ATOM      4  C   UNL     1      45.593   8.364  11.875  0.00  0.00    +0.000 A 
ATOM      5  C   UNL     1      46.285   9.437  12.451  0.00  0.00    +0.000 A 
ATOM      6  C   UNL     1      47.605   9.286  12.881  0.00  0.00    +0.000 A 
ENDROOT
BRANCH   1   7
ATOM      7  C   UNL     1      49.671   7.881  13.230  0.00  0.00    +0.000 C 
BRANCH   7  10
ATOM      8  C   UNL     1      49.566   7.285  15.605  0.00  0.00    +0.000 C 
ATOM      9  O   UNL     1      49.392   8.461  15.926  0.00  0.00    +0.000 OA
ATOM     10  N   UNL     1      49.726   6.921  14.303  0.00  0.00    +0.000 N 
ATOM     11  H   UNL     1      49.917   5.958  14.058  0.00  0.00    +0.000 HD
BRANCH   8  19
ATOM     12  C   UNL     1      47.659   4.457  16.128  0.00  0.00    +0.000 A 
ATOM     13  N   UNL     1      47.043   3.360  16.613  0.00  0.00    +0.000 NA
ATOM     14  C   UNL     1      47.505   2.824  17.745  0.00  0.00    +0.000 A 
ATOM     15  N   UNL     1      48.536   3.248  18.468  0.00  0.00    +0.000 NA
ATOM     16  C   UNL     1      49.115   4.348  17.959  0.00  0.00    +0.000 A 
ATOM     17  S   UNL     1      50.459   5.021  18.751  0.00  0.00    +0.000 S 
ATOM     18  C   UNL     1      50.568   6.272  17.607  0.00  0.00    +0.000 A 
ATOM     19  C   UNL     1      49.596   6.212  16.615  0.00  0.00    +0.000 A 
ATOM     20  C   UNL     1      48.744   5.039  16.809  0.00  0.00    +0.000 A 
BRANCH  12  22
ATOM     21  C   UNL     1      46.990   4.006  13.919  0.00  0.00    +0.000 C 
ATOM     22  O   UNL     1      47.208   4.986  14.935  0.00  0.00    +0.000 OA
ENDBRANCH  12  22
ENDBRANCH   8  19
ENDBRANCH   7  10
ENDBRANCH   1   7
BRANCH   4  23
ATOM     23  C   UNL     1      44.145   8.552  11.478  0.00  0.00    +0.000 C 
BRANCH  23  24
ATOM     24  N   UNL     1      43.516   7.408  10.821  0.00  0.00    +0.000 NA
ATOM     25  H   UNL     1      44.230   6.759  10.496  0.00  0.00    +0.000 HD
BRANCH  24  26
ATOM     26  C   UNL     1      42.534   6.710  11.656  0.00  0.00    +0.000 C 
BRANCH  26  27
ATOM     27  C   UNL     1      42.755   5.193  11.546  0.00  0.00    +0.000 C 
ATOM     28  C   UNL     1      43.383   4.618  12.822  0.00  0.00    +0.000 C 
ATOM     29  C   UNL     1      43.608   3.122  12.660  0.00  0.00    +0.000 C 
ATOM     30  C   UNL     1      44.422   2.816  11.405  0.00  0.00    +0.000 C 
ATOM     31  N   UNL     1      43.801   3.392  10.204  0.00  0.00    +0.000 NA
ATOM     32  C   UNL     1      44.583   3.061   9.014  0.00  0.00    +0.000 C 
ATOM     33  C   UNL     1      43.635   4.849  10.329  0.00  0.00    +0.000 C 
ENDBRANCH  26  27
ENDBRANCH  24  26
ENDBRANCH  23  24
ENDBRANCH   4  23
TORSDOF 8
ENDMDL
MODEL 9
REMARK VINA RESULT:    -6.839      4.272      9.692
REMARK INTER + INTRA:         -11.275
REMARK INTER:                 -10.346
REMARK INTRA:                  -0.930
REMARK UNBOUND:                -1.238
REMARK  Name = 
REMARK  10 active torsions:
REMARK  status: ('A' for Active; 'I' for Inactive)
REMARK    1  A    between atoms: C_1  and  O_2
REMARK    2  A    between atoms: O_2  and  C_3
REMARK    3  A    between atoms: C_10  and  C_11
REMARK    4  A    between atoms: N_13  and  C_14
REMARK    5  A    between atoms: C_14  and  C_15
REMARK    6  A    between atoms: C_18  and  C_19
REMARK    7  A    between atoms: C_19  and  N_20
REMARK    8  A    between atoms: N_20  and  C_21
REMARK    9  A    between atoms: C_21  and  C_22
REMARK   10  A    between atoms: N_26  and  C_27
REMARK                            x       y       z     vdW  Elec       q    Type
REMARK                         _______ _______ _______ _____ _____    ______ ____
ROOT
ATOM      1  C   UNL     1      48.666   3.321  17.108  0.00  0.00    +0.000 A 
ATOM      2  C   UNL     1      49.295   4.499  17.529  0.00  0.00    +0.000 A 
ATOM      3  C   UNL     1      50.653   4.497  17.850  0.00  0.00    +0.000 A 
ATOM      4  C   UNL     1      51.403   3.314  17.793  0.00  0.00    +0.000 A 
ATOM      5  C   UNL     1      50.784   2.153  17.312  0.00  0.00    +0.000 A 
ATOM      6  C   UNL     1      49.430   2.157  16.969  0.00  0.00    +0.000 A 
ENDROOT
BRANCH   1   7
ATOM      7  C   UNL     1      47.203   3.326  16.762  0.00  0.00    +0.000 C 
BRANCH   7  10
ATOM      8  C   UNL     1      46.929   4.265  14.514  0.00  0.00    +0.000 C 
ATOM      9  O   UNL     1      47.246   3.195  13.994  0.00  0.00    +0.000 OA
ATOM     10  N   UNL     1      46.898   4.413  15.868  0.00  0.00    +0.000 N 
ATOM     11  H   UNL     1      46.683   5.312  16.281  0.00  0.00    +0.000 HD
BRANCH   8  19
ATOM     12  C   UNL     1      44.148   5.056  12.631  0.00  0.00    +0.000 A 
ATOM     13  N   UNL     1      43.249   5.578  11.772  0.00  0.00    +0.000 NA
ATOM     14  C   UNL     1      43.531   6.747  11.195  0.00  0.00    +0.000 A 
ATOM     15  N   UNL     1      44.620   7.488  11.378  0.00  0.00    +0.000 NA
ATOM     16  C   UNL     1      45.496   6.928  12.230  0.00  0.00    +0.000 A 
ATOM     17  S   UNL     1      46.942   7.745  12.589  0.00  0.00    +0.000 S 
ATOM     18  C   UNL     1      47.453   6.489  13.612  0.00  0.00    +0.000 A 
ATOM     19  C   UNL     1      46.554   5.432  13.697  0.00  0.00    +0.000 A 
ATOM     20  C   UNL     1      45.365   5.712  12.893  0.00  0.00    +0.000 A 
BRANCH  12  22
ATOM     21  C   UNL     1      43.555   2.797  12.355  0.00  0.00    +0.000 C 
ATOM     22  O   UNL     1      43.837   3.866  13.259  0.00  0.00    +0.000 OA
ENDBRANCH  12  22
ENDBRANCH   8  19
ENDBRANCH   7  10
ENDBRANCH   1   7
BRANCH   4  23
ATOM     23  C   UNL     1      52.857   3.251  18.210  0.00  0.00    +0.000 C 
BRANCH  23  24
ATOM     24  N   UNL     1      53.281   2.001  18.835  0.00  0.00    +0.000 NA
ATOM     25  H   UNL     1      52.935   1.210  18.297  0.00  0.00    +0.000 HD
BRANCH  24  26
ATOM     26  C   UNL     1      54.731   1.895  19.025  0.00  0.00    +0.000 C 
BRANCH  26  27
ATOM     27  C   UNL     1      55.279   0.759  18.147  0.00  0.00    +0.000 C 
ATOM     28  C   UNL     1      55.072   1.046  16.655  0.00  0.00    +0.000 C 
ATOM     29  C   UNL     1      55.605  -0.114  15.825  0.00  0.00    +0.000 C 
ATOM     30  C   UNL     1      54.992  -1.441  16.269  0.00  0.00    +0.000 C 
ATOM     31  N   UNL     1      55.197  -1.677  17.705  0.00  0.00    +0.000 NA
ATOM     32  C   UNL     1      54.628  -2.966  18.097  0.00  0.00    +0.000 C 
ATOM     33  C   UNL     1      54.631  -0.589  18.517  0.00  0.00    +0.000 C 
ENDBRANCH  26  27
ENDBRANCH  24  26
ENDBRANCH  23  24
ENDBRANCH   4  23
TORSDOF 8
ENDMDL
