MODEL 1
REMARK VINA RESULT:    -7.062      0.000      0.000
REMARK INTER + INTRA:          -9.213
REMARK INTER:                  -8.920
REMARK INTRA:                  -0.293
REMARK UNBOUND:                -0.293
REMARK  Name = 
REMARK  5 active torsions:
REMARK  status: ('A' for Active; 'I' for Inactive)
REMARK    1  A    between atoms: N_1  and  C_2
REMARK    2  A    between atoms: C_2  and  C_3
REMARK    3  A    between atoms: C_6  and  S_7
REMARK    4  A    between atoms: S_7  and  C_8
REMARK    5  A    between atoms: C_8  and  C_9
REMARK                            x       y       z     vdW  Elec       q    Type
REMARK                         _______ _______ _______ _____ _____    ______ ____
ROOT
ATOM      1  C   UNL     1      46.615   2.340   7.544  0.00  0.00    +0.000 A 
ATOM      2  C   UNL     1      46.434   3.732   7.530  0.00  0.00    +0.000 A 
ATOM      3  C   UNL     1      45.530   4.352   8.406  0.00  0.00    +0.000 A 
ATOM      4  C   UNL     1      44.783   3.590   9.308  0.00  0.00    +0.000 A 
ATOM      5  C   UNL     1      44.962   2.201   9.317  0.00  0.00    +0.000 A 
ATOM      6  C   UNL     1      45.863   1.580   8.445  0.00  0.00    +0.000 A 
ENDROOT
BRANCH   1   7
ATOM      7  C   UNL     1      47.584   1.671   6.601  0.00  0.00    +0.000 C 
BRANCH   7   8
ATOM      8  N   UNL     1      48.708   2.537   6.264  0.00  0.00    +0.000 NA
ATOM      9  H   UNL     1      48.591   3.432   6.737  0.00  0.00    +0.000 HD
ATOM     10  H   UNL     1      48.679   2.738   5.265  0.00  0.00    +0.000 HD
ENDBRANCH   7   8
ENDBRANCH   1   7
BRANCH   4  11
ATOM     11  S   UNL     1      43.691   4.265  10.548  0.00  0.00    +0.000 S 
BRANCH  11  12
ATOM     12  C   UNL     1      44.286   3.512  12.109  0.00  0.00    +0.000 C 
BRANCH  12  13
ATOM     13  C   UNL     1      45.383   4.357  12.723  0.00  0.00    +0.000 A 
ATOM     14  N   UNL     1      45.797   5.447  12.038  0.00  0.00    +0.000 NA
ATOM     15  C   UNL     1      46.831   6.132  12.560  0.00  0.00    +0.000 A 
ATOM     16  C   UNL     1      47.459   5.784  13.733  0.00  0.00    +0.000 A 
ATOM     17  C   UNL     1      46.954   4.674  14.366  0.00  0.00    +0.000 A 
ATOM     18  N   UNL     1      45.923   3.947  13.892  0.00  0.00    +0.000 NA
ENDBRANCH  12  13
ENDBRANCH  11  12
ENDBRANCH   4  11
TORSDOF 5
ENDMDL
MODEL 2
REMARK VINA RESULT:    -6.540      1.748      6.058
REMARK INTER + INTRA:          -8.554
REMARK INTER:                  -8.253
REMARK INTRA:                  -0.301
REMARK UNBOUND:                -0.293
REMARK  Name = 
REMARK  5 active torsions:
REMARK  status: ('A' for Active; 'I' for Inactive)
REMARK    1  A    between atoms: N_1  and  C_2
REMARK    2  A    between atoms: C_2  and  C_3
REMARK    3  A    between atoms: C_6  and  S_7
REMARK    4  A    between atoms: S_7  and  C_8
REMARK    5  A    between atoms: C_8  and  C_9
REMARK                            x       y       z     vdW  Elec       q    Type
REMARK                         _______ _______ _______ _____ _____    ______ ____
ROOT
ATOM      1  C   UNL     1      46.937   5.797  13.047  0.00  0.00    +0.000 A 
ATOM      2  C   UNL     1      46.191   4.630  13.276  0.00  0.00    +0.000 A 
ATOM      3  C   UNL     1      45.292   4.146  12.314  0.00  0.00    +0.000 A 
ATOM      4  C   UNL     1      45.116   4.823  11.105  0.00  0.00    +0.000 A 
ATOM      5  C   UNL     1      45.858   5.990  10.880  0.00  0.00    +0.000 A 
ATOM      6  C   UNL     1      46.755   6.475  11.837  0.00  0.00    +0.000 A 
ENDROOT
BRANCH   1   7
ATOM      7  C   UNL     1      47.902   6.321  14.081  0.00  0.00    +0.000 C 
BRANCH   7   8
ATOM      8  N   UNL     1      47.910   5.504  15.288  0.00  0.00    +0.000 NA
ATOM      9  H   UNL     1      47.653   4.548  15.044  0.00  0.00    +0.000 HD
ATOM     10  H   UNL     1      47.181   5.841  15.916  0.00  0.00    +0.000 HD
ENDBRANCH   7   8
ENDBRANCH   1   7
BRANCH   4  11
ATOM     11  S   UNL     1      44.094   4.251   9.759  0.00  0.00    +0.000 S 
BRANCH  11  12
ATOM     12  C   UNL     1      44.591   2.498   9.550  0.00  0.00    +0.000 C 
BRANCH  12  13
ATOM     13  C   UNL     1      45.621   2.364   8.449  0.00  0.00    +0.000 A 
ATOM     14  N   UNL     1      45.820   3.429   7.639  0.00  0.00    +0.000 NA
ATOM     15  C   UNL     1      46.676   3.257   6.615  0.00  0.00    +0.000 A 
ATOM     16  C   UNL     1      47.344   2.080   6.372  0.00  0.00    +0.000 A 
ATOM     17  C   UNL     1      47.091   1.063   7.260  0.00  0.00    +0.000 A 
ATOM     18  N   UNL     1      46.245   1.174   8.303  0.00  0.00    +0.000 NA
ENDBRANCH  12  13
ENDBRANCH  11  12
ENDBRANCH   4  11
TORSDOF 5
ENDMDL
MODEL 3
REMARK VINA RESULT:    -6.152      2.058      5.894
REMARK INTER + INTRA:          -8.064
REMARK INTER:                  -7.747
REMARK INTRA:                  -0.316
REMARK UNBOUND:                -0.293
REMARK  Name = 
REMARK  5 active torsions:
REMARK  status: ('A' for Active; 'I' for Inactive)
REMARK    1  A    between atoms: N_1  and  C_2
REMARK    2  A    between atoms: C_2  and  C_3
REMARK    3  A    between atoms: C_6  and  S_7
REMARK    4  A    between atoms: S_7  and  C_8
REMARK    5  A    between atoms: C_8  and  C_9
REMARK                            x       y       z     vdW  Elec       q    Type
REMARK                         _______ _______ _______ _____ _____    ______ ____
ROOT
ATOM      1  C   UNL     1      47.434   6.225  13.447  0.00  0.00    +0.000 A 
ATOM      2  C   UNL     1      46.842   6.695  12.264  0.00  0.00    +0.000 A 
ATOM      3  C   UNL     1      45.878   5.934  11.585  0.00  0.00    +0.000 A 
ATOM      4  C   UNL     1      45.493   4.683  12.073  0.00  0.00    +0.000 A 
ATOM      5  C   UNL     1      46.089   4.213  13.251  0.00  0.00    +0.000 A 
ATOM      6  C   UNL     1      47.049   4.970  13.929  0.00  0.00    +0.000 A 
ENDROOT
BRANCH   1   7
ATOM      7  C   UNL     1      48.473   7.040  14.176  0.00  0.00    +0.000 C 
BRANCH   7   8
ATOM      8  N   UNL     1      49.774   6.983  13.521  0.00  0.00    +0.000 NA
ATOM      9  H   UNL     1      49.974   6.018  13.262  0.00  0.00    +0.000 HD
ATOM     10  H   UNL     1      50.492   7.251  14.194  0.00  0.00    +0.000 HD
ENDBRANCH   7   8
ENDBRANCH   1   7
BRANCH   4  11
ATOM     11  S   UNL     1      44.201   3.672  11.371  0.00  0.00    +0.000 S 
BRANCH  11  12
ATOM     12  C   UNL     1      44.072   4.270   9.642  0.00  0.00    +0.000 C 
BRANCH  12  13
ATOM     13  C   UNL     1      45.073   3.559   8.757  0.00  0.00    +0.000 A 
ATOM     14  N   UNL     1      45.212   2.222   8.909  0.00  0.00    +0.000 NA
ATOM     15  C   UNL     1      46.168   1.627   8.174  0.00  0.00    +0.000 A 
ATOM     16  C   UNL     1      46.979   2.302   7.292  0.00  0.00    +0.000 A 
ATOM     17  C   UNL     1      46.749   3.652   7.192  0.00  0.00    +0.000 A 
ATOM     18  N   UNL     1      45.809   4.304   7.902  0.00  0.00    +0.000 NA
ENDBRANCH  12  13
ENDBRANCH  11  12
ENDBRANCH   4  11
TORSDOF 5
ENDMDL
MODEL 4
REMARK VINA RESULT:    -6.077      2.389      6.165
REMARK INTER + INTRA:          -7.970
REMARK INTER:                  -7.680
REMARK INTRA:                  -0.290
REMARK UNBOUND:                -0.293
REMARK  Name = 
REMARK  5 active torsions:
REMARK  status: ('A' for Active; 'I' for Inactive)
REMARK    1  A    between atoms: N_1  and  C_2
REMARK    2  A    between atoms: C_2  and  C_3
REMARK    3  A    between atoms: C_6  and  S_7
REMARK    4  A    between atoms: S_7  and  C_8
REMARK    5  A    between atoms: C_8  and  C_9
REMARK                            x       y       z     vdW  Elec       q    Type
REMARK                         _______ _______ _______ _____ _____    ______ ____
ROOT
ATOM      1  C   UNL     1      45.529   7.791  12.158  0.00  0.00    +0.000 A 
ATOM      2  C   UNL     1      46.472   6.886  12.668  0.00  0.00    +0.000 A 
ATOM      3  C   UNL     1      46.294   5.501  12.532  0.00  0.00    +0.000 A 
ATOM      4  C   UNL     1      45.163   4.994  11.888  0.00  0.00    +0.000 A 
ATOM      5  C   UNL     1      44.220   5.898  11.384  0.00  0.00    +0.000 A 
ATOM      6  C   UNL     1      44.395   7.279  11.518  0.00  0.00    +0.000 A 
ENDROOT
BRANCH   1   7
ATOM      7  C   UNL     1      45.717   9.280  12.305  0.00  0.00    +0.000 C 
BRANCH   7   8
ATOM      8  N   UNL     1      44.454   9.972  12.535  0.00  0.00    +0.000 NA
ATOM      9  H   UNL     1      43.691   9.301  12.466  0.00  0.00    +0.000 HD
ATOM     10  H   UNL     1      44.309  10.646  11.785  0.00  0.00    +0.000 HD
ENDBRANCH   7   8
ENDBRANCH   1   7
BRANCH   4  11
ATOM     11  S   UNL     1      44.876   3.265  11.550  0.00  0.00    +0.000 S 
BRANCH  11  12
ATOM     12  C   UNL     1      44.206   3.261   9.843  0.00  0.00    +0.000 C 
BRANCH  12  13
ATOM     13  C   UNL     1      45.302   2.961   8.842  0.00  0.00    +0.000 A 
ATOM     14  N   UNL     1      45.746   3.979   8.069  0.00  0.00    +0.000 NA
ATOM     15  C   UNL     1      46.656   3.670   7.128  0.00  0.00    +0.000 A 
ATOM     16  C   UNL     1      47.147   2.400   6.933  0.00  0.00    +0.000 A 
ATOM     17  C   UNL     1      46.650   1.439   7.778  0.00  0.00    +0.000 A 
ATOM     18  N   UNL     1      45.737   1.686   8.738  0.00  0.00    +0.000 NA
ENDBRANCH  12  13
ENDBRANCH  11  12
ENDBRANCH   4  11
TORSDOF 5
ENDMDL
MODEL 5
REMARK VINA RESULT:    -5.613      1.502      2.329
REMARK INTER + INTRA:          -7.383
REMARK INTER:                  -7.202
REMARK INTRA:                  -0.181
REMARK UNBOUND:                -0.293
REMARK  Name = 
REMARK  5 active torsions:
REMARK  status: ('A' for Active; 'I' for Inactive)
REMARK    1  A    between atoms: N_1  and  C_2
REMARK    2  A    between atoms: C_2  and  C_3
REMARK    3  A    between atoms: C_6  and  S_7
REMARK    4  A    between atoms: S_7  and  C_8
REMARK    5  A    between atoms: C_8  and  C_9
REMARK                            x       y       z     vdW  Elec       q    Type
REMARK                         _______ _______ _______ _____ _____    ______ ____
ROOT
ATOM      1  C   UNL     1      45.662   3.541   8.263  0.00  0.00    +0.000 A 
ATOM      2  C   UNL     1      45.095   2.546   9.073  0.00  0.00    +0.000 A 
ATOM      3  C   UNL     1      44.637   2.839  10.367  0.00  0.00    +0.000 A 
ATOM      4  C   UNL     1      44.745   4.135  10.878  0.00  0.00    +0.000 A 
ATOM      5  C   UNL     1      45.317   5.126  10.070  0.00  0.00    +0.000 A 
ATOM      6  C   UNL     1      45.773   4.836   8.780  0.00  0.00    +0.000 A 
ENDROOT
BRANCH   1   7
ATOM      7  C   UNL     1      46.157   3.228   6.873  0.00  0.00    +0.000 C 
BRANCH   7   8
ATOM      8  N   UNL     1      47.611   3.124   6.819  0.00  0.00    +0.000 NA
ATOM      9  H   UNL     1      47.958   3.712   6.063  0.00  0.00    +0.000 HD
ATOM     10  H   UNL     1      47.862   2.167   6.574  0.00  0.00    +0.000 HD
ENDBRANCH   7   8
ENDBRANCH   1   7
BRANCH   4  11
ATOM     11  S   UNL     1      44.100   4.661  12.457  0.00  0.00    +0.000 S 
BRANCH  11  12
ATOM     12  C   UNL     1      45.578   4.696  13.541  0.00  0.00    +0.000 C 
BRANCH  12  13
ATOM     13  C   UNL     1      46.471   5.867  13.187  0.00  0.00    +0.000 A 
ATOM     14  N   UNL     1      45.876   7.015  12.789  0.00  0.00    +0.000 NA
ATOM     15  C   UNL     1      46.691   8.012  12.396  0.00  0.00    +0.000 A 
ATOM     16  C   UNL     1      48.062   7.916  12.393  0.00  0.00    +0.000 A 
ATOM     17  C   UNL     1      48.572   6.719  12.831  0.00  0.00    +0.000 A 
ATOM     18  N   UNL     1      47.809   5.685  13.236  0.00  0.00    +0.000 NA
ENDBRANCH  12  13
ENDBRANCH  11  12
ENDBRANCH   4  11
TORSDOF 5
ENDMDL
MODEL 6
REMARK VINA RESULT:    -5.610      2.053      6.470
REMARK INTER + INTRA:          -7.379
REMARK INTER:                  -7.089
REMARK INTRA:                  -0.290
REMARK UNBOUND:                -0.293
REMARK  Name = 
REMARK  5 active torsions:
REMARK  status: ('A' for Active; 'I' for Inactive)
REMARK    1  A    between atoms: N_1  and  C_2
REMARK    2  A    between atoms: C_2  and  C_3
REMARK    3  A    between atoms: C_6  and  S_7
REMARK    4  A    between atoms: S_7  and  C_8
REMARK    5  A    between atoms: C_8  and  C_9
REMARK                            x       y       z     vdW  Elec       q    Type
REMARK                         _______ _______ _______ _____ _____    ______ ____
ROOT
ATOM      1  C   UNL     1      47.382   4.630  15.292  0.00  0.00    +0.000 A 
ATOM      2  C   UNL     1      47.865   5.867  14.837  0.00  0.00    +0.000 A 
ATOM      3  C   UNL     1      47.480   6.380  13.589  0.00  0.00    +0.000 A 
ATOM      4  C   UNL     1      46.608   5.660  12.767  0.00  0.00    +0.000 A 
ATOM      5  C   UNL     1      46.132   4.423  13.221  0.00  0.00    +0.000 A 
ATOM      6  C   UNL     1      46.515   3.910  14.464  0.00  0.00    +0.000 A 
ENDROOT
BRANCH   1   7
ATOM      7  C   UNL     1      47.798   4.076  16.632  0.00  0.00    +0.000 C 
BRANCH   7   8
ATOM      8  N   UNL     1      46.694   3.414  17.317  0.00  0.00    +0.000 NA
ATOM      9  H   UNL     1      46.508   3.900  18.193  0.00  0.00    +0.000 HD
ATOM     10  H   UNL     1      46.985   2.471  17.572  0.00  0.00    +0.000 HD
ENDBRANCH   7   8
ENDBRANCH   1   7
BRANCH   4  11
ATOM     11  S   UNL     1      45.954   6.251  11.216  0.00  0.00    +0.000 S 
BRANCH  11  12
ATOM     12  C   UNL     1      44.661   5.022  10.792  0.00  0.00    +0.000 C 
BRANCH  12  13
ATOM     13  C   UNL     1      45.125   4.131   9.659  0.00  0.00    +0.000 A 
ATOM     14  N   UNL     1      44.964   2.796   9.801  0.00  0.00    +0.000 NA
ATOM     15  C   UNL     1      45.463   2.020   8.820  0.00  0.00    +0.000 A 
ATOM     16  C   UNL     1      46.101   2.517   7.708  0.00  0.00    +0.000 A 
ATOM     17  C   UNL     1      46.198   3.886   7.645  0.00  0.00    +0.000 A 
ATOM     18  N   UNL     1      45.721   4.714   8.594  0.00  0.00    +0.000 NA
ENDBRANCH  12  13
ENDBRANCH  11  12
ENDBRANCH   4  11
TORSDOF 5
ENDMDL
MODEL 7
REMARK VINA RESULT:    -5.208      2.092      3.220
REMARK INTER + INTRA:          -6.871
REMARK INTER:                  -6.622
REMARK INTRA:                  -0.249
REMARK UNBOUND:                -0.293
REMARK  Name = 
REMARK  5 active torsions:
REMARK  status: ('A' for Active; 'I' for Inactive)
REMARK    1  A    between atoms: N_1  and  C_2
REMARK    2  A    between atoms: C_2  and  C_3
REMARK    3  A    between atoms: C_6  and  S_7
REMARK    4  A    between atoms: S_7  and  C_8
REMARK    5  A    between atoms: C_8  and  C_9
REMARK                            x       y       z     vdW  Elec       q    Type
REMARK                         _______ _______ _______ _____ _____    ______ ____
ROOT
ATOM      1  C   UNL     1      45.281   3.836   8.831  0.00  0.00    +0.000 A 
ATOM      2  C   UNL     1      44.888   2.914   9.813  0.00  0.00    +0.000 A 
ATOM      3  C   UNL     1      44.869   3.267  11.171  0.00  0.00    +0.000 A 
ATOM      4  C   UNL     1      45.250   4.550  11.573  0.00  0.00    +0.000 A 
ATOM      5  C   UNL     1      45.646   5.468  10.591  0.00  0.00    +0.000 A 
ATOM      6  C   UNL     1      45.666   5.117   9.238  0.00  0.00    +0.000 A 
ENDROOT
BRANCH   1   7
ATOM      7  C   UNL     1      45.305   3.457   7.371  0.00  0.00    +0.000 C 
BRANCH   7   8
ATOM      8  N   UNL     1      46.527   3.901   6.710  0.00  0.00    +0.000 NA
ATOM      9  H   UNL     1      46.359   3.959   5.706  0.00  0.00    +0.000 HD
ATOM     10  H   UNL     1      47.245   3.189   6.837  0.00  0.00    +0.000 HD
ENDBRANCH   7   8
ENDBRANCH   1   7
BRANCH   4  11
ATOM     11  S   UNL     1      45.160   5.158  13.249  0.00  0.00    +0.000 S 
BRANCH  11  12
ATOM     12  C   UNL     1      46.428   4.175  14.137  0.00  0.00    +0.000 C 
BRANCH  12  13
ATOM     13  C   UNL     1      47.486   5.082  14.728  0.00  0.00    +0.000 A 
ATOM     14  N   UNL     1      47.894   4.834  15.994  0.00  0.00    +0.000 NA
ATOM     15  C   UNL     1      48.770   5.704  16.528  0.00  0.00    +0.000 A 
ATOM     16  C   UNL     1      49.260   6.799  15.855  0.00  0.00    +0.000 A 
ATOM     17  C   UNL     1      48.802   6.956  14.570  0.00  0.00    +0.000 A 
ATOM     18  N   UNL     1      47.925   6.119  13.981  0.00  0.00    +0.000 NA
ENDBRANCH  12  13
ENDBRANCH  11  12
ENDBRANCH   4  11
TORSDOF 5
ENDMDL
MODEL 8
REMARK VINA RESULT:    -5.162      2.624      6.236
REMARK INTER + INTRA:          -6.813
REMARK INTER:                  -6.505
REMARK INTRA:                  -0.308
REMARK UNBOUND:                -0.293
REMARK  Name = 
REMARK  5 active torsions:
REMARK  status: ('A' for Active; 'I' for Inactive)
REMARK    1  A    between atoms: N_1  and  C_2
REMARK    2  A    between atoms: C_2  and  C_3
REMARK    3  A    between atoms: C_6  and  S_7
REMARK    4  A    between atoms: S_7  and  C_8
REMARK    5  A    between atoms: C_8  and  C_9
REMARK                            x       y       z     vdW  Elec       q    Type
REMARK                         _______ _______ _______ _____ _____    ______ ____
ROOT
ATOM      1  C   UNL     1      47.237   8.650  12.239  0.00  0.00    +0.000 A 
ATOM      2  C   UNL     1      45.901   8.780  12.649  0.00  0.00    +0.000 A 
ATOM      3  C   UNL     1      45.071   7.657  12.779  0.00  0.00    +0.000 A 
ATOM      4  C   UNL     1      45.560   6.380  12.494  0.00  0.00    +0.000 A 
ATOM      5  C   UNL     1      46.892   6.252  12.079  0.00  0.00    +0.000 A 
ATOM      6  C   UNL     1      47.721   7.370  11.949  0.00  0.00    +0.000 A 
ENDROOT
BRANCH   1   7
ATOM      7  C   UNL     1      48.130   9.857  12.095  0.00  0.00    +0.000 C 
BRANCH   7   8
ATOM      8  N   UNL     1      47.547  11.047  12.704  0.00  0.00    +0.000 NA
ATOM      9  H   UNL     1      46.568  11.113  12.430  0.00  0.00    +0.000 HD
ATOM     10  H   UNL     1      48.007  11.871  12.319  0.00  0.00    +0.000 HD
ENDBRANCH   7   8
ENDBRANCH   1   7
BRANCH   4  11
ATOM     11  S   UNL     1      44.645   4.865  12.729  0.00  0.00    +0.000 S 
BRANCH  11  12
ATOM     12  C   UNL     1      43.546   4.789  11.263  0.00  0.00    +0.000 C 
BRANCH  12  13
ATOM     13  C   UNL     1      44.223   4.047  10.129  0.00  0.00    +0.000 A 
ATOM     14  N   UNL     1      44.049   2.708  10.060  0.00  0.00    +0.000 NA
ATOM     15  C   UNL     1      44.730   2.060   9.096  0.00  0.00    +0.000 A 
ATOM     16  C   UNL     1      45.563   2.688   8.200  0.00  0.00    +0.000 A 
ATOM     17  C   UNL     1      45.659   4.051   8.339  0.00  0.00    +0.000 A 
ATOM     18  N   UNL     1      45.004   4.755   9.283  0.00  0.00    +0.000 NA
ENDBRANCH  12  13
ENDBRANCH  11  12
ENDBRANCH   4  11
TORSDOF 5
ENDMDL
MODEL 9
REMARK VINA RESULT:    -5.026      5.070      8.395
REMARK INTER + INTRA:          -6.641
REMARK INTER:                  -6.376
REMARK INTRA:                  -0.265
REMARK UNBOUND:                -0.293
REMARK  Name = 
REMARK  5 active torsions:
REMARK  status: ('A' for Active; 'I' for Inactive)
REMARK    1  A    between atoms: N_1  and  C_2
REMARK    2  A    between atoms: C_2  and  C_3
REMARK    3  A    between atoms: C_6  and  S_7
REMARK    4  A    between atoms: S_7  and  C_8
REMARK    5  A    between atoms: C_8  and  C_9
REMARK                            x       y       z     vdW  Elec       q    Type
REMARK                         _______ _______ _______ _____ _____    ______ ____
ROOT
ATOM      1  C   UNL     1      51.975   2.010  17.650  0.00  0.00    +0.000 A 
ATOM      2  C   UNL     1      50.722   1.561  17.207  0.00  0.00    +0.000 A 
ATOM      3  C   UNL     1      49.637   2.443  17.088  0.00  0.00    +0.000 A 
ATOM      4  C   UNL     1      49.784   3.793  17.416  0.00  0.00    +0.000 A 
ATOM      5  C   UNL     1      51.035   4.238  17.863  0.00  0.00    +0.000 A 
ATOM      6  C   UNL     1      52.117   3.361  17.983  0.00  0.00    +0.000 A 
ENDROOT
BRANCH   1   7
ATOM      7  C   UNL     1      53.141   1.062  17.782  0.00  0.00    +0.000 C 
BRANCH   7   8
ATOM      8  N   UNL     1      52.740  -0.227  18.333  0.00  0.00    +0.000 NA
ATOM      9  H   UNL     1      52.975  -0.252  19.325  0.00  0.00    +0.000 HD
ATOM     10  H   UNL     1      53.296  -0.959  17.891  0.00  0.00    +0.000 HD
ENDBRANCH   7   8
ENDBRANCH   1   7
BRANCH   4  11
ATOM     11  S   UNL     1      48.521   5.035  17.200  0.00  0.00    +0.000 S 
BRANCH  11  12
ATOM     12  C   UNL     1      47.210   4.163  16.261  0.00  0.00    +0.000 C 
BRANCH  12  13
ATOM     13  C   UNL     1      47.079   4.740  14.867  0.00  0.00    +0.000 A 
ATOM     14  N   UNL     1      47.997   5.652  14.474  0.00  0.00    +0.000 NA
ATOM     15  C   UNL     1      47.810   6.215  13.266  0.00  0.00    +0.000 A 
ATOM     16  C   UNL     1      46.759   5.901  12.436  0.00  0.00    +0.000 A 
ATOM     17  C   UNL     1      45.892   4.951  12.915  0.00  0.00    +0.000 A 
ATOM     18  N   UNL     1      46.025   4.353  14.115  0.00  0.00    +0.000 NA
ENDBRANCH  12  13
ENDBRANCH  11  12
ENDBRANCH   4  11
TORSDOF 5
ENDMDL
