MODEL 1
REMARK VINA RESULT:    -7.309      0.000      0.000
REMARK INTER + INTRA:         -11.248
REMARK INTER:                 -10.300
REMARK INTRA:                  -0.948
REMARK UNBOUND:                -0.948
REMARK  Name = 
REMARK  10 active torsions:
REMARK  status: ('A' for Active; 'I' for Inactive)
REMARK    1  A    between atoms: C_1  and  C_2
REMARK    2  A    between atoms: C_2  and  O_3
REMARK    3  A    between atoms: O_3  and  C_4
REMARK    4  A    between atoms: C_6  and  C_7
REMARK    5  A    between atoms: C_12  and  O_13
REMARK    6  A    between atoms: O_13  and  C_14
REMARK    7  A    between atoms: C_14  and  C_15
REMARK    8  A    between atoms: C_15  and  C_16
REMARK    9  A    between atoms: C_15  and  C_17
REMARK   10  A    between atoms: C_15  and  C_18
REMARK                            x       y       z     vdW  Elec       q    Type
REMARK                         _______ _______ _______ _____ _____    ______ ____
ROOT
ATOM      1  C   UNL     1      47.150   5.185  14.427  0.00  0.00    +0.000 A 
ATOM      2  N   UNL     1      48.295   5.863  14.699  0.00  0.00    +0.000 NA
ATOM      3  C   UNL     1      48.659   6.817  13.813  0.00  0.00    +0.000 A 
ATOM      4  C   UNL     1      47.950   7.112  12.660  0.00  0.00    +0.000 A 
ATOM      5  C   UNL     1      46.791   6.385  12.392  0.00  0.00    +0.000 A 
ATOM      6  C   UNL     1      46.361   5.399  13.284  0.00  0.00    +0.000 A 
ENDROOT
BRANCH   3   7
ATOM      7  C   UNL     1      49.872   7.624  14.152  0.00  0.00    +0.000 C 
ATOM      8  N   UNL     1      50.813   7.728  13.161  0.00  0.00    +0.000 N 
ATOM      9  O   UNL     1      50.029   8.150  15.240  0.00  0.00    +0.000 OA
ATOM     10  H   UNL     1      50.660   7.276  12.269  0.00  0.00    +0.000 HD
ATOM     11  H   UNL     1      51.665   8.238  13.343  0.00  0.00    +0.000 HD
ENDBRANCH   3   7
BRANCH   1  12
ATOM     12  O   UNL     1      46.757   4.222  15.344  0.00  0.00    +0.000 OA
BRANCH  12  14
ATOM     13  C   UNL     1      48.218   2.895  16.737  0.00  0.00    +0.000 C 
ATOM     14  C   UNL     1      47.573   4.253  16.523  0.00  0.00    +0.000 C 
ENDBRANCH  12  14
ENDBRANCH   1  12
BRANCH   6  15
ATOM     15  O   UNL     1      45.211   4.669  13.121  0.00  0.00    +0.000 OA
BRANCH  15  16
ATOM     16  C   UNL     1      45.291   3.478  12.315  0.00  0.00    +0.000 C 
BRANCH  16  17
ATOM     17  C   UNL     1      44.249   3.512  11.156  0.00  0.00    +0.000 C 
ATOM     18  C   UNL     1      43.220   2.377  11.359  0.00  0.00    +0.000 C 
ATOM     19  C   UNL     1      43.486   4.856  11.244  0.00  0.00    +0.000 C 
BRANCH  17  20
ATOM     20  C   UNL     1      44.952   3.319   9.791  0.00  0.00    +0.000 A 
ATOM     21  C   UNL     1      45.371   4.433   9.036  0.00  0.00    +0.000 A 
ATOM     22  C   UNL     1      46.034   4.278   7.811  0.00  0.00    +0.000 A 
ATOM     23  C   UNL     1      46.287   3.004   7.315  0.00  0.00    +0.000 A 
ATOM     24 CL   UNL     1      47.098   2.810   5.811  0.00  0.00    +0.000 Cl
ATOM     25  C   UNL     1      45.882   1.887   8.032  0.00  0.00    +0.000 A 
ATOM     26  C   UNL     1      45.224   2.044   9.257  0.00  0.00    +0.000 A 
ENDBRANCH  17  20
ENDBRANCH  16  17
ENDBRANCH  15  16
ENDBRANCH   6  15
TORSDOF 7
ENDMDL
MODEL 2
REMARK VINA RESULT:    -6.773      1.515      2.760
REMARK INTER + INTRA:         -10.493
REMARK INTER:                  -9.555
REMARK INTRA:                  -0.938
REMARK UNBOUND:                -0.948
REMARK  Name = 
REMARK  10 active torsions:
REMARK  status: ('A' for Active; 'I' for Inactive)
REMARK    1  A    between atoms: C_1  and  C_2
REMARK    2  A    between atoms: C_2  and  O_3
REMARK    3  A    between atoms: O_3  and  C_4
REMARK    4  A    between atoms: C_6  and  C_7
REMARK    5  A    between atoms: C_12  and  O_13
REMARK    6  A    between atoms: O_13  and  C_14
REMARK    7  A    between atoms: C_14  and  C_15
REMARK    8  A    between atoms: C_15  and  C_16
REMARK    9  A    between atoms: C_15  and  C_17
REMARK   10  A    between atoms: C_15  and  C_18
REMARK                            x       y       z     vdW  Elec       q    Type
REMARK                         _______ _______ _______ _____ _____    ______ ____
ROOT
ATOM      1  C   UNL     1      47.608   6.257  13.528  0.00  0.00    +0.000 A 
ATOM      2  N   UNL     1      48.434   6.551  14.565  0.00  0.00    +0.000 NA
ATOM      3  C   UNL     1      48.385   5.721  15.631  0.00  0.00    +0.000 A 
ATOM      4  C   UNL     1      47.538   4.629  15.722  0.00  0.00    +0.000 A 
ATOM      5  C   UNL     1      46.684   4.364  14.654  0.00  0.00    +0.000 A 
ATOM      6  C   UNL     1      46.705   5.180  13.520  0.00  0.00    +0.000 A 
ENDROOT
BRANCH   3   7
ATOM      7  C   UNL     1      49.353   5.991  16.740  0.00  0.00    +0.000 C 
ATOM      8  N   UNL     1      48.868   6.733  17.785  0.00  0.00    +0.000 N 
ATOM      9  O   UNL     1      50.503   5.590  16.720  0.00  0.00    +0.000 OA
ATOM     10  H   UNL     1      47.910   7.058  17.774  0.00  0.00    +0.000 HD
ATOM     11  H   UNL     1      49.485   6.969  18.549  0.00  0.00    +0.000 HD
ENDBRANCH   3   7
BRANCH   1  12
ATOM     12  O   UNL     1      47.670   7.090  12.420  0.00  0.00    +0.000 OA
BRANCH  12  14
ATOM     13  C   UNL     1      45.839   8.640  12.703  0.00  0.00    +0.000 C 
ATOM     14  C   UNL     1      47.343   8.444  12.761  0.00  0.00    +0.000 C 
ENDBRANCH  12  14
ENDBRANCH   1  12
BRANCH   6  15
ATOM     15  O   UNL     1      45.932   4.966  12.408  0.00  0.00    +0.000 OA
BRANCH  15  16
ATOM     16  C   UNL     1      45.298   3.679  12.278  0.00  0.00    +0.000 C 
BRANCH  16  17
ATOM     17  C   UNL     1      44.275   3.672  11.102  0.00  0.00    +0.000 C 
ATOM     18  C   UNL     1      43.219   2.570  11.348  0.00  0.00    +0.000 C 
ATOM     19  C   UNL     1      43.540   5.033  11.106  0.00  0.00    +0.000 C 
BRANCH  17  20
ATOM     20  C   UNL     1      44.995   3.392   9.761  0.00  0.00    +0.000 A 
ATOM     21  C   UNL     1      45.424   4.455   8.941  0.00  0.00    +0.000 A 
ATOM     22  C   UNL     1      46.102   4.223   7.737  0.00  0.00    +0.000 A 
ATOM     23  C   UNL     1      46.360   2.920   7.326  0.00  0.00    +0.000 A 
ATOM     24 CL   UNL     1      47.189   2.630   5.849  0.00  0.00    +0.000 Cl
ATOM     25  C   UNL     1      45.946   1.850   8.109  0.00  0.00    +0.000 A 
ATOM     26  C   UNL     1      45.272   2.086   9.313  0.00  0.00    +0.000 A 
ENDBRANCH  17  20
ENDBRANCH  16  17
ENDBRANCH  15  16
ENDBRANCH   6  15
TORSDOF 7
ENDMDL
MODEL 3
REMARK VINA RESULT:    -6.730      1.880      3.294
REMARK INTER + INTRA:         -10.432
REMARK INTER:                  -9.260
REMARK INTRA:                  -1.173
REMARK UNBOUND:                -0.948
REMARK  Name = 
REMARK  10 active torsions:
REMARK  status: ('A' for Active; 'I' for Inactive)
REMARK    1  A    between atoms: C_1  and  C_2
REMARK    2  A    between atoms: C_2  and  O_3
REMARK    3  A    between atoms: O_3  and  C_4
REMARK    4  A    between atoms: C_6  and  C_7
REMARK    5  A    between atoms: C_12  and  O_13
REMARK    6  A    between atoms: O_13  and  C_14
REMARK    7  A    between atoms: C_14  and  C_15
REMARK    8  A    between atoms: C_15  and  C_16
REMARK    9  A    between atoms: C_15  and  C_17
REMARK   10  A    between atoms: C_15  and  C_18
REMARK                            x       y       z     vdW  Elec       q    Type
REMARK                         _______ _______ _______ _____ _____    ______ ____
ROOT
ATOM      1  C   UNL     1      46.419   7.337  12.005  0.00  0.00    +0.000 A 
ATOM      2  N   UNL     1      47.551   8.068  11.831  0.00  0.00    +0.000 NA
ATOM      3  C   UNL     1      48.654   7.641  12.485  0.00  0.00    +0.000 A 
ATOM      4  C   UNL     1      48.678   6.536  13.320  0.00  0.00    +0.000 A 
ATOM      5  C   UNL     1      47.497   5.818  13.501  0.00  0.00    +0.000 A 
ATOM      6  C   UNL     1      46.332   6.206  12.835  0.00  0.00    +0.000 A 
ENDROOT
BRANCH   3   7
ATOM      7  C   UNL     1      49.922   8.393  12.229  0.00  0.00    +0.000 C 
ATOM      8  N   UNL     1      51.053   7.858  12.789  0.00  0.00    +0.000 N 
ATOM      9  O   UNL     1      49.956   9.419  11.574  0.00  0.00    +0.000 OA
ATOM     10  H   UNL     1      50.995   7.007  13.333  0.00  0.00    +0.000 HD
ATOM     11  H   UNL     1      51.934   8.338  12.672  0.00  0.00    +0.000 HD
ENDBRANCH   3   7
BRANCH   1  12
ATOM     12  O   UNL     1      45.289   7.755  11.318  0.00  0.00    +0.000 OA
BRANCH  12  14
ATOM     13  C   UNL     1      43.954   9.686  10.751  0.00  0.00    +0.000 C 
ATOM     14  C   UNL     1      44.811   9.015  11.808  0.00  0.00    +0.000 C 
ENDBRANCH  12  14
ENDBRANCH   1  12
BRANCH   6  15
ATOM     15  O   UNL     1      45.141   5.532  12.920  0.00  0.00    +0.000 OA
BRANCH  15  16
ATOM     16  C   UNL     1      45.137   4.142  12.543  0.00  0.00    +0.000 C 
BRANCH  16  17
ATOM     17  C   UNL     1      44.109   3.871  11.403  0.00  0.00    +0.000 C 
ATOM     18  C   UNL     1      43.284   2.609  11.746  0.00  0.00    +0.000 C 
ATOM     19  C   UNL     1      43.131   5.069  11.352  0.00  0.00    +0.000 C 
BRANCH  17  20
ATOM     20  C   UNL     1      44.840   3.646  10.058  0.00  0.00    +0.000 A 
ATOM     21  C   UNL     1      45.004   2.345   9.539  0.00  0.00    +0.000 A 
ATOM     22  C   UNL     1      45.638   2.123   8.310  0.00  0.00    +0.000 A 
ATOM     23  C   UNL     1      46.127   3.198   7.576  0.00  0.00    +0.000 A 
ATOM     24 CL   UNL     1      46.909   2.931   6.069  0.00  0.00    +0.000 Cl
ATOM     25  C   UNL     1      45.986   4.491   8.062  0.00  0.00    +0.000 A 
ATOM     26  C   UNL     1      45.348   4.711   9.289  0.00  0.00    +0.000 A 
ENDBRANCH  17  20
ENDBRANCH  16  17
ENDBRANCH  15  16
ENDBRANCH   6  15
TORSDOF 7
ENDMDL
MODEL 4
REMARK VINA RESULT:    -6.363      3.765      7.799
REMARK INTER + INTRA:          -9.915
REMARK INTER:                  -8.962
REMARK INTRA:                  -0.953
REMARK UNBOUND:                -0.948
REMARK  Name = 
REMARK  10 active torsions:
REMARK  status: ('A' for Active; 'I' for Inactive)
REMARK    1  A    between atoms: C_1  and  C_2
REMARK    2  A    between atoms: C_2  and  O_3
REMARK    3  A    between atoms: O_3  and  C_4
REMARK    4  A    between atoms: C_6  and  C_7
REMARK    5  A    between atoms: C_12  and  O_13
REMARK    6  A    between atoms: O_13  and  C_14
REMARK    7  A    between atoms: C_14  and  C_15
REMARK    8  A    between atoms: C_15  and  C_16
REMARK    9  A    between atoms: C_15  and  C_17
REMARK   10  A    between atoms: C_15  and  C_18
REMARK                            x       y       z     vdW  Elec       q    Type
REMARK                         _______ _______ _______ _____ _____    ______ ____
ROOT
ATOM      1  C   UNL     1      46.281   5.813  13.058  0.00  0.00    +0.000 A 
ATOM      2  N   UNL     1      45.370   5.584  12.077  0.00  0.00    +0.000 NA
ATOM      3  C   UNL     1      45.036   4.294  11.850  0.00  0.00    +0.000 A 
ATOM      4  C   UNL     1      45.581   3.222  12.537  0.00  0.00    +0.000 A 
ATOM      5  C   UNL     1      46.531   3.483  13.523  0.00  0.00    +0.000 A 
ATOM      6  C   UNL     1      46.901   4.799  13.810  0.00  0.00    +0.000 A 
ENDROOT
BRANCH   3   7
ATOM      7  C   UNL     1      43.971   4.045  10.829  0.00  0.00    +0.000 C 
ATOM      8  N   UNL     1      44.083   4.761   9.666  0.00  0.00    +0.000 N 
ATOM      9  O   UNL     1      43.055   3.263  11.013  0.00  0.00    +0.000 OA
ATOM     10  H   UNL     1      44.851   5.407   9.541  0.00  0.00    +0.000 HD
ATOM     11  H   UNL     1      43.377   4.652   8.952  0.00  0.00    +0.000 HD
ENDBRANCH   3   7
BRANCH   1  12
ATOM     12  O   UNL     1      46.612   7.135  13.314  0.00  0.00    +0.000 OA
BRANCH  12  14
ATOM     13  C   UNL     1      48.614   7.650  12.065  0.00  0.00    +0.000 C 
ATOM     14  C   UNL     1      47.105   7.791  12.137  0.00  0.00    +0.000 C 
ENDBRANCH  12  14
ENDBRANCH   1  12
BRANCH   6  15
ATOM     15  O   UNL     1      47.793   5.147  14.791  0.00  0.00    +0.000 OA
BRANCH  15  16
ATOM     16  C   UNL     1      47.541   4.654  16.121  0.00  0.00    +0.000 C 
BRANCH  16  17
ATOM     17  C   UNL     1      48.624   5.159  17.122  0.00  0.00    +0.000 C 
ATOM     18  C   UNL     1      49.264   6.455  16.574  0.00  0.00    +0.000 C 
ATOM     19  C   UNL     1      47.915   5.514  18.450  0.00  0.00    +0.000 C 
BRANCH  17  20
ATOM     20  C   UNL     1      49.728   4.090  17.308  0.00  0.00    +0.000 A 
ATOM     21  C   UNL     1      49.473   2.736  17.009  0.00  0.00    +0.000 A 
ATOM     22  C   UNL     1      50.467   1.758  17.144  0.00  0.00    +0.000 A 
ATOM     23  C   UNL     1      51.736   2.114  17.586  0.00  0.00    +0.000 A 
ATOM     24 CL   UNL     1      52.958   0.917  17.755  0.00  0.00    +0.000 Cl
ATOM     25  C   UNL     1      52.018   3.438  17.893  0.00  0.00    +0.000 A 
ATOM     26  C   UNL     1      51.024   4.414  17.753  0.00  0.00    +0.000 A 
ENDBRANCH  17  20
ENDBRANCH  16  17
ENDBRANCH  15  16
ENDBRANCH   6  15
TORSDOF 7
ENDMDL
MODEL 5
REMARK VINA RESULT:    -6.189      4.031      7.776
REMARK INTER + INTRA:          -9.669
REMARK INTER:                  -8.287
REMARK INTRA:                  -1.382
REMARK UNBOUND:                -0.948
REMARK  Name = 
REMARK  10 active torsions:
REMARK  status: ('A' for Active; 'I' for Inactive)
REMARK    1  A    between atoms: C_1  and  C_2
REMARK    2  A    between atoms: C_2  and  O_3
REMARK    3  A    between atoms: O_3  and  C_4
REMARK    4  A    between atoms: C_6  and  C_7
REMARK    5  A    between atoms: C_12  and  O_13
REMARK    6  A    between atoms: O_13  and  C_14
REMARK    7  A    between atoms: C_14  and  C_15
REMARK    8  A    between atoms: C_15  and  C_16
REMARK    9  A    between atoms: C_15  and  C_17
REMARK   10  A    between atoms: C_15  and  C_18
REMARK                            x       y       z     vdW  Elec       q    Type
REMARK                         _______ _______ _______ _____ _____    ______ ____
ROOT
ATOM      1  C   UNL     1      46.918   4.390  13.729  0.00  0.00    +0.000 A 
ATOM      2  N   UNL     1      45.855   3.664  13.296  0.00  0.00    +0.000 NA
ATOM      3  C   UNL     1      45.157   4.174  12.257  0.00  0.00    +0.000 A 
ATOM      4  C   UNL     1      45.453   5.381  11.645  0.00  0.00    +0.000 A 
ATOM      5  C   UNL     1      46.535   6.117  12.124  0.00  0.00    +0.000 A 
ATOM      6  C   UNL     1      47.300   5.628  13.186  0.00  0.00    +0.000 A 
ENDROOT
BRANCH   3   7
ATOM      7  C   UNL     1      44.038   3.338  11.721  0.00  0.00    +0.000 C 
ATOM      8  N   UNL     1      43.705   2.239  12.471  0.00  0.00    +0.000 N 
ATOM      9  O   UNL     1      43.459   3.602  10.682  0.00  0.00    +0.000 OA
ATOM     10  H   UNL     1      44.206   2.041  13.328  0.00  0.00    +0.000 HD
ATOM     11  H   UNL     1      42.975   1.624  12.144  0.00  0.00    +0.000 HD
ENDBRANCH   3   7
BRANCH   1  12
ATOM     12  O   UNL     1      47.653   3.861  14.779  0.00  0.00    +0.000 OA
BRANCH  12  14
ATOM     13  C   UNL     1      47.451   3.207  17.096  0.00  0.00    +0.000 C 
ATOM     14  C   UNL     1      47.114   4.254  16.050  0.00  0.00    +0.000 C 
ENDBRANCH  12  14
ENDBRANCH   1  12
BRANCH   6  15
ATOM     15  O   UNL     1      48.405   6.265  13.690  0.00  0.00    +0.000 OA
BRANCH  15  16
ATOM     16  C   UNL     1      48.201   7.538  14.333  0.00  0.00    +0.000 C 
BRANCH  16  17
ATOM     17  C   UNL     1      49.444   7.944  15.182  0.00  0.00    +0.000 C 
ATOM     18  C   UNL     1      50.731   7.652  14.377  0.00  0.00    +0.000 C 
ATOM     19  C   UNL     1      49.378   9.472  15.419  0.00  0.00    +0.000 C 
BRANCH  17  20
ATOM     20  C   UNL     1      49.482   7.141  16.504  0.00  0.00    +0.000 A 
ATOM     21  C   UNL     1      48.569   7.423  17.540  0.00  0.00    +0.000 A 
ATOM     22  C   UNL     1      48.568   6.689  18.734  0.00  0.00    +0.000 A 
ATOM     23  C   UNL     1      49.486   5.660  18.917  0.00  0.00    +0.000 A 
ATOM     24 CL   UNL     1      49.491   4.758  20.380  0.00  0.00    +0.000 Cl
ATOM     25  C   UNL     1      50.401   5.361  17.917  0.00  0.00    +0.000 A 
ATOM     26  C   UNL     1      50.397   6.093  16.724  0.00  0.00    +0.000 A 
ENDBRANCH  17  20
ENDBRANCH  16  17
ENDBRANCH  15  16
ENDBRANCH   6  15
TORSDOF 7
ENDMDL
MODEL 6
REMARK VINA RESULT:    -5.583      3.956      7.364
REMARK INTER + INTRA:          -8.816
REMARK INTER:                  -8.050
REMARK INTRA:                  -0.765
REMARK UNBOUND:                -0.948
REMARK  Name = 
REMARK  10 active torsions:
REMARK  status: ('A' for Active; 'I' for Inactive)
REMARK    1  A    between atoms: C_1  and  C_2
REMARK    2  A    between atoms: C_2  and  O_3
REMARK    3  A    between atoms: O_3  and  C_4
REMARK    4  A    between atoms: C_6  and  C_7
REMARK    5  A    between atoms: C_12  and  O_13
REMARK    6  A    between atoms: O_13  and  C_14
REMARK    7  A    between atoms: C_14  and  C_15
REMARK    8  A    between atoms: C_15  and  C_16
REMARK    9  A    between atoms: C_15  and  C_17
REMARK   10  A    between atoms: C_15  and  C_18
REMARK                            x       y       z     vdW  Elec       q    Type
REMARK                         _______ _______ _______ _____ _____    ______ ____
ROOT
ATOM      1  C   UNL     1      46.346   6.140  13.188  0.00  0.00    +0.000 A 
ATOM      2  N   UNL     1      45.475   6.935  12.515  0.00  0.00    +0.000 NA
ATOM      3  C   UNL     1      45.714   8.264  12.552  0.00  0.00    +0.000 A 
ATOM      4  C   UNL     1      46.766   8.841  13.246  0.00  0.00    +0.000 A 
ATOM      5  C   UNL     1      47.632   8.005  13.948  0.00  0.00    +0.000 A 
ATOM      6  C   UNL     1      47.440   6.621  13.929  0.00  0.00    +0.000 A 
ENDROOT
BRANCH   3   7
ATOM      7  C   UNL     1      44.807   9.136  11.743  0.00  0.00    +0.000 C 
ATOM      8  N   UNL     1      43.820   8.484  11.049  0.00  0.00    +0.000 N 
ATOM      9  O   UNL     1      44.933  10.346  11.689  0.00  0.00    +0.000 OA
ATOM     10  H   UNL     1      43.741   7.477  11.107  0.00  0.00    +0.000 HD
ATOM     11  H   UNL     1      43.195   9.019  10.464  0.00  0.00    +0.000 HD
ENDBRANCH   3   7
BRANCH   1  12
ATOM     12  O   UNL     1      46.121   4.773  13.135  0.00  0.00    +0.000 OA
BRANCH  12  14
ATOM     13  C   UNL     1      44.811   3.257  11.786  0.00  0.00    +0.000 C 
ATOM     14  C   UNL     1      44.790   4.476  12.690  0.00  0.00    +0.000 C 
ENDBRANCH  12  14
ENDBRANCH   1  12
BRANCH   6  15
ATOM     15  O   UNL     1      48.267   5.724  14.554  0.00  0.00    +0.000 OA
BRANCH  15  16
ATOM     16  C   UNL     1      48.681   6.030  15.900  0.00  0.00    +0.000 C 
BRANCH  16  17
ATOM     17  C   UNL     1      48.329   4.865  16.875  0.00  0.00    +0.000 C 
ATOM     18  C   UNL     1      47.773   5.450  18.193  0.00  0.00    +0.000 C 
ATOM     19  C   UNL     1      47.204   4.026  16.224  0.00  0.00    +0.000 C 
BRANCH  17  20
ATOM     20  C   UNL     1      49.590   4.023  17.188  0.00  0.00    +0.000 A 
ATOM     21  C   UNL     1      49.553   2.617  17.100  0.00  0.00    +0.000 A 
ATOM     22  C   UNL     1      50.690   1.839  17.352  0.00  0.00    +0.000 A 
ATOM     23  C   UNL     1      51.888   2.453  17.703  0.00  0.00    +0.000 A 
ATOM     24 CL   UNL     1      53.286   1.502  18.015  0.00  0.00    +0.000 Cl
ATOM     25  C   UNL     1      51.956   3.836  17.802  0.00  0.00    +0.000 A 
ATOM     26  C   UNL     1      50.818   4.611  17.546  0.00  0.00    +0.000 A 
ENDBRANCH  17  20
ENDBRANCH  16  17
ENDBRANCH  15  16
ENDBRANCH   6  15
TORSDOF 7
ENDMDL
MODEL 7
REMARK VINA RESULT:    -5.520      4.041      7.893
REMARK INTER + INTRA:          -8.726
REMARK INTER:                  -7.736
REMARK INTRA:                  -0.990
REMARK UNBOUND:                -0.948
REMARK  Name = 
REMARK  10 active torsions:
REMARK  status: ('A' for Active; 'I' for Inactive)
REMARK    1  A    between atoms: C_1  and  C_2
REMARK    2  A    between atoms: C_2  and  O_3
REMARK    3  A    between atoms: O_3  and  C_4
REMARK    4  A    between atoms: C_6  and  C_7
REMARK    5  A    between atoms: C_12  and  O_13
REMARK    6  A    between atoms: O_13  and  C_14
REMARK    7  A    between atoms: C_14  and  C_15
REMARK    8  A    between atoms: C_15  and  C_16
REMARK    9  A    between atoms: C_15  and  C_17
REMARK   10  A    between atoms: C_15  and  C_18
REMARK                            x       y       z     vdW  Elec       q    Type
REMARK                         _______ _______ _______ _____ _____    ______ ____
ROOT
ATOM      1  C   UNL     1      46.578   5.673  13.045  0.00  0.00    +0.000 A 
ATOM      2  N   UNL     1      45.691   5.837  12.030  0.00  0.00    +0.000 NA
ATOM      3  C   UNL     1      45.039   4.729  11.611  0.00  0.00    +0.000 A 
ATOM      4  C   UNL     1      45.245   3.465  12.140  0.00  0.00    +0.000 A 
ATOM      5  C   UNL     1      46.179   3.321  13.164  0.00  0.00    +0.000 A 
ATOM      6  C   UNL     1      46.869   4.436  13.646  0.00  0.00    +0.000 A 
ENDROOT
BRANCH   3   7
ATOM      7  C   UNL     1      43.999   4.919  10.553  0.00  0.00    +0.000 C 
ATOM      8  N   UNL     1      43.044   5.865  10.820  0.00  0.00    +0.000 N 
ATOM      9  O   UNL     1      43.989   4.274   9.519  0.00  0.00    +0.000 OA
ATOM     10  H   UNL     1      43.074   6.383  11.689  0.00  0.00    +0.000 HD
ATOM     11  H   UNL     1      42.302   6.017  10.153  0.00  0.00    +0.000 HD
ENDBRANCH   3   7
BRANCH   1  12
ATOM     12  O   UNL     1      47.234   6.809  13.497  0.00  0.00    +0.000 OA
BRANCH  12  14
ATOM     13  C   UNL     1      49.374   7.266  12.475  0.00  0.00    +0.000 C 
ATOM     14  C   UNL     1      47.877   7.508  12.422  0.00  0.00    +0.000 C 
ENDBRANCH  12  14
ENDBRANCH   1  12
BRANCH   6  15
ATOM     15  O   UNL     1      47.769   4.392  14.679  0.00  0.00    +0.000 OA
BRANCH  15  16
ATOM     16  C   UNL     1      47.242   4.296  16.016  0.00  0.00    +0.000 C 
BRANCH  16  17
ATOM     17  C   UNL     1      48.145   3.398  16.914  0.00  0.00    +0.000 C 
ATOM     18  C   UNL     1      47.301   2.820  18.073  0.00  0.00    +0.000 C 
ATOM     19  C   UNL     1      48.636   2.209  16.054  0.00  0.00    +0.000 C 
BRANCH  17  20
ATOM     20  C   UNL     1      49.313   4.225  17.504  0.00  0.00    +0.000 A 
ATOM     21  C   UNL     1      49.123   5.572  17.873  0.00  0.00    +0.000 A 
ATOM     22  C   UNL     1      50.160   6.329  18.435  0.00  0.00    +0.000 A 
ATOM     23  C   UNL     1      51.411   5.754  18.632  0.00  0.00    +0.000 A 
ATOM     24 CL   UNL     1      52.687   6.680  19.318  0.00  0.00    +0.000 Cl
ATOM     25  C   UNL     1      51.632   4.431  18.274  0.00  0.00    +0.000 A 
ATOM     26  C   UNL     1      50.592   3.676  17.717  0.00  0.00    +0.000 A 
ENDBRANCH  17  20
ENDBRANCH  16  17
ENDBRANCH  15  16
ENDBRANCH   6  15
TORSDOF 7
ENDMDL
MODEL 8
REMARK VINA RESULT:    -5.339      4.549      8.233
REMARK INTER + INTRA:          -8.472
REMARK INTER:                  -7.191
REMARK INTRA:                  -1.280
REMARK UNBOUND:                -0.948
REMARK  Name = 
REMARK  10 active torsions:
REMARK  status: ('A' for Active; 'I' for Inactive)
REMARK    1  A    between atoms: C_1  and  C_2
REMARK    2  A    between atoms: C_2  and  O_3
REMARK    3  A    between atoms: O_3  and  C_4
REMARK    4  A    between atoms: C_6  and  C_7
REMARK    5  A    between atoms: C_12  and  O_13
REMARK    6  A    between atoms: O_13  and  C_14
REMARK    7  A    between atoms: C_14  and  C_15
REMARK    8  A    between atoms: C_15  and  C_16
REMARK    9  A    between atoms: C_15  and  C_17
REMARK   10  A    between atoms: C_15  and  C_18
REMARK                            x       y       z     vdW  Elec       q    Type
REMARK                         _______ _______ _______ _____ _____    ______ ____
ROOT
ATOM      1  C   UNL     1      46.056   7.605  12.911  0.00  0.00    +0.000 A 
ATOM      2  N   UNL     1      44.924   6.858  12.829  0.00  0.00    +0.000 NA
ATOM      3  C   UNL     1      45.039   5.547  13.137  0.00  0.00    +0.000 A 
ATOM      4  C   UNL     1      46.231   4.941  13.502  0.00  0.00    +0.000 A 
ATOM      5  C   UNL     1      47.382   5.724  13.556  0.00  0.00    +0.000 A 
ATOM      6  C   UNL     1      47.316   7.089  13.263  0.00  0.00    +0.000 A 
ENDROOT
BRANCH   3   7
ATOM      7  C   UNL     1      43.780   4.741  13.130  0.00  0.00    +0.000 C 
ATOM      8  N   UNL     1      42.621   5.450  12.949  0.00  0.00    +0.000 N 
ATOM      9  O   UNL     1      43.772   3.532  13.283  0.00  0.00    +0.000 OA
ATOM     10  H   UNL     1      42.655   6.453  12.829  0.00  0.00    +0.000 HD
ATOM     11  H   UNL     1      41.738   4.960  12.962  0.00  0.00    +0.000 HD
ENDBRANCH   3   7
BRANCH   1  12
ATOM     12  O   UNL     1      45.942   8.955  12.619  0.00  0.00    +0.000 OA
BRANCH  12  14
ATOM     13  C   UNL     1      44.548  10.672  11.648  0.00  0.00    +0.000 C 
ATOM     14  C   UNL     1      44.912   9.199  11.651  0.00  0.00    +0.000 C 
ENDBRANCH  12  14
ENDBRANCH   1  12
BRANCH   6  15
ATOM     15  O   UNL     1      48.388   7.940  13.334  0.00  0.00    +0.000 OA
BRANCH  15  16
ATOM     16  C   UNL     1      49.652   7.383  13.746  0.00  0.00    +0.000 C 
BRANCH  16  17
ATOM     17  C   UNL     1      50.182   8.083  15.033  0.00  0.00    +0.000 C 
ATOM     18  C   UNL     1      51.683   7.760  15.210  0.00  0.00    +0.000 C 
ATOM     19  C   UNL     1      50.054   9.611  14.829  0.00  0.00    +0.000 C 
BRANCH  17  20
ATOM     20  C   UNL     1      49.408   7.585  16.277  0.00  0.00    +0.000 A 
ATOM     21  C   UNL     1      49.382   6.214  16.604  0.00  0.00    +0.000 A 
ATOM     22  C   UNL     1      48.710   5.746  17.741  0.00  0.00    +0.000 A 
ATOM     23  C   UNL     1      48.046   6.641  18.572  0.00  0.00    +0.000 A 
ATOM     24 CL   UNL     1      47.218   6.072  19.967  0.00  0.00    +0.000 Cl
ATOM     25  C   UNL     1      48.048   7.997  18.275  0.00  0.00    +0.000 A 
ATOM     26  C   UNL     1      48.724   8.462  17.140  0.00  0.00    +0.000 A 
ENDBRANCH  17  20
ENDBRANCH  16  17
ENDBRANCH  15  16
ENDBRANCH   6  15
TORSDOF 7
ENDMDL
MODEL 9
REMARK VINA RESULT:    -5.160      4.575      8.496
REMARK INTER + INTRA:          -8.219
REMARK INTER:                  -7.375
REMARK INTRA:                  -0.844
REMARK UNBOUND:                -0.948
REMARK  Name = 
REMARK  10 active torsions:
REMARK  status: ('A' for Active; 'I' for Inactive)
REMARK    1  A    between atoms: C_1  and  C_2
REMARK    2  A    between atoms: C_2  and  O_3
REMARK    3  A    between atoms: O_3  and  C_4
REMARK    4  A    between atoms: C_6  and  C_7
REMARK    5  A    between atoms: C_12  and  O_13
REMARK    6  A    between atoms: O_13  and  C_14
REMARK    7  A    between atoms: C_14  and  C_15
REMARK    8  A    between atoms: C_15  and  C_16
REMARK    9  A    between atoms: C_15  and  C_17
REMARK   10  A    between atoms: C_15  and  C_18
REMARK                            x       y       z     vdW  Elec       q    Type
REMARK                         _______ _______ _______ _____ _____    ______ ____
ROOT
ATOM      1  C   UNL     1      46.640   6.767  13.150  0.00  0.00    +0.000 A 
ATOM      2  N   UNL     1      45.512   6.685  12.397  0.00  0.00    +0.000 NA
ATOM      3  C   UNL     1      44.882   5.489  12.378  0.00  0.00    +0.000 A 
ATOM      4  C   UNL     1      45.333   4.367  13.055  0.00  0.00    +0.000 A 
ATOM      5  C   UNL     1      46.505   4.472  13.801  0.00  0.00    +0.000 A 
ATOM      6  C   UNL     1      47.187   5.690  13.868  0.00  0.00    +0.000 A 
ENDROOT
BRANCH   3   7
ATOM      7  C   UNL     1      43.595   5.418  11.619  0.00  0.00    +0.000 C 
ATOM      8  N   UNL     1      42.482   5.844  12.296  0.00  0.00    +0.000 N 
ATOM      9  O   UNL     1      43.528   5.001  10.476  0.00  0.00    +0.000 OA
ATOM     10  H   UNL     1      42.565   6.180  13.246  0.00  0.00    +0.000 HD
ATOM     11  H   UNL     1      41.581   5.793  11.842  0.00  0.00    +0.000 HD
ENDBRANCH   3   7
BRANCH   1  12
ATOM     12  O   UNL     1      47.279   7.997  13.193  0.00  0.00    +0.000 OA
BRANCH  12  14
ATOM     13  C   UNL     1      48.223   9.676  11.736  0.00  0.00    +0.000 C 
ATOM     14  C   UNL     1      48.118   8.195  12.047  0.00  0.00    +0.000 C 
ENDBRANCH  12  14
ENDBRANCH   1  12
BRANCH   6  15
ATOM     15  O   UNL     1      48.321   5.892  14.612  0.00  0.00    +0.000 OA
BRANCH  15  16
ATOM     16  C   UNL     1      48.310   5.431  15.977  0.00  0.00    +0.000 C 
BRANCH  16  17
ATOM     17  C   UNL     1      49.342   6.215  16.843  0.00  0.00    +0.000 C 
ATOM     18  C   UNL     1      50.108   5.223  17.748  0.00  0.00    +0.000 C 
ATOM     19  C   UNL     1      50.370   6.864  15.885  0.00  0.00    +0.000 C 
BRANCH  17  20
ATOM     20  C   UNL     1      48.622   7.257  17.732  0.00  0.00    +0.000 A 
ATOM     21  C   UNL     1      48.464   8.587  17.294  0.00  0.00    +0.000 A 
ATOM     22  C   UNL     1      47.791   9.538  18.071  0.00  0.00    +0.000 A 
ATOM     23  C   UNL     1      47.265   9.178  19.307  0.00  0.00    +0.000 A 
ATOM     24 CL   UNL     1      46.439  10.342  20.266  0.00  0.00    +0.000 Cl
ATOM     25  C   UNL     1      47.407   7.877  19.769  0.00  0.00    +0.000 A 
ATOM     26  C   UNL     1      48.077   6.927  18.988  0.00  0.00    +0.000 A 
ENDBRANCH  17  20
ENDBRANCH  16  17
ENDBRANCH  15  16
ENDBRANCH   6  15
TORSDOF 7
ENDMDL
