MODEL 1
REMARK VINA RESULT:    -7.525      0.000      0.000
REMARK INTER + INTRA:          -9.838
REMARK INTER:                  -9.504
REMARK INTRA:                  -0.334
REMARK UNBOUND:                -0.334
REMARK  Name = 
REMARK  5 active torsions:
REMARK  status: ('A' for Active; 'I' for Inactive)
REMARK    1  A    between atoms: N_1  and  C_2
REMARK    2  A    between atoms: C_2  and  C_3
REMARK    3  A    between atoms: C_3  and  C_4
REMARK    4  A    between atoms: C_7  and  C_8
REMARK    5  A    between atoms: C_8  and  N_9
REMARK                            x       y       z     vdW  Elec       q    Type
REMARK                         _______ _______ _______ _____ _____    ______ ____
ROOT
ATOM      1  C   UNL     1      45.674   2.766   7.848  0.00  0.00    +0.000 A 
ATOM      2  C   UNL     1      45.281   4.091   8.073  0.00  0.00    +0.000 A 
ATOM      3  C   UNL     1      44.523   4.430   9.200  0.00  0.00    +0.000 A 
ATOM      4  C   UNL     1      44.131   3.451  10.126  0.00  0.00    +0.000 A 
ATOM      5  C   UNL     1      44.501   2.123   9.889  0.00  0.00    +0.000 A 
ATOM      6  C   UNL     1      45.261   1.787   8.764  0.00  0.00    +0.000 A 
ENDROOT
BRANCH   1   7
ATOM      7  C   UNL     1      46.446   2.328   6.621  0.00  0.00    +0.000 C 
BRANCH   7   8
ATOM      8  C   UNL     1      47.887   1.843   6.845  0.00  0.00    +0.000 C 
BRANCH   8   9
ATOM      9  N   UNL     1      48.616   1.790   5.576  0.00  0.00    +0.000 NA
ATOM     10  H   UNL     1      48.684   2.727   5.184  0.00  0.00    +0.000 HD
ATOM     11  H   UNL     1      48.090   1.236   4.900  0.00  0.00    +0.000 HD
ENDBRANCH   8   9
ENDBRANCH   7   8
ENDBRANCH   1   7
BRANCH   4  12
ATOM     12  C   UNL     1      43.406   3.830  11.386  0.00  0.00    +0.000 C 
BRANCH  12  13
ATOM     13  N   UNL     1      43.820   5.100  11.975  0.00  0.00    +0.000 N 
ATOM     14  C   UNL     1      43.351   6.318  11.567  0.00  0.00    +0.000 A 
ATOM     15  N   UNL     1      44.214   7.280  11.807  0.00  0.00    +0.000 NA
ATOM     16  C   UNL     1      45.270   6.668  12.430  0.00  0.00    +0.000 A 
ATOM     17  C   UNL     1      46.511   7.202  12.811  0.00  0.00    +0.000 A 
ATOM     18  C   UNL     1      47.431   6.355  13.432  0.00  0.00    +0.000 A 
ATOM     19 CL   UNL     1      48.999   6.956  13.823  0.00  0.00    +0.000 Cl
ATOM     20  C   UNL     1      47.118   5.025  13.720  0.00  0.00    +0.000 A 
ATOM     21  C   UNL     1      45.892   4.473  13.332  0.00  0.00    +0.000 A 
ATOM     22  C   UNL     1      45.007   5.314  12.645  0.00  0.00    +0.000 A 
ENDBRANCH  12  13
ENDBRANCH   4  12
TORSDOF 5
ENDMDL
MODEL 2
REMARK VINA RESULT:    -7.036      2.802      6.331
REMARK INTER + INTRA:          -9.222
REMARK INTER:                  -8.623
REMARK INTRA:                  -0.599
REMARK UNBOUND:                -0.334
REMARK  Name = 
REMARK  5 active torsions:
REMARK  status: ('A' for Active; 'I' for Inactive)
REMARK    1  A    between atoms: N_1  and  C_2
REMARK    2  A    between atoms: C_2  and  C_3
REMARK    3  A    between atoms: C_3  and  C_4
REMARK    4  A    between atoms: C_7  and  C_8
REMARK    5  A    between atoms: C_8  and  N_9
REMARK                            x       y       z     vdW  Elec       q    Type
REMARK                         _______ _______ _______ _____ _____    ______ ____
ROOT
ATOM      1  C   UNL     1      47.704   6.535  13.225  0.00  0.00    +0.000 A 
ATOM      2  C   UNL     1      47.339   7.274  12.093  0.00  0.00    +0.000 A 
ATOM      3  C   UNL     1      46.144   7.001  11.417  0.00  0.00    +0.000 A 
ATOM      4  C   UNL     1      45.289   5.976  11.849  0.00  0.00    +0.000 A 
ATOM      5  C   UNL     1      45.665   5.220  12.964  0.00  0.00    +0.000 A 
ATOM      6  C   UNL     1      46.857   5.496  13.641  0.00  0.00    +0.000 A 
ENDROOT
BRANCH   1   7
ATOM      7  C   UNL     1      49.008   6.744  13.966  0.00  0.00    +0.000 C 
BRANCH   7   8
ATOM      8  C   UNL     1      49.192   8.093  14.679  0.00  0.00    +0.000 C 
BRANCH   8   9
ATOM      9  N   UNL     1      47.991   8.443  15.439  0.00  0.00    +0.000 NA
ATOM     10  H   UNL     1      47.674   7.631  15.966  0.00  0.00    +0.000 HD
ATOM     11  H   UNL     1      47.234   8.679  14.798  0.00  0.00    +0.000 HD
ENDBRANCH   8   9
ENDBRANCH   7   8
ENDBRANCH   1   7
BRANCH   4  12
ATOM     12  C   UNL     1      43.960   5.752  11.186  0.00  0.00    +0.000 C 
BRANCH  12  13
ATOM     13  N   UNL     1      43.791   4.435  10.578  0.00  0.00    +0.000 N 
ATOM     14  C   UNL     1      43.223   3.368  11.216  0.00  0.00    +0.000 A 
ATOM     15  N   UNL     1      43.663   2.223  10.743  0.00  0.00    +0.000 NA
ATOM     16  C   UNL     1      44.523   2.561   9.731  0.00  0.00    +0.000 A 
ATOM     17  C   UNL     1      45.353   1.736   8.956  0.00  0.00    +0.000 A 
ATOM     18  C   UNL     1      46.151   2.335   7.980  0.00  0.00    +0.000 A 
ATOM     19 CL   UNL     1      47.254   1.361   7.079  0.00  0.00    +0.000 Cl
ATOM     20  C   UNL     1      46.095   3.708   7.733  0.00  0.00    +0.000 A 
ATOM     21  C   UNL     1      45.285   4.546   8.508  0.00  0.00    +0.000 A 
ATOM     22  C   UNL     1      44.544   3.942   9.532  0.00  0.00    +0.000 A 
ENDBRANCH  12  13
ENDBRANCH   4  12
TORSDOF 5
ENDMDL
MODEL 3
REMARK VINA RESULT:    -6.929      1.580      2.295
REMARK INTER + INTRA:          -9.086
REMARK INTER:                  -8.616
REMARK INTRA:                  -0.470
REMARK UNBOUND:                -0.334
REMARK  Name = 
REMARK  5 active torsions:
REMARK  status: ('A' for Active; 'I' for Inactive)
REMARK    1  A    between atoms: N_1  and  C_2
REMARK    2  A    between atoms: C_2  and  C_3
REMARK    3  A    between atoms: C_3  and  C_4
REMARK    4  A    between atoms: C_7  and  C_8
REMARK    5  A    between atoms: C_8  and  N_9
REMARK                            x       y       z     vdW  Elec       q    Type
REMARK                         _______ _______ _______ _____ _____    ______ ____
ROOT
ATOM      1  C   UNL     1      45.909   3.141   7.847  0.00  0.00    +0.000 A 
ATOM      2  C   UNL     1      46.089   4.518   8.030  0.00  0.00    +0.000 A 
ATOM      3  C   UNL     1      45.745   5.127   9.243  0.00  0.00    +0.000 A 
ATOM      4  C   UNL     1      45.203   4.379  10.298  0.00  0.00    +0.000 A 
ATOM      5  C   UNL     1      44.998   3.009  10.107  0.00  0.00    +0.000 A 
ATOM      6  C   UNL     1      45.346   2.400   8.896  0.00  0.00    +0.000 A 
ENDROOT
BRANCH   1   7
ATOM      7  C   UNL     1      46.210   2.433   6.542  0.00  0.00    +0.000 C 
BRANCH   7   8
ATOM      8  C   UNL     1      47.396   1.457   6.541  0.00  0.00    +0.000 C 
BRANCH   8   9
ATOM      9  N   UNL     1      48.446   1.921   5.632  0.00  0.00    +0.000 NA
ATOM     10  H   UNL     1      48.605   2.917   5.777  0.00  0.00    +0.000 HD
ATOM     11  H   UNL     1      48.133   1.822   4.666  0.00  0.00    +0.000 HD
ENDBRANCH   8   9
ENDBRANCH   7   8
ENDBRANCH   1   7
BRANCH   4  12
ATOM     12  C   UNL     1      44.930   5.014  11.631  0.00  0.00    +0.000 C 
BRANCH  12  13
ATOM     13  N   UNL     1      46.064   5.029  12.549  0.00  0.00    +0.000 N 
ATOM     14  C   UNL     1      46.103   4.328  13.723  0.00  0.00    +0.000 A 
ATOM     15  N   UNL     1      46.900   4.892  14.604  0.00  0.00    +0.000 NA
ATOM     16  C   UNL     1      47.429   5.982  13.962  0.00  0.00    +0.000 A 
ATOM     17  C   UNL     1      48.255   6.997  14.467  0.00  0.00    +0.000 A 
ATOM     18  C   UNL     1      48.656   8.014  13.599  0.00  0.00    +0.000 A 
ATOM     19 CL   UNL     1      49.590   9.328  14.213  0.00  0.00    +0.000 Cl
ATOM     20  C   UNL     1      48.295   8.006  12.250  0.00  0.00    +0.000 A 
ATOM     21  C   UNL     1      47.457   7.010  11.735  0.00  0.00    +0.000 A 
ATOM     22  C   UNL     1      47.004   6.035  12.634  0.00  0.00    +0.000 A 
ENDBRANCH  12  13
ENDBRANCH   4  12
TORSDOF 5
ENDMDL
MODEL 4
REMARK VINA RESULT:    -6.815      2.898      6.657
REMARK INTER + INTRA:          -8.941
REMARK INTER:                  -9.000
REMARK INTRA:                   0.058
REMARK UNBOUND:                -0.334
REMARK  Name = 
REMARK  5 active torsions:
REMARK  status: ('A' for Active; 'I' for Inactive)
REMARK    1  A    between atoms: N_1  and  C_2
REMARK    2  A    between atoms: C_2  and  C_3
REMARK    3  A    between atoms: C_3  and  C_4
REMARK    4  A    between atoms: C_7  and  C_8
REMARK    5  A    between atoms: C_8  and  N_9
REMARK                            x       y       z     vdW  Elec       q    Type
REMARK                         _______ _______ _______ _____ _____    ______ ____
ROOT
ATOM      1  C   UNL     1      47.241   5.222  14.635  0.00  0.00    +0.000 A 
ATOM      2  C   UNL     1      46.153   4.401  14.316  0.00  0.00    +0.000 A 
ATOM      3  C   UNL     1      45.361   4.670  13.193  0.00  0.00    +0.000 A 
ATOM      4  C   UNL     1      45.630   5.772  12.369  0.00  0.00    +0.000 A 
ATOM      5  C   UNL     1      46.701   6.609  12.701  0.00  0.00    +0.000 A 
ATOM      6  C   UNL     1      47.494   6.335  13.821  0.00  0.00    +0.000 A 
ENDROOT
BRANCH   1   7
ATOM      7  C   UNL     1      48.101   5.016  15.865  0.00  0.00    +0.000 C 
BRANCH   7   8
ATOM      8  C   UNL     1      47.737   3.834  16.777  0.00  0.00    +0.000 C 
BRANCH   8   9
ATOM      9  N   UNL     1      46.865   4.273  17.868  0.00  0.00    +0.000 NA
ATOM     10  H   UNL     1      47.366   4.203  18.752  0.00  0.00    +0.000 HD
ATOM     11  H   UNL     1      46.065   3.644  17.943  0.00  0.00    +0.000 HD
ENDBRANCH   8   9
ENDBRANCH   7   8
ENDBRANCH   1   7
BRANCH   4  12
ATOM     12  C   UNL     1      44.844   6.002  11.109  0.00  0.00    +0.000 C 
BRANCH  12  13
ATOM     13  N   UNL     1      44.372   4.788  10.450  0.00  0.00    +0.000 N 
ATOM     14  C   UNL     1      43.530   3.883  11.033  0.00  0.00    +0.000 A 
ATOM     15  N   UNL     1      43.684   2.677  10.532  0.00  0.00    +0.000 NA
ATOM     16  C   UNL     1      44.638   2.813   9.557  0.00  0.00    +0.000 A 
ATOM     17  C   UNL     1      45.263   1.827   8.778  0.00  0.00    +0.000 A 
ATOM     18  C   UNL     1      46.222   2.231   7.848  0.00  0.00    +0.000 A 
ATOM     19 CL   UNL     1      47.076   1.035   6.945  0.00  0.00    +0.000 Cl
ATOM     20  C   UNL     1      46.523   3.579   7.650  0.00  0.00    +0.000 A 
ATOM     21  C   UNL     1      45.921   4.574   8.430  0.00  0.00    +0.000 A 
ATOM     22  C   UNL     1      45.014   4.149   9.409  0.00  0.00    +0.000 A 
ENDBRANCH  12  13
ENDBRANCH   4  12
TORSDOF 5
ENDMDL
MODEL 5
REMARK VINA RESULT:    -6.080      3.014      6.284
REMARK INTER + INTRA:          -8.014
REMARK INTER:                  -7.865
REMARK INTRA:                  -0.149
REMARK UNBOUND:                -0.334
REMARK  Name = 
REMARK  5 active torsions:
REMARK  status: ('A' for Active; 'I' for Inactive)
REMARK    1  A    between atoms: N_1  and  C_2
REMARK    2  A    between atoms: C_2  and  C_3
REMARK    3  A    between atoms: C_3  and  C_4
REMARK    4  A    between atoms: C_7  and  C_8
REMARK    5  A    between atoms: C_8  and  N_9
REMARK                            x       y       z     vdW  Elec       q    Type
REMARK                         _______ _______ _______ _____ _____    ______ ____
ROOT
ATOM      1  C   UNL     1      47.284   8.928  12.129  0.00  0.00    +0.000 A 
ATOM      2  C   UNL     1      48.021   7.758  12.347  0.00  0.00    +0.000 A 
ATOM      3  C   UNL     1      47.380   6.566  12.707  0.00  0.00    +0.000 A 
ATOM      4  C   UNL     1      45.988   6.517  12.868  0.00  0.00    +0.000 A 
ATOM      5  C   UNL     1      45.252   7.692  12.677  0.00  0.00    +0.000 A 
ATOM      6  C   UNL     1      45.894   8.880  12.313  0.00  0.00    +0.000 A 
ENDROOT
BRANCH   1   7
ATOM      7  C   UNL     1      47.922  10.259  11.792  0.00  0.00    +0.000 C 
BRANCH   7   8
ATOM      8  C   UNL     1      49.396  10.441  12.187  0.00  0.00    +0.000 C 
BRANCH   8   9
ATOM      9  N   UNL     1      50.268  10.265  11.024  0.00  0.00    +0.000 NA
ATOM     10  H   UNL     1      49.835   9.615  10.370  0.00  0.00    +0.000 HD
ATOM     11  H   UNL     1      51.145   9.833  11.315  0.00  0.00    +0.000 HD
ENDBRANCH   8   9
ENDBRANCH   7   8
ENDBRANCH   1   7
BRANCH   4  12
ATOM     12  C   UNL     1      45.291   5.217  13.154  0.00  0.00    +0.000 C 
BRANCH  12  13
ATOM     13  N   UNL     1      44.486   4.696  12.053  0.00  0.00    +0.000 N 
ATOM     14  C   UNL     1      43.484   3.780  12.210  0.00  0.00    +0.000 A 
ATOM     15  N   UNL     1      43.296   3.068  11.120  0.00  0.00    +0.000 NA
ATOM     16  C   UNL     1      44.188   3.569  10.207  0.00  0.00    +0.000 A 
ATOM     17  C   UNL     1      44.491   3.112   8.916  0.00  0.00    +0.000 A 
ATOM     18  C   UNL     1      45.456   3.802   8.181  0.00  0.00    +0.000 A 
ATOM     19 CL   UNL     1      45.921   3.207   6.631  0.00  0.00    +0.000 Cl
ATOM     20  C   UNL     1      46.073   4.949   8.685  0.00  0.00    +0.000 A 
ATOM     21  C   UNL     1      45.795   5.408   9.977  0.00  0.00    +0.000 A 
ATOM     22  C   UNL     1      44.877   4.664  10.730  0.00  0.00    +0.000 A 
ENDBRANCH  12  13
ENDBRANCH   4  12
TORSDOF 5
ENDMDL
MODEL 6
REMARK VINA RESULT:    -5.938      1.877      2.589
REMARK INTER + INTRA:          -7.835
REMARK INTER:                  -7.604
REMARK INTRA:                  -0.231
REMARK UNBOUND:                -0.334
REMARK  Name = 
REMARK  5 active torsions:
REMARK  status: ('A' for Active; 'I' for Inactive)
REMARK    1  A    between atoms: N_1  and  C_2
REMARK    2  A    between atoms: C_2  and  C_3
REMARK    3  A    between atoms: C_3  and  C_4
REMARK    4  A    between atoms: C_7  and  C_8
REMARK    5  A    between atoms: C_8  and  N_9
REMARK                            x       y       z     vdW  Elec       q    Type
REMARK                         _______ _______ _______ _____ _____    ______ ____
ROOT
ATOM      1  C   UNL     1      45.275   3.838   8.979  0.00  0.00    +0.000 A 
ATOM      2  C   UNL     1      45.758   5.142   9.147  0.00  0.00    +0.000 A 
ATOM      3  C   UNL     1      45.656   5.786  10.386  0.00  0.00    +0.000 A 
ATOM      4  C   UNL     1      45.062   5.148  11.484  0.00  0.00    +0.000 A 
ATOM      5  C   UNL     1      44.555   3.856  11.311  0.00  0.00    +0.000 A 
ATOM      6  C   UNL     1      44.661   3.212  10.074  0.00  0.00    +0.000 A 
ENDROOT
BRANCH   1   7
ATOM      7  C   UNL     1      45.305   3.108   7.652  0.00  0.00    +0.000 C 
BRANCH   7   8
ATOM      8  C   UNL     1      46.685   2.683   7.126  0.00  0.00    +0.000 C 
BRANCH   8   9
ATOM      9  N   UNL     1      47.005   3.391   5.885  0.00  0.00    +0.000 NA
ATOM     10  H   UNL     1      46.153   3.787   5.491  0.00  0.00    +0.000 HD
ATOM     11  H   UNL     1      47.358   2.731   5.193  0.00  0.00    +0.000 HD
ENDBRANCH   8   9
ENDBRANCH   7   8
ENDBRANCH   1   7
BRANCH   4  12
ATOM     12  C   UNL     1      45.045   5.800  12.837  0.00  0.00    +0.000 C 
BRANCH  12  13
ATOM     13  N   UNL     1      45.712   7.097  12.902  0.00  0.00    +0.000 N 
ATOM     14  C   UNL     1      45.093   8.286  12.633  0.00  0.00    +0.000 A 
ATOM     15  N   UNL     1      45.944   9.197  12.213  0.00  0.00    +0.000 NA
ATOM     16  C   UNL     1      47.170   8.585  12.249  0.00  0.00    +0.000 A 
ATOM     17  C   UNL     1      48.414   9.060  11.806  0.00  0.00    +0.000 A 
ATOM     18  C   UNL     1      49.526   8.228  11.949  0.00  0.00    +0.000 A 
ATOM     19 CL   UNL     1      51.050   8.742  11.327  0.00  0.00    +0.000 Cl
ATOM     20  C   UNL     1      49.426   6.977  12.562  0.00  0.00    +0.000 A 
ATOM     21  C   UNL     1      48.190   6.483  12.993  0.00  0.00    +0.000 A 
ATOM     22  C   UNL     1      47.071   7.298  12.778  0.00  0.00    +0.000 A 
ENDBRANCH  12  13
ENDBRANCH   4  12
TORSDOF 5
ENDMDL
MODEL 7
REMARK VINA RESULT:    -5.877      4.927      7.805
REMARK INTER + INTRA:          -7.758
REMARK INTER:                  -7.399
REMARK INTRA:                  -0.358
REMARK UNBOUND:                -0.334
REMARK  Name = 
REMARK  5 active torsions:
REMARK  status: ('A' for Active; 'I' for Inactive)
REMARK    1  A    between atoms: N_1  and  C_2
REMARK    2  A    between atoms: C_2  and  C_3
REMARK    3  A    between atoms: C_3  and  C_4
REMARK    4  A    between atoms: C_7  and  C_8
REMARK    5  A    between atoms: C_8  and  N_9
REMARK                            x       y       z     vdW  Elec       q    Type
REMARK                         _______ _______ _______ _____ _____    ______ ____
ROOT
ATOM      1  C   UNL     1      50.902   2.837  17.526  0.00  0.00    +0.000 A 
ATOM      2  C   UNL     1      49.927   2.003  16.967  0.00  0.00    +0.000 A 
ATOM      3  C   UNL     1      48.718   2.532  16.498  0.00  0.00    +0.000 A 
ATOM      4  C   UNL     1      48.450   3.906  16.587  0.00  0.00    +0.000 A 
ATOM      5  C   UNL     1      49.413   4.737  17.170  0.00  0.00    +0.000 A 
ATOM      6  C   UNL     1      50.621   4.207  17.633  0.00  0.00    +0.000 A 
ENDROOT
BRANCH   1   7
ATOM      7  C   UNL     1      52.205   2.320  18.100  0.00  0.00    +0.000 C 
BRANCH   7   8
ATOM      8  C   UNL     1      52.766   1.026  17.491  0.00  0.00    +0.000 C 
BRANCH   8   9
ATOM      9  N   UNL     1      52.397  -0.132  18.307  0.00  0.00    +0.000 NA
ATOM     10  H   UNL     1      51.396  -0.112  18.492  0.00  0.00    +0.000 HD
ATOM     11  H   UNL     1      52.855  -0.072  19.216  0.00  0.00    +0.000 HD
ENDBRANCH   8   9
ENDBRANCH   7   8
ENDBRANCH   1   7
BRANCH   4  12
ATOM     12  C   UNL     1      47.198   4.486  15.992  0.00  0.00    +0.000 C 
BRANCH  12  13
ATOM     13  N   UNL     1      47.346   5.008  14.638  0.00  0.00    +0.000 N 
ATOM     14  C   UNL     1      47.831   6.254  14.350  0.00  0.00    +0.000 A 
ATOM     15  N   UNL     1      47.371   6.707  13.205  0.00  0.00    +0.000 NA
ATOM     16  C   UNL     1      46.586   5.698  12.710  0.00  0.00    +0.000 A 
ATOM     17  C   UNL     1      45.767   5.684  11.571  0.00  0.00    +0.000 A 
ATOM     18  C   UNL     1      45.053   4.519  11.286  0.00  0.00    +0.000 A 
ATOM     19 CL   UNL     1      43.964   4.504   9.949  0.00  0.00    +0.000 Cl
ATOM     20  C   UNL     1      45.181   3.375  12.075  0.00  0.00    +0.000 A 
ATOM     21  C   UNL     1      45.980   3.377  13.224  0.00  0.00    +0.000 A 
ATOM     22  C   UNL     1      46.635   4.575  13.538  0.00  0.00    +0.000 A 
ENDBRANCH  12  13
ENDBRANCH   4  12
TORSDOF 5
ENDMDL
MODEL 8
REMARK VINA RESULT:    -5.444      3.214      6.134
REMARK INTER + INTRA:          -7.210
REMARK INTER:                  -6.969
REMARK INTRA:                  -0.241
REMARK UNBOUND:                -0.334
REMARK  Name = 
REMARK  5 active torsions:
REMARK  status: ('A' for Active; 'I' for Inactive)
REMARK    1  A    between atoms: N_1  and  C_2
REMARK    2  A    between atoms: C_2  and  C_3
REMARK    3  A    between atoms: C_3  and  C_4
REMARK    4  A    between atoms: C_7  and  C_8
REMARK    5  A    between atoms: C_8  and  N_9
REMARK                            x       y       z     vdW  Elec       q    Type
REMARK                         _______ _______ _______ _____ _____    ______ ____
ROOT
ATOM      1  C   UNL     1      48.165   8.424  12.068  0.00  0.00    +0.000 A 
ATOM      2  C   UNL     1      47.117   9.345  12.188  0.00  0.00    +0.000 A 
ATOM      3  C   UNL     1      45.786   8.935  12.046  0.00  0.00    +0.000 A 
ATOM      4  C   UNL     1      45.469   7.597  11.772  0.00  0.00    +0.000 A 
ATOM      5  C   UNL     1      46.515   6.680  11.625  0.00  0.00    +0.000 A 
ATOM      6  C   UNL     1      47.844   7.090  11.771  0.00  0.00    +0.000 A 
ENDROOT
BRANCH   1   7
ATOM      7  C   UNL     1      49.626   8.814  12.155  0.00  0.00    +0.000 C 
BRANCH   7   8
ATOM      8  C   UNL     1      50.235   8.910  13.562  0.00  0.00    +0.000 C 
BRANCH   8   9
ATOM      9  N   UNL     1      50.916   7.663  13.916  0.00  0.00    +0.000 NA
ATOM     10  H   UNL     1      50.257   7.032  14.367  0.00  0.00    +0.000 HD
ATOM     11  H   UNL     1      51.644   7.853  14.605  0.00  0.00    +0.000 HD
ENDBRANCH   8   9
ENDBRANCH   7   8
ENDBRANCH   1   7
BRANCH   4  12
ATOM     12  C   UNL     1      44.039   7.139  11.721  0.00  0.00    +0.000 C 
BRANCH  12  13
ATOM     13  N   UNL     1      43.851   5.697  11.844  0.00  0.00    +0.000 N 
ATOM     14  C   UNL     1      43.889   5.022  13.033  0.00  0.00    +0.000 A 
ATOM     15  N   UNL     1      44.251   3.768  12.872  0.00  0.00    +0.000 NA
ATOM     16  C   UNL     1      44.417   3.613  11.520  0.00  0.00    +0.000 A 
ATOM     17  C   UNL     1      44.899   2.507  10.804  0.00  0.00    +0.000 A 
ATOM     18  C   UNL     1      44.980   2.606   9.414  0.00  0.00    +0.000 A 
ATOM     19 CL   UNL     1      45.660   1.302   8.514  0.00  0.00    +0.000 Cl
ATOM     20  C   UNL     1      44.546   3.748   8.738  0.00  0.00    +0.000 A 
ATOM     21  C   UNL     1      44.078   4.866   9.439  0.00  0.00    +0.000 A 
ATOM     22  C   UNL     1      44.070   4.779  10.837  0.00  0.00    +0.000 A 
ENDBRANCH  12  13
ENDBRANCH   4  12
TORSDOF 5
ENDMDL
MODEL 9
REMARK VINA RESULT:    -5.251      3.582      5.761
REMARK INTER + INTRA:          -6.967
REMARK INTER:                  -6.472
REMARK INTRA:                  -0.495
REMARK UNBOUND:                -0.334
REMARK  Name = 
REMARK  5 active torsions:
REMARK  status: ('A' for Active; 'I' for Inactive)
REMARK    1  A    between atoms: N_1  and  C_2
REMARK    2  A    between atoms: C_2  and  C_3
REMARK    3  A    between atoms: C_3  and  C_4
REMARK    4  A    between atoms: C_7  and  C_8
REMARK    5  A    between atoms: C_8  and  N_9
REMARK                            x       y       z     vdW  Elec       q    Type
REMARK                         _______ _______ _______ _____ _____    ______ ____
ROOT
ATOM      1  C   UNL     1      45.038   5.047  11.875  0.00  0.00    +0.000 A 
ATOM      2  C   UNL     1      45.665   4.452  12.977  0.00  0.00    +0.000 A 
ATOM      3  C   UNL     1      46.857   4.978  13.490  0.00  0.00    +0.000 A 
ATOM      4  C   UNL     1      47.458   6.104  12.908  0.00  0.00    +0.000 A 
ATOM      5  C   UNL     1      46.847   6.683  11.790  0.00  0.00    +0.000 A 
ATOM      6  C   UNL     1      45.654   6.159  11.282  0.00  0.00    +0.000 A 
ENDROOT
BRANCH   1   7
ATOM      7  C   UNL     1      43.779   4.494  11.240  0.00  0.00    +0.000 C 
BRANCH   7   8
ATOM      8  C   UNL     1      43.821   3.030  10.776  0.00  0.00    +0.000 C 
BRANCH   8   9
ATOM      9  N   UNL     1      43.034   2.182  11.673  0.00  0.00    +0.000 NA
ATOM     10  H   UNL     1      43.580   1.969  12.506  0.00  0.00    +0.000 HD
ATOM     11  H   UNL     1      42.845   1.287  11.222  0.00  0.00    +0.000 HD
ENDBRANCH   8   9
ENDBRANCH   7   8
ENDBRANCH   1   7
BRANCH   4  12
ATOM     12  C   UNL     1      48.680   6.728  13.520  0.00  0.00    +0.000 C 
BRANCH  12  13
ATOM     13  N   UNL     1      48.442   7.453  14.764  0.00  0.00    +0.000 N 
ATOM     14  C   UNL     1      48.345   8.814  14.846  0.00  0.00    +0.000 A 
ATOM     15  N   UNL     1      48.688   9.259  16.035  0.00  0.00    +0.000 NA
ATOM     16  C   UNL     1      48.982   8.138  16.766  0.00  0.00    +0.000 A 
ATOM     17  C   UNL     1      49.505   8.034  18.064  0.00  0.00    +0.000 A 
ATOM     18  C   UNL     1      49.725   6.758  18.586  0.00  0.00    +0.000 A 
ATOM     19 CL   UNL     1      50.456   6.597  20.139  0.00  0.00    +0.000 Cl
ATOM     20  C   UNL     1      49.390   5.609  17.867  0.00  0.00    +0.000 A 
ATOM     21  C   UNL     1      48.884   5.695  16.565  0.00  0.00    +0.000 A 
ATOM     22  C   UNL     1      48.736   6.980  16.027  0.00  0.00    +0.000 A 
ENDBRANCH  12  13
ENDBRANCH   4  12
TORSDOF 5
ENDMDL
