MODEL 1
REMARK VINA RESULT:    -7.110      0.000      0.000
REMARK INTER + INTRA:         -10.429
REMARK INTER:                  -9.605
REMARK INTRA:                  -0.825
REMARK UNBOUND:                -0.825
REMARK  Name = 
REMARK  7 active torsions:
REMARK  status: ('A' for Active; 'I' for Inactive)
REMARK    1  A    between atoms: C_1  and  C_2
REMARK    2  A    between atoms: C_2  and  N_3
REMARK    3  A    between atoms: C_2  and  C_18
REMARK    4  A    between atoms: N_3  and  C_4
REMARK    5  A    between atoms: C_7  and  C_8
REMARK    6  A    between atoms: C_8  and  N_9
REMARK    7  A    between atoms: N_9  and  C_10
REMARK                            x       y       z     vdW  Elec       q    Type
REMARK                         _______ _______ _______ _____ _____    ______ ____
ROOT
ATOM      1  C   UNL     1      47.816   5.795  14.824  0.00  0.00    +0.000 A 
ATOM      2  C   UNL     1      47.583   6.182  13.515  0.00  0.00    +0.000 A 
ATOM      3  N   UNL     1      46.739   5.559  12.667  0.00  0.00    +0.000 NA
ATOM      4  C   UNL     1      46.134   4.450  13.139  0.00  0.00    +0.000 A 
ATOM      5  N   UNL     1      46.422   3.884  14.329  0.00  0.00    +0.000 NA
ATOM      6  C   UNL     1      47.272   4.563  15.130  0.00  0.00    +0.000 A 
ENDROOT
BRANCH   1   7
ATOM      7  N   UNL     1      48.527   6.525  15.780  0.00  0.00    +0.000 N 
ATOM      8  H   UNL     1      48.313   7.522  15.796  0.00  0.00    +0.000 HD
BRANCH   7  10
ATOM      9  C   UNL     1      48.028   6.887  18.186  0.00  0.00    +0.000 C 
ATOM     10  C   UNL     1      48.572   5.923  17.116  0.00  0.00    +0.000 C 
BRANCH  10  11
ATOM     11  C   UNL     1      49.920   5.372  17.529  0.00  0.00    +0.000 A 
ATOM     12  C   UNL     1      51.036   6.160  17.765  0.00  0.00    +0.000 A 
ATOM     13  S   UNL     1      52.482   5.245  17.814  0.00  0.00    +0.000 S 
ATOM     14  C   UNL     1      51.627   3.783  17.630  0.00  0.00    +0.000 A 
ATOM     15  N   UNL     1      52.263   2.595  17.457  0.00  0.00    +0.000 NA
ATOM     16  C   UNL     1      51.469   1.578  17.387  0.00  0.00    +0.000 A 
ATOM     17  N   UNL     1      50.103   1.633  17.526  0.00  0.00    +0.000 N 
ATOM     18  C   UNL     1      49.417   2.809  17.717  0.00  0.00    +0.000 A 
ATOM     19  O   UNL     1      48.205   2.831  17.909  0.00  0.00    +0.000 OA
ATOM     20  C   UNL     1      50.262   3.986  17.675  0.00  0.00    +0.000 A 
ATOM     21  H   UNL     1      49.550   0.789  17.539  0.00  0.00    +0.000 HD
ENDBRANCH  10  11
ENDBRANCH   7  10
ENDBRANCH   1   7
BRANCH   4  22
ATOM     22  C   UNL     1      44.895   3.920  12.424  0.00  0.00    +0.000 C 
BRANCH  22  23
ATOM     23  N   UNL     1      45.117   2.867  11.418  0.00  0.00    +0.000 NA
ATOM     24  H   UNL     1      45.043   1.957  11.867  0.00  0.00    +0.000 HD
BRANCH  23  25
ATOM     25  C   UNL     1      44.236   2.990  10.250  0.00  0.00    +0.000 C 
ATOM     26  C   UNL     1      44.600   2.082   9.061  0.00  0.00    +0.000 C 
ATOM     27  C   UNL     1      45.881   2.531   8.369  0.00  0.00    +0.000 C 
ATOM     28  N   UNL     1      45.790   3.917   7.908  0.00  0.00    +0.000 NA
ATOM     29  C   UNL     1      45.506   4.829   9.021  0.00  0.00    +0.000 C 
ATOM     30  C   UNL     1      44.225   4.450   9.763  0.00  0.00    +0.000 C 
ATOM     31  H   UNL     1      45.039   3.989   7.220  0.00  0.00    +0.000 HD
ENDBRANCH  23  25
ENDBRANCH  22  23
ENDBRANCH   4  22
TORSDOF 6
ENDMDL
MODEL 2
REMARK VINA RESULT:    -7.037      3.546      8.554
REMARK INTER + INTRA:         -10.331
REMARK INTER:                  -9.712
REMARK INTRA:                  -0.619
REMARK UNBOUND:                -0.825
REMARK  Name = 
REMARK  7 active torsions:
REMARK  status: ('A' for Active; 'I' for Inactive)
REMARK    1  A    between atoms: C_1  and  C_2
REMARK    2  A    between atoms: C_2  and  N_3
REMARK    3  A    between atoms: C_2  and  C_18
REMARK    4  A    between atoms: N_3  and  C_4
REMARK    5  A    between atoms: C_7  and  C_8
REMARK    6  A    between atoms: C_8  and  N_9
REMARK    7  A    between atoms: N_9  and  C_10
REMARK                            x       y       z     vdW  Elec       q    Type
REMARK                         _______ _______ _______ _____ _____    ______ ____
ROOT
ATOM      1  C   UNL     1      47.513   5.685  13.246  0.00  0.00    +0.000 A 
ATOM      2  C   UNL     1      47.033   4.419  13.534  0.00  0.00    +0.000 A 
ATOM      3  N   UNL     1      47.016   3.865  14.763  0.00  0.00    +0.000 NA
ATOM      4  C   UNL     1      47.561   4.598  15.754  0.00  0.00    +0.000 A 
ATOM      5  N   UNL     1      48.216   5.762  15.556  0.00  0.00    +0.000 NA
ATOM      6  C   UNL     1      48.190   6.262  14.302  0.00  0.00    +0.000 A 
ENDROOT
BRANCH   1   7
ATOM      7  N   UNL     1      47.368   6.359  12.030  0.00  0.00    +0.000 N 
ATOM      8  H   UNL     1      47.732   5.857  11.221  0.00  0.00    +0.000 HD
BRANCH   7  10
ATOM      9  C   UNL     1      45.721   8.038  12.831  0.00  0.00    +0.000 C 
ATOM     10  C   UNL     1      46.043   6.944  11.797  0.00  0.00    +0.000 C 
BRANCH  10  11
ATOM     11  C   UNL     1      44.907   5.948  11.701  0.00  0.00    +0.000 A 
ATOM     12  C   UNL     1      43.871   5.869  12.618  0.00  0.00    +0.000 A 
ATOM     13  S   UNL     1      42.982   4.414  12.474  0.00  0.00    +0.000 S 
ATOM     14  C   UNL     1      43.896   3.925  11.123  0.00  0.00    +0.000 A 
ATOM     15  N   UNL     1      43.755   2.695  10.564  0.00  0.00    +0.000 NA
ATOM     16  C   UNL     1      44.486   2.504   9.515  0.00  0.00    +0.000 A 
ATOM     17  N   UNL     1      45.304   3.448   8.943  0.00  0.00    +0.000 N 
ATOM     18  C   UNL     1      45.468   4.711   9.462  0.00  0.00    +0.000 A 
ATOM     19  O   UNL     1      46.149   5.562   8.898  0.00  0.00    +0.000 OA
ATOM     20  C   UNL     1      44.762   4.919  10.711  0.00  0.00    +0.000 A 
ATOM     21  H   UNL     1      45.786   3.257   8.078  0.00  0.00    +0.000 HD
ENDBRANCH  10  11
ENDBRANCH   7  10
ENDBRANCH   1   7
BRANCH   4  22
ATOM     22  C   UNL     1      47.238   4.246  17.203  0.00  0.00    +0.000 C 
BRANCH  22  23
ATOM     23  N   UNL     1      47.039   5.377  18.126  0.00  0.00    +0.000 NA
ATOM     24  H   UNL     1      46.048   5.464  18.335  0.00  0.00    +0.000 HD
BRANCH  23  25
ATOM     25  C   UNL     1      47.863   5.285  19.338  0.00  0.00    +0.000 C 
ATOM     26  C   UNL     1      47.498   6.285  20.450  0.00  0.00    +0.000 C 
ATOM     27  C   UNL     1      47.877   7.714  20.082  0.00  0.00    +0.000 C 
ATOM     28  N   UNL     1      49.302   7.834  19.774  0.00  0.00    +0.000 NA
ATOM     29  C   UNL     1      49.684   6.943  18.672  0.00  0.00    +0.000 C 
ATOM     30  C   UNL     1      49.344   5.483  18.970  0.00  0.00    +0.000 C 
ATOM     31  H   UNL     1      49.843   7.587  20.603  0.00  0.00    +0.000 HD
ENDBRANCH  23  25
ENDBRANCH  22  23
ENDBRANCH   4  22
TORSDOF 6
ENDMDL
MODEL 3
REMARK VINA RESULT:    -6.754      3.264      8.472
REMARK INTER + INTRA:          -9.949
REMARK INTER:                  -9.618
REMARK INTRA:                  -0.330
REMARK UNBOUND:                -0.825
REMARK  Name = 
REMARK  7 active torsions:
REMARK  status: ('A' for Active; 'I' for Inactive)
REMARK    1  A    between atoms: C_1  and  C_2
REMARK    2  A    between atoms: C_2  and  N_3
REMARK    3  A    between atoms: C_2  and  C_18
REMARK    4  A    between atoms: N_3  and  C_4
REMARK    5  A    between atoms: C_7  and  C_8
REMARK    6  A    between atoms: C_8  and  N_9
REMARK    7  A    between atoms: N_9  and  C_10
REMARK                            x       y       z     vdW  Elec       q    Type
REMARK                         _______ _______ _______ _____ _____    ______ ____
ROOT
ATOM      1  C   UNL     1      47.536   6.659  12.833  0.00  0.00    +0.000 A 
ATOM      2  C   UNL     1      48.077   7.779  13.443  0.00  0.00    +0.000 A 
ATOM      3  N   UNL     1      48.638   7.792  14.669  0.00  0.00    +0.000 NA
ATOM      4  C   UNL     1      48.607   6.628  15.349  0.00  0.00    +0.000 A 
ATOM      5  N   UNL     1      47.950   5.527  14.928  0.00  0.00    +0.000 NA
ATOM      6  C   UNL     1      47.415   5.582  13.689  0.00  0.00    +0.000 A 
ENDROOT
BRANCH   1   7
ATOM      7  N   UNL     1      47.128   6.569  11.500  0.00  0.00    +0.000 N 
ATOM      8  H   UNL     1      47.357   5.685  11.046  0.00  0.00    +0.000 HD
BRANCH   7  10
ATOM      9  C   UNL     1      45.316   8.102  12.234  0.00  0.00    +0.000 C 
ATOM     10  C   UNL     1      45.755   7.014  11.237  0.00  0.00    +0.000 C 
BRANCH  10  11
ATOM     11  C   UNL     1      44.723   5.909  11.163  0.00  0.00    +0.000 A 
ATOM     12  C   UNL     1      43.648   5.798  12.032  0.00  0.00    +0.000 A 
ATOM     13  S   UNL     1      42.906   4.258  11.958  0.00  0.00    +0.000 S 
ATOM     14  C   UNL     1      43.937   3.762  10.696  0.00  0.00    +0.000 A 
ATOM     15  N   UNL     1      43.941   2.485  10.230  0.00  0.00    +0.000 NA
ATOM     16  C   UNL     1      44.744   2.290   9.236  0.00  0.00    +0.000 A 
ATOM     17  N   UNL     1      45.504   3.263   8.633  0.00  0.00    +0.000 N 
ATOM     18  C   UNL     1      45.521   4.570   9.059  0.00  0.00    +0.000 A 
ATOM     19  O   UNL     1      46.151   5.439   8.464  0.00  0.00    +0.000 OA
ATOM     20  C   UNL     1      44.730   4.801  10.251  0.00  0.00    +0.000 A 
ATOM     21  H   UNL     1      46.050   3.057   7.810  0.00  0.00    +0.000 HD
ENDBRANCH  10  11
ENDBRANCH   7  10
ENDBRANCH   1   7
BRANCH   4  22
ATOM     22  C   UNL     1      49.542   6.439  16.539  0.00  0.00    +0.000 C 
BRANCH  22  23
ATOM     23  N   UNL     1      50.257   5.153  16.616  0.00  0.00    +0.000 NA
ATOM     24  H   UNL     1      51.243   5.309  16.421  0.00  0.00    +0.000 HD
BRANCH  23  25
ATOM     25  C   UNL     1      50.040   4.445  17.884  0.00  0.00    +0.000 C 
ATOM     26  C   UNL     1      51.323   4.046  18.635  0.00  0.00    +0.000 C 
ATOM     27  C   UNL     1      52.074   2.925  17.929  0.00  0.00    +0.000 C 
ATOM     28  N   UNL     1      51.234   1.741  17.747  0.00  0.00    +0.000 NA
ATOM     29  C   UNL     1      50.026   2.061  16.978  0.00  0.00    +0.000 C 
ATOM     30  C   UNL     1      49.208   3.175  17.630  0.00  0.00    +0.000 C 
ATOM     31  H   UNL     1      50.960   1.384  18.663  0.00  0.00    +0.000 HD
ENDBRANCH  23  25
ENDBRANCH  22  23
ENDBRANCH   4  22
TORSDOF 6
ENDMDL
MODEL 4
REMARK VINA RESULT:    -6.635      2.605      4.279
REMARK INTER + INTRA:          -9.788
REMARK INTER:                  -8.886
REMARK INTRA:                  -0.901
REMARK UNBOUND:                -0.825
REMARK  Name = 
REMARK  7 active torsions:
REMARK  status: ('A' for Active; 'I' for Inactive)
REMARK    1  A    between atoms: C_1  and  C_2
REMARK    2  A    between atoms: C_2  and  N_3
REMARK    3  A    between atoms: C_2  and  C_18
REMARK    4  A    between atoms: N_3  and  C_4
REMARK    5  A    between atoms: C_7  and  C_8
REMARK    6  A    between atoms: C_8  and  N_9
REMARK    7  A    between atoms: N_9  and  C_10
REMARK                            x       y       z     vdW  Elec       q    Type
REMARK                         _______ _______ _______ _____ _____    ______ ____
ROOT
ATOM      1  C   UNL     1      48.176   3.606  18.042  0.00  0.00    +0.000 A 
ATOM      2  C   UNL     1      48.802   2.795  17.110  0.00  0.00    +0.000 A 
ATOM      3  N   UNL     1      48.482   2.739  15.801  0.00  0.00    +0.000 NA
ATOM      4  C   UNL     1      47.438   3.497  15.411  0.00  0.00    +0.000 A 
ATOM      5  N   UNL     1      46.647   4.183  16.262  0.00  0.00    +0.000 NA
ATOM      6  C   UNL     1      47.028   4.201  17.557  0.00  0.00    +0.000 A 
ENDROOT
BRANCH   1   7
ATOM      7  N   UNL     1      48.606   3.832  19.351  0.00  0.00    +0.000 N 
ATOM      8  H   UNL     1      48.776   2.985  19.894  0.00  0.00    +0.000 HD
BRANCH   7  10
ATOM      9  C   UNL     1      50.258   4.828  20.917  0.00  0.00    +0.000 C 
ATOM     10  C   UNL     1      49.671   4.830  19.493  0.00  0.00    +0.000 C 
BRANCH  10  11
ATOM     11  C   UNL     1      49.298   6.235  19.071  0.00  0.00    +0.000 A 
ATOM     12  C   UNL     1      48.655   7.144  19.897  0.00  0.00    +0.000 A 
ATOM     13  S   UNL     1      48.014   8.474  19.031  0.00  0.00    +0.000 S 
ATOM     14  C   UNL     1      48.679   7.910  17.568  0.00  0.00    +0.000 A 
ATOM     15  N   UNL     1      48.406   8.504  16.377  0.00  0.00    +0.000 NA
ATOM     16  C   UNL     1      49.032   7.985  15.372  0.00  0.00    +0.000 A 
ATOM     17  N   UNL     1      49.945   6.961  15.456  0.00  0.00    +0.000 N 
ATOM     18  C   UNL     1      50.265   6.339  16.640  0.00  0.00    +0.000 A 
ATOM     19  O   UNL     1      51.133   5.474  16.705  0.00  0.00    +0.000 OA
ATOM     20  C   UNL     1      49.488   6.809  17.770  0.00  0.00    +0.000 A 
ATOM     21  H   UNL     1      50.456   6.657  14.642  0.00  0.00    +0.000 HD
ENDBRANCH  10  11
ENDBRANCH   7  10
ENDBRANCH   1   7
BRANCH   4  22
ATOM     22  C   UNL     1      47.257   3.804  13.928  0.00  0.00    +0.000 C 
BRANCH  22  23
ATOM     23  N   UNL     1      45.932   3.515  13.354  0.00  0.00    +0.000 NA
ATOM     24  H   UNL     1      45.253   3.437  14.107  0.00  0.00    +0.000 HD
BRANCH  23  25
ATOM     25  C   UNL     1      45.523   4.482  12.327  0.00  0.00    +0.000 C 
ATOM     26  C   UNL     1      44.508   5.541  12.797  0.00  0.00    +0.000 C 
ATOM     27  C   UNL     1      43.129   4.942  13.042  0.00  0.00    +0.000 C 
ATOM     28  N   UNL     1      42.610   4.273  11.848  0.00  0.00    +0.000 NA
ATOM     29  C   UNL     1      43.516   3.210  11.400  0.00  0.00    +0.000 C 
ATOM     30  C   UNL     1      44.925   3.734  11.123  0.00  0.00    +0.000 C 
ATOM     31  H   UNL     1      42.508   4.960  11.100  0.00  0.00    +0.000 HD
ENDBRANCH  23  25
ENDBRANCH  22  23
ENDBRANCH   4  22
TORSDOF 6
ENDMDL
MODEL 5
REMARK VINA RESULT:    -6.529      2.016      2.729
REMARK INTER + INTRA:          -9.644
REMARK INTER:                  -8.768
REMARK INTRA:                  -0.877
REMARK UNBOUND:                -0.825
REMARK  Name = 
REMARK  7 active torsions:
REMARK  status: ('A' for Active; 'I' for Inactive)
REMARK    1  A    between atoms: C_1  and  C_2
REMARK    2  A    between atoms: C_2  and  N_3
REMARK    3  A    between atoms: C_2  and  C_18
REMARK    4  A    between atoms: N_3  and  C_4
REMARK    5  A    between atoms: C_7  and  C_8
REMARK    6  A    between atoms: C_8  and  N_9
REMARK    7  A    between atoms: N_9  and  C_10
REMARK                            x       y       z     vdW  Elec       q    Type
REMARK                         _______ _______ _______ _____ _____    ______ ____
ROOT
ATOM      1  C   UNL     1      48.636   7.935  15.205  0.00  0.00    +0.000 A 
ATOM      2  C   UNL     1      47.763   8.698  14.448  0.00  0.00    +0.000 A 
ATOM      3  N   UNL     1      47.202   8.300  13.288  0.00  0.00    +0.000 NA
ATOM      4  C   UNL     1      47.579   7.090  12.829  0.00  0.00    +0.000 A 
ATOM      5  N   UNL     1      48.554   6.343  13.389  0.00  0.00    +0.000 NA
ATOM      6  C   UNL     1      49.069   6.798  14.552  0.00  0.00    +0.000 A 
ENDROOT
BRANCH   1   7
ATOM      7  N   UNL     1      49.077   8.235  16.496  0.00  0.00    +0.000 N 
ATOM      8  H   UNL     1      48.961   9.211  16.767  0.00  0.00    +0.000 HD
BRANCH   7  10
ATOM      9  C   UNL     1      48.405   8.009  18.877  0.00  0.00    +0.000 C 
ATOM     10  C   UNL     1      48.647   7.294  17.536  0.00  0.00    +0.000 C 
BRANCH  10  11
ATOM     11  C   UNL     1      49.544   6.090  17.726  0.00  0.00    +0.000 A 
ATOM     12  C   UNL     1      50.900   6.174  18.004  0.00  0.00    +0.000 A 
ATOM     13  S   UNL     1      51.709   4.686  17.763  0.00  0.00    +0.000 S 
ATOM     14  C   UNL     1      50.250   3.890  17.393  0.00  0.00    +0.000 A 
ATOM     15  N   UNL     1      50.222   2.604  16.955  0.00  0.00    +0.000 NA
ATOM     16  C   UNL     1      49.031   2.135  16.770  0.00  0.00    +0.000 A 
ATOM     17  N   UNL     1      47.867   2.816  17.033  0.00  0.00    +0.000 N 
ATOM     18  C   UNL     1      47.844   4.112  17.491  0.00  0.00    +0.000 A 
ATOM     19  O   UNL     1      46.797   4.679  17.787  0.00  0.00    +0.000 OA
ATOM     20  C   UNL     1      49.159   4.714  17.590  0.00  0.00    +0.000 A 
ATOM     21  H   UNL     1      46.971   2.362  16.941  0.00  0.00    +0.000 HD
ENDBRANCH  10  11
ENDBRANCH   7  10
ENDBRANCH   1   7
BRANCH   4  22
ATOM     22  C   UNL     1      46.726   6.398  11.770  0.00  0.00    +0.000 C 
BRANCH  22  23
ATOM     23  N   UNL     1      45.268   6.429  11.977  0.00  0.00    +0.000 NA
ATOM     24  H   UNL     1      44.804   6.407  11.072  0.00  0.00    +0.000 HD
BRANCH  23  25
ATOM     25  C   UNL     1      44.790   5.374  12.879  0.00  0.00    +0.000 C 
ATOM     26  C   UNL     1      45.200   3.944  12.485  0.00  0.00    +0.000 C 
ATOM     27  C   UNL     1      44.468   3.462  11.239  0.00  0.00    +0.000 C 
ATOM     28  N   UNL     1      43.016   3.517  11.409  0.00  0.00    +0.000 NA
ATOM     29  C   UNL     1      42.570   4.879  11.724  0.00  0.00    +0.000 C 
ATOM     30  C   UNL     1      43.255   5.433  12.973  0.00  0.00    +0.000 C 
ATOM     31  H   UNL     1      42.747   2.895  12.171  0.00  0.00    +0.000 HD
ENDBRANCH  23  25
ENDBRANCH  22  23
ENDBRANCH   4  22
TORSDOF 6
ENDMDL
MODEL 6
REMARK VINA RESULT:    -6.528      3.229      4.163
REMARK INTER + INTRA:          -9.643
REMARK INTER:                  -8.724
REMARK INTRA:                  -0.919
REMARK UNBOUND:                -0.825
REMARK  Name = 
REMARK  7 active torsions:
REMARK  status: ('A' for Active; 'I' for Inactive)
REMARK    1  A    between atoms: C_1  and  C_2
REMARK    2  A    between atoms: C_2  and  N_3
REMARK    3  A    between atoms: C_2  and  C_18
REMARK    4  A    between atoms: N_3  and  C_4
REMARK    5  A    between atoms: C_7  and  C_8
REMARK    6  A    between atoms: C_8  and  N_9
REMARK    7  A    between atoms: N_9  and  C_10
REMARK                            x       y       z     vdW  Elec       q    Type
REMARK                         _______ _______ _______ _____ _____    ______ ____
ROOT
ATOM      1  C   UNL     1      46.668   5.348  13.787  0.00  0.00    +0.000 A 
ATOM      2  C   UNL     1      46.766   3.966  13.778  0.00  0.00    +0.000 A 
ATOM      3  N   UNL     1      45.984   3.145  13.048  0.00  0.00    +0.000 NA
ATOM      4  C   UNL     1      45.010   3.736  12.327  0.00  0.00    +0.000 A 
ATOM      5  N   UNL     1      44.711   5.050  12.402  0.00  0.00    +0.000 NA
ATOM      6  C   UNL     1      45.538   5.815  13.147  0.00  0.00    +0.000 A 
ENDROOT
BRANCH   1   7
ATOM      7  N   UNL     1      47.580   6.229  14.374  0.00  0.00    +0.000 N 
ATOM      8  H   UNL     1      48.324   5.777  14.905  0.00  0.00    +0.000 HD
BRANCH   7  10
ATOM      9  C   UNL     1      48.970   6.743  12.381  0.00  0.00    +0.000 C 
ATOM     10  C   UNL     1      48.065   7.298  13.496  0.00  0.00    +0.000 C 
BRANCH  10  11
ATOM     11  C   UNL     1      48.736   8.457  14.201  0.00  0.00    +0.000 A 
ATOM     12  C   UNL     1      48.354   9.781  14.046  0.00  0.00    +0.000 A 
ATOM     13  S   UNL     1      49.532  10.873  14.636  0.00  0.00    +0.000 S 
ATOM     14  C   UNL     1      50.511   9.598  15.200  0.00  0.00    +0.000 A 
ATOM     15  N   UNL     1      51.754   9.814  15.704  0.00  0.00    +0.000 NA
ATOM     16  C   UNL     1      52.341   8.746  16.136  0.00  0.00    +0.000 A 
ATOM     17  N   UNL     1      51.779   7.492  16.158  0.00  0.00    +0.000 N 
ATOM     18  C   UNL     1      50.519   7.227  15.674  0.00  0.00    +0.000 A 
ATOM     19  O   UNL     1      50.008   6.116  15.766  0.00  0.00    +0.000 OA
ATOM     20  C   UNL     1      49.880   8.377  15.065  0.00  0.00    +0.000 A 
ATOM     21  H   UNL     1      52.264   6.716  16.582  0.00  0.00    +0.000 HD
ENDBRANCH  10  11
ENDBRANCH   7  10
ENDBRANCH   1   7
BRANCH   4  22
ATOM     22  C   UNL     1      44.351   2.960  11.191  0.00  0.00    +0.000 C 
BRANCH  22  23
ATOM     23  N   UNL     1      45.248   2.432  10.149  0.00  0.00    +0.000 NA
ATOM     24  H   UNL     1      45.412   1.443  10.322  0.00  0.00    +0.000 HD
BRANCH  23  25
ATOM     25  C   UNL     1      44.767   2.691   8.786  0.00  0.00    +0.000 C 
ATOM     26  C   UNL     1      45.645   2.110   7.663  0.00  0.00    +0.000 C 
ATOM     27  C   UNL     1      46.969   2.852   7.531  0.00  0.00    +0.000 C 
ATOM     28  N   UNL     1      46.768   4.282   7.296  0.00  0.00    +0.000 NA
ATOM     29  C   UNL     1      45.987   4.893   8.377  0.00  0.00    +0.000 C 
ATOM     30  C   UNL     1      44.634   4.209   8.567  0.00  0.00    +0.000 C 
ATOM     31  H   UNL     1      46.268   4.406   6.414  0.00  0.00    +0.000 HD
ENDBRANCH  23  25
ENDBRANCH  22  23
ENDBRANCH   4  22
TORSDOF 6
ENDMDL
MODEL 7
REMARK VINA RESULT:    -6.513      1.264      1.899
REMARK INTER + INTRA:          -9.622
REMARK INTER:                  -8.942
REMARK INTRA:                  -0.680
REMARK UNBOUND:                -0.825
REMARK  Name = 
REMARK  7 active torsions:
REMARK  status: ('A' for Active; 'I' for Inactive)
REMARK    1  A    between atoms: C_1  and  C_2
REMARK    2  A    between atoms: C_2  and  N_3
REMARK    3  A    between atoms: C_2  and  C_18
REMARK    4  A    between atoms: N_3  and  C_4
REMARK    5  A    between atoms: C_7  and  C_8
REMARK    6  A    between atoms: C_8  and  N_9
REMARK    7  A    between atoms: N_9  and  C_10
REMARK                            x       y       z     vdW  Elec       q    Type
REMARK                         _______ _______ _______ _____ _____    ______ ____
ROOT
ATOM      1  C   UNL     1      48.243   6.418  14.903  0.00  0.00    +0.000 A 
ATOM      2  C   UNL     1      48.267   7.405  13.931  0.00  0.00    +0.000 A 
ATOM      3  N   UNL     1      47.505   7.407  12.818  0.00  0.00    +0.000 NA
ATOM      4  C   UNL     1      46.712   6.332  12.638  0.00  0.00    +0.000 A 
ATOM      5  N   UNL     1      46.742   5.235  13.424  0.00  0.00    +0.000 NA
ATOM      6  C   UNL     1      47.523   5.302  14.524  0.00  0.00    +0.000 A 
ENDROOT
BRANCH   1   7
ATOM      7  N   UNL     1      48.868   6.482  16.150  0.00  0.00    +0.000 N 
ATOM      8  H   UNL     1      48.750   7.369  16.639  0.00  0.00    +0.000 HD
BRANCH   7  10
ATOM      9  C   UNL     1      47.485   5.544  17.988  0.00  0.00    +0.000 C 
ATOM     10  C   UNL     1      48.655   5.316  17.014  0.00  0.00    +0.000 C 
BRANCH  10  11
ATOM     11  C   UNL     1      49.882   4.831  17.756  0.00  0.00    +0.000 A 
ATOM     12  C   UNL     1      50.673   5.645  18.554  0.00  0.00    +0.000 A 
ATOM     13  S   UNL     1      52.183   4.928  18.921  0.00  0.00    +0.000 S 
ATOM     14  C   UNL     1      51.758   3.489  18.116  0.00  0.00    +0.000 A 
ATOM     15  N   UNL     1      52.648   2.480  17.926  0.00  0.00    +0.000 NA
ATOM     16  C   UNL     1      52.149   1.439  17.345  0.00  0.00    +0.000 A 
ATOM     17  N   UNL     1      50.831   1.293  16.984  0.00  0.00    +0.000 N 
ATOM     18  C   UNL     1      49.891   2.279  17.169  0.00  0.00    +0.000 A 
ATOM     19  O   UNL     1      48.705   2.105  16.905  0.00  0.00    +0.000 OA
ATOM     20  C   UNL     1      50.440   3.510  17.703  0.00  0.00    +0.000 A 
ATOM     21  H   UNL     1      50.493   0.422  16.605  0.00  0.00    +0.000 HD
ENDBRANCH  10  11
ENDBRANCH   7  10
ENDBRANCH   1   7
BRANCH   4  22
ATOM     22  C   UNL     1      45.552   6.421  11.652  0.00  0.00    +0.000 C 
BRANCH  22  23
ATOM     23  N   UNL     1      45.531   5.421  10.570  0.00  0.00    +0.000 NA
ATOM     24  H   UNL     1      46.103   4.624  10.843  0.00  0.00    +0.000 HD
BRANCH  23  25
ATOM     25  C   UNL     1      44.173   5.027  10.174  0.00  0.00    +0.000 C 
ATOM     26  C   UNL     1      43.270   4.550  11.327  0.00  0.00    +0.000 C 
ATOM     27  C   UNL     1      43.702   3.192  11.867  0.00  0.00    +0.000 C 
ATOM     28  N   UNL     1      43.722   2.173  10.817  0.00  0.00    +0.000 NA
ATOM     29  C   UNL     1      44.622   2.557   9.723  0.00  0.00    +0.000 C 
ATOM     30  C   UNL     1      44.248   3.910   9.118  0.00  0.00    +0.000 C 
ATOM     31  H   UNL     1      42.778   2.060  10.446  0.00  0.00    +0.000 HD
ENDBRANCH  23  25
ENDBRANCH  22  23
ENDBRANCH   4  22
TORSDOF 6
ENDMDL
MODEL 8
REMARK VINA RESULT:    -6.056      4.951      8.358
REMARK INTER + INTRA:          -9.005
REMARK INTER:                  -8.297
REMARK INTRA:                  -0.708
REMARK UNBOUND:                -0.825
REMARK  Name = 
REMARK  7 active torsions:
REMARK  status: ('A' for Active; 'I' for Inactive)
REMARK    1  A    between atoms: C_1  and  C_2
REMARK    2  A    between atoms: C_2  and  N_3
REMARK    3  A    between atoms: C_2  and  C_18
REMARK    4  A    between atoms: N_3  and  C_4
REMARK    5  A    between atoms: C_7  and  C_8
REMARK    6  A    between atoms: C_8  and  N_9
REMARK    7  A    between atoms: N_9  and  C_10
REMARK                            x       y       z     vdW  Elec       q    Type
REMARK                         _______ _______ _______ _____ _____    ______ ____
ROOT
ATOM      1  C   UNL     1      48.269   6.818  12.679  0.00  0.00    +0.000 A 
ATOM      2  C   UNL     1      48.691   7.575  11.599  0.00  0.00    +0.000 A 
ATOM      3  N   UNL     1      49.826   8.302  11.566  0.00  0.00    +0.000 NA
ATOM      4  C   UNL     1      50.556   8.317  12.699  0.00  0.00    +0.000 A 
ATOM      5  N   UNL     1      50.151   7.766  13.863  0.00  0.00    +0.000 NA
ATOM      6  C   UNL     1      49.007   7.048  13.823  0.00  0.00    +0.000 A 
ENDROOT
BRANCH   1   7
ATOM      7  N   UNL     1      47.210   5.907  12.677  0.00  0.00    +0.000 N 
ATOM      8  H   UNL     1      46.968   5.537  13.596  0.00  0.00    +0.000 HD
BRANCH   7  10
ATOM      9  C   UNL     1      45.353   7.548  12.505  0.00  0.00    +0.000 C 
ATOM     10  C   UNL     1      46.040   6.314  11.892  0.00  0.00    +0.000 C 
BRANCH  10  11
ATOM     11  C   UNL     1      45.031   5.218  11.625  0.00  0.00    +0.000 A 
ATOM     12  C   UNL     1      44.096   4.787  12.553  0.00  0.00    +0.000 A 
ATOM     13  S   UNL     1      43.383   3.294  12.116  0.00  0.00    +0.000 S 
ATOM     14  C   UNL     1      44.230   3.260  10.638  0.00  0.00    +0.000 A 
ATOM     15  N   UNL     1      44.193   2.182   9.811  0.00  0.00    +0.000 NA
ATOM     16  C   UNL     1      44.846   2.342   8.708  0.00  0.00    +0.000 A 
ATOM     17  N   UNL     1      45.490   3.496   8.332  0.00  0.00    +0.000 N 
ATOM     18  C   UNL     1      45.542   4.617   9.128  0.00  0.00    +0.000 A 
ATOM     19  O   UNL     1      46.061   5.661   8.746  0.00  0.00    +0.000 OA
ATOM     20  C   UNL     1      44.928   4.433  10.428  0.00  0.00    +0.000 A 
ATOM     21  H   UNL     1      45.915   3.578   7.421  0.00  0.00    +0.000 HD
ENDBRANCH  10  11
ENDBRANCH   7  10
ENDBRANCH   1   7
BRANCH   4  22
ATOM     22  C   UNL     1      52.013   8.765  12.639  0.00  0.00    +0.000 C 
BRANCH  22  23
ATOM     23  N   UNL     1      53.003   7.737  12.276  0.00  0.00    +0.000 NA
ATOM     24  H   UNL     1      52.531   6.840  12.183  0.00  0.00    +0.000 HD
BRANCH  23  25
ATOM     25  C   UNL     1      53.788   8.084  11.085  0.00  0.00    +0.000 C 
ATOM     26  C   UNL     1      52.965   8.297   9.801  0.00  0.00    +0.000 C 
ATOM     27  C   UNL     1      52.392   6.991   9.266  0.00  0.00    +0.000 C 
ATOM     28  N   UNL     1      53.442   6.005   9.007  0.00  0.00    +0.000 NA
ATOM     29  C   UNL     1      54.215   5.722  10.222  0.00  0.00    +0.000 C 
ATOM     30  C   UNL     1      54.833   6.986  10.818  0.00  0.00    +0.000 C 
ATOM     31  H   UNL     1      54.071   6.370   8.291  0.00  0.00    +0.000 HD
ENDBRANCH  23  25
ENDBRANCH  22  23
ENDBRANCH   4  22
TORSDOF 6
ENDMDL
MODEL 9
REMARK VINA RESULT:    -5.996      2.826      4.833
REMARK INTER + INTRA:          -8.924
REMARK INTER:                  -8.088
REMARK INTRA:                  -0.836
REMARK UNBOUND:                -0.825
REMARK  Name = 
REMARK  7 active torsions:
REMARK  status: ('A' for Active; 'I' for Inactive)
REMARK    1  A    between atoms: C_1  and  C_2
REMARK    2  A    between atoms: C_2  and  N_3
REMARK    3  A    between atoms: C_2  and  C_18
REMARK    4  A    between atoms: N_3  and  C_4
REMARK    5  A    between atoms: C_7  and  C_8
REMARK    6  A    between atoms: C_8  and  N_9
REMARK    7  A    between atoms: N_9  and  C_10
REMARK                            x       y       z     vdW  Elec       q    Type
REMARK                         _______ _______ _______ _____ _____    ______ ____
ROOT
ATOM      1  C   UNL     1      48.580   4.565  17.453  0.00  0.00    +0.000 A 
ATOM      2  C   UNL     1      47.457   3.782  17.248  0.00  0.00    +0.000 A 
ATOM      3  N   UNL     1      46.768   3.712  16.091  0.00  0.00    +0.000 NA
ATOM      4  C   UNL     1      47.195   4.514  15.096  0.00  0.00    +0.000 A 
ATOM      5  N   UNL     1      48.162   5.444  15.241  0.00  0.00    +0.000 NA
ATOM      6  C   UNL     1      48.814   5.456  16.424  0.00  0.00    +0.000 A 
ENDROOT
BRANCH   1   7
ATOM      7  N   UNL     1      49.424   4.513  18.565  0.00  0.00    +0.000 N 
ATOM      8  H   UNL     1      50.020   3.686  18.606  0.00  0.00    +0.000 HD
BRANCH   7  10
ATOM      9  C   UNL     1      51.453   5.482  19.621  0.00  0.00    +0.000 C 
ATOM     10  C   UNL     1      50.143   5.756  18.860  0.00  0.00    +0.000 C 
BRANCH  10  11
ATOM     11  C   UNL     1      49.329   6.820  19.565  0.00  0.00    +0.000 A 
ATOM     12  C   UNL     1      48.722   6.636  20.798  0.00  0.00    +0.000 A 
ATOM     13  S   UNL     1      47.559   7.845  21.139  0.00  0.00    +0.000 S 
ATOM     14  C   UNL     1      47.928   8.682  19.702  0.00  0.00    +0.000 A 
ATOM     15  N   UNL     1      47.206   9.757  19.289  0.00  0.00    +0.000 NA
ATOM     16  C   UNL     1      47.651  10.307  18.208  0.00  0.00    +0.000 A 
ATOM     17  N   UNL     1      48.781   9.915  17.531  0.00  0.00    +0.000 N 
ATOM     18  C   UNL     1      49.552   8.844  17.918  0.00  0.00    +0.000 A 
ATOM     19  O   UNL     1      50.595   8.552  17.342  0.00  0.00    +0.000 OA
ATOM     20  C   UNL     1      49.013   8.124  19.055  0.00  0.00    +0.000 A 
ATOM     21  H   UNL     1      49.115  10.439  16.737  0.00  0.00    +0.000 HD
ENDBRANCH  10  11
ENDBRANCH   7  10
ENDBRANCH   1   7
BRANCH   4  22
ATOM     22  C   UNL     1      46.750   4.225  13.666  0.00  0.00    +0.000 C 
BRANCH  22  23
ATOM     23  N   UNL     1      45.303   4.053  13.450  0.00  0.00    +0.000 NA
ATOM     24  H   UNL     1      44.896   3.603  14.266  0.00  0.00    +0.000 HD
BRANCH  23  25
ATOM     25  C   UNL     1      44.618   5.303  13.098  0.00  0.00    +0.000 C 
ATOM     26  C   UNL     1      43.133   5.150  12.723  0.00  0.00    +0.000 C 
ATOM     27  C   UNL     1      42.952   4.460  11.377  0.00  0.00    +0.000 C 
ATOM     28  N   UNL     1      43.649   5.172  10.305  0.00  0.00    +0.000 NA
ATOM     29  C   UNL     1      45.084   5.287  10.590  0.00  0.00    +0.000 C 
ATOM     30  C   UNL     1      45.351   5.980  11.926  0.00  0.00    +0.000 C 
ATOM     31  H   UNL     1      43.252   6.108  10.216  0.00  0.00    +0.000 HD
ENDBRANCH  23  25
ENDBRANCH  22  23
ENDBRANCH   4  22
TORSDOF 6
ENDMDL
