MODEL 1
REMARK VINA RESULT:    -7.557      0.000      0.000
REMARK INTER + INTRA:         -13.589
REMARK INTER:                 -11.754
REMARK INTRA:                  -1.835
REMARK UNBOUND:                -1.835
REMARK  Name = 
REMARK  10 active torsions:
REMARK  status: ('A' for Active; 'I' for Inactive)
REMARK    1  A    between atoms: N_1  and  C_2
REMARK    2  A    between atoms: C_2  and  C_3
REMARK    3  A    between atoms: C_3  and  N_4
REMARK    4  A    between atoms: N_4  and  C_5
REMARK    5  A    between atoms: C_5  and  C_6
REMARK    6  A    between atoms: C_8  and  C_9
REMARK    7  A    between atoms: C_9  and  N_10
REMARK    8  A    between atoms: C_11  and  C_13
REMARK    9  A    between atoms: C_25  and  C_26
REMARK   10  A    between atoms: C_26  and  N_27
REMARK                            x       y       z     vdW  Elec       q    Type
REMARK                         _______ _______ _______ _____ _____    ______ ____
ROOT
ATOM      1  C   UNL     1      44.642   5.336  12.215  0.00  0.00    +0.000 A 
ATOM      2  C   UNL     1      45.522   5.565  13.302  0.00  0.00    +0.000 A 
ATOM      3  C   UNL     1      46.335   4.555  13.832  0.00  0.00    +0.000 A 
ATOM      4  C   UNL     1      46.242   3.272  13.297  0.00  0.00    +0.000 A 
ATOM      5  C   UNL     1      45.418   3.032  12.200  0.00  0.00    +0.000 A 
ATOM      6  C   UNL     1      44.633   4.053  11.620  0.00  0.00    +0.000 A 
ENDROOT
BRANCH   1   7
ATOM      7  C   UNL     1      43.835   6.538  11.752  0.00  0.00    +0.000 C 
BRANCH   7   8
ATOM      8  N   UNL     1      44.523   7.561  10.960  0.00  0.00    +0.000 NA
ATOM      9  H   UNL     1      45.429   7.164  10.696  0.00  0.00    +0.000 HD
BRANCH   8  10
ATOM     10  C   UNL     1      44.813   8.806  11.684  0.00  0.00    +0.000 C 
BRANCH  10  11
ATOM     11  C   UNL     1      46.249   8.930  12.220  0.00  0.00    +0.000 C 
BRANCH  11  12
ATOM     12  N   UNL     1      46.297   8.869  13.686  0.00  0.00    +0.000 NA
ATOM     13  H   UNL     1      47.238   9.110  13.995  0.00  0.00    +0.000 HD
ATOM     14  H   UNL     1      46.142   7.905  13.981  0.00  0.00    +0.000 HD
ENDBRANCH  11  12
ENDBRANCH  10  11
ENDBRANCH   8  10
ENDBRANCH   7   8
ENDBRANCH   1   7
BRANCH   3  15
ATOM     15  C   UNL     1      47.286   4.835  14.964  0.00  0.00    +0.000 C 
BRANCH  15  16
ATOM     16  N   UNL     1      47.849   6.155  14.863  0.00  0.00    +0.000 N 
ATOM     17  C   UNL     1      48.980   6.523  15.544  0.00  0.00    +0.000 C 
ATOM     18  O   UNL     1      49.596   5.741  16.264  0.00  0.00    +0.000 OA
ATOM     19  H   UNL     1      47.264   6.867  14.442  0.00  0.00    +0.000 HD
BRANCH  17  20
ATOM     20  C   UNL     1      49.472   7.889  15.311  0.00  0.00    +0.000 A 
ATOM     21  C   UNL     1      49.655   8.739  16.392  0.00  0.00    +0.000 A 
ATOM     22  S   UNL     1      50.280  10.265  15.963  0.00  0.00    +0.000 S 
ATOM     23  C   UNL     1      50.272   9.866  14.309  0.00  0.00    +0.000 A 
ATOM     24  N   UNL     1      50.674  10.767  13.375  0.00  0.00    +0.000 NA
ATOM     25  C   UNL     1      50.585  10.347  12.157  0.00  0.00    +0.000 A 
ATOM     26  N   UNL     1      50.139   9.104  11.790  0.00  0.00    +0.000 N 
ATOM     27  C   UNL     1      49.779   8.140  12.701  0.00  0.00    +0.000 A 
ATOM     28  O   UNL     1      49.478   7.006  12.341  0.00  0.00    +0.000 OA
ATOM     29  C   UNL     1      49.826   8.574  14.086  0.00  0.00    +0.000 A 
ATOM     30  H   UNL     1      50.124   8.827  10.820  0.00  0.00    +0.000 HD
ENDBRANCH  17  20
ENDBRANCH  15  16
ENDBRANCH   3  15
BRANCH   6  31
ATOM     31  C   UNL     1      43.879   3.686  10.351  0.00  0.00    +0.000 C 
BRANCH  31  32
ATOM     32  N   UNL     1      44.380   2.424   9.849  0.00  0.00    +0.000 N 
ATOM     33  C   UNL     1      45.258   2.457   8.791  0.00  0.00    +0.000 A 
ATOM     34  N   UNL     1      45.297   3.515   7.964  0.00  0.00    +0.000 NA
ATOM     35  C   UNL     1      46.138   3.444   6.906  0.00  0.00    +0.000 A 
ATOM     36  C   UNL     1      46.933   2.358   6.638  0.00  0.00    +0.000 A 
ATOM     37 CL   UNL     1      47.974   2.292   5.284  0.00  0.00    +0.000 Cl
ATOM     38  C   UNL     1      46.828   1.330   7.540  0.00  0.00    +0.000 A 
ATOM     39  N   UNL     1      46.013   1.359   8.620  0.00  0.00    +0.000 NA
ATOM     40  H   UNL     1      44.666   1.733  10.529  0.00  0.00    +0.000 HD
ENDBRANCH  31  32
ENDBRANCH   6  31
TORSDOF 10
ENDMDL
MODEL 2
REMARK VINA RESULT:    -7.490      2.503      3.963
REMARK INTER + INTRA:         -13.485
REMARK INTER:                 -12.313
REMARK INTRA:                  -1.172
REMARK UNBOUND:                -1.835
REMARK  Name = 
REMARK  10 active torsions:
REMARK  status: ('A' for Active; 'I' for Inactive)
REMARK    1  A    between atoms: N_1  and  C_2
REMARK    2  A    between atoms: C_2  and  C_3
REMARK    3  A    between atoms: C_3  and  N_4
REMARK    4  A    between atoms: N_4  and  C_5
REMARK    5  A    between atoms: C_5  and  C_6
REMARK    6  A    between atoms: C_8  and  C_9
REMARK    7  A    between atoms: C_9  and  N_10
REMARK    8  A    between atoms: C_11  and  C_13
REMARK    9  A    between atoms: C_25  and  C_26
REMARK   10  A    between atoms: C_26  and  N_27
REMARK                            x       y       z     vdW  Elec       q    Type
REMARK                         _______ _______ _______ _____ _____    ______ ____
ROOT
ATOM      1  C   UNL     1      44.874   5.829  11.683  0.00  0.00    +0.000 A 
ATOM      2  C   UNL     1      46.017   6.404  12.293  0.00  0.00    +0.000 A 
ATOM      3  C   UNL     1      46.843   5.682  13.165  0.00  0.00    +0.000 A 
ATOM      4  C   UNL     1      46.502   4.367  13.473  0.00  0.00    +0.000 A 
ATOM      5  C   UNL     1      45.409   3.766  12.852  0.00  0.00    +0.000 A 
ATOM      6  C   UNL     1      44.599   4.464  11.930  0.00  0.00    +0.000 A 
ENDROOT
BRANCH   1   7
ATOM      7  C   UNL     1      44.088   6.743  10.756  0.00  0.00    +0.000 C 
BRANCH   7   8
ATOM      8  N   UNL     1      43.465   7.936  11.335  0.00  0.00    +0.000 NA
ATOM      9  H   UNL     1      42.457   7.837  11.187  0.00  0.00    +0.000 HD
BRANCH   8  10
ATOM     10  C   UNL     1      43.854   9.202  10.700  0.00  0.00    +0.000 C 
BRANCH  10  11
ATOM     11  C   UNL     1      44.467  10.247  11.647  0.00  0.00    +0.000 C 
BRANCH  11  12
ATOM     12  N   UNL     1      44.880   9.656  12.926  0.00  0.00    +0.000 NA
ATOM     13  H   UNL     1      44.224   8.917  13.174  0.00  0.00    +0.000 HD
ATOM     14  H   UNL     1      44.798  10.362  13.657  0.00  0.00    +0.000 HD
ENDBRANCH  11  12
ENDBRANCH  10  11
ENDBRANCH   8  10
ENDBRANCH   7   8
ENDBRANCH   1   7
BRANCH   3  15
ATOM     15  C   UNL     1      48.069   6.307  13.771  0.00  0.00    +0.000 C 
BRANCH  15  16
ATOM     16  N   UNL     1      47.914   6.506  15.187  0.00  0.00    +0.000 N 
ATOM     17  C   UNL     1      48.975   6.468  16.054  0.00  0.00    +0.000 C 
ATOM     18  O   UNL     1      50.128   6.287  15.672  0.00  0.00    +0.000 OA
ATOM     19  H   UNL     1      46.969   6.460  15.551  0.00  0.00    +0.000 HD
BRANCH  17  20
ATOM     20  C   UNL     1      48.677   6.734  17.469  0.00  0.00    +0.000 A 
ATOM     21  C   UNL     1      48.411   8.034  17.874  0.00  0.00    +0.000 A 
ATOM     22  S   UNL     1      48.030   8.169  19.530  0.00  0.00    +0.000 S 
ATOM     23  C   UNL     1      48.265   6.501  19.777  0.00  0.00    +0.000 A 
ATOM     24  N   UNL     1      48.120   5.955  21.013  0.00  0.00    +0.000 NA
ATOM     25  C   UNL     1      48.361   4.687  21.066  0.00  0.00    +0.000 A 
ATOM     26  N   UNL     1      48.725   3.916  19.993  0.00  0.00    +0.000 N 
ATOM     27  C   UNL     1      48.828   4.412  18.716  0.00  0.00    +0.000 A 
ATOM     28  O   UNL     1      49.061   3.674  17.764  0.00  0.00    +0.000 OA
ATOM     29  C   UNL     1      48.602   5.842  18.607  0.00  0.00    +0.000 A 
ATOM     30  H   UNL     1      48.869   2.923  20.097  0.00  0.00    +0.000 HD
ENDBRANCH  17  20
ENDBRANCH  15  16
ENDBRANCH   3  15
BRANCH   6  31
ATOM     31  C   UNL     1      43.520   3.652  11.230  0.00  0.00    +0.000 C 
BRANCH  31  32
ATOM     32  N   UNL     1      44.123   2.487  10.619  0.00  0.00    +0.000 N 
ATOM     33  C   UNL     1      44.811   2.664   9.441  0.00  0.00    +0.000 A 
ATOM     34  N   UNL     1      44.561   3.722   8.652  0.00  0.00    +0.000 NA
ATOM     35  C   UNL     1      45.229   3.789   7.477  0.00  0.00    +0.000 A 
ATOM     36  C   UNL     1      46.129   2.842   7.058  0.00  0.00    +0.000 A 
ATOM     37 CL   UNL     1      46.946   2.948   5.561  0.00  0.00    +0.000 Cl
ATOM     38  C   UNL     1      46.322   1.803   7.932  0.00  0.00    +0.000 A 
ATOM     39  N   UNL     1      45.688   1.697   9.124  0.00  0.00    +0.000 NA
ATOM     40  H   UNL     1      44.611   1.844  11.226  0.00  0.00    +0.000 HD
ENDBRANCH  31  32
ENDBRANCH   6  31
TORSDOF 10
ENDMDL
MODEL 3
REMARK VINA RESULT:    -7.225      2.769      3.841
REMARK INTER + INTRA:         -13.073
REMARK INTER:                 -12.022
REMARK INTRA:                  -1.051
REMARK UNBOUND:                -1.835
REMARK  Name = 
REMARK  10 active torsions:
REMARK  status: ('A' for Active; 'I' for Inactive)
REMARK    1  A    between atoms: N_1  and  C_2
REMARK    2  A    between atoms: C_2  and  C_3
REMARK    3  A    between atoms: C_3  and  N_4
REMARK    4  A    between atoms: N_4  and  C_5
REMARK    5  A    between atoms: C_5  and  C_6
REMARK    6  A    between atoms: C_8  and  C_9
REMARK    7  A    between atoms: C_9  and  N_10
REMARK    8  A    between atoms: C_11  and  C_13
REMARK    9  A    between atoms: C_25  and  C_26
REMARK   10  A    between atoms: C_26  and  N_27
REMARK                            x       y       z     vdW  Elec       q    Type
REMARK                         _______ _______ _______ _____ _____    ______ ____
ROOT
ATOM      1  C   UNL     1      45.250   6.708  12.032  0.00  0.00    +0.000 A 
ATOM      2  C   UNL     1      46.404   6.909  12.831  0.00  0.00    +0.000 A 
ATOM      3  C   UNL     1      47.037   5.860  13.509  0.00  0.00    +0.000 A 
ATOM      4  C   UNL     1      46.487   4.583  13.427  0.00  0.00    +0.000 A 
ATOM      5  C   UNL     1      45.381   4.350  12.612  0.00  0.00    +0.000 A 
ATOM      6  C   UNL     1      44.764   5.389  11.880  0.00  0.00    +0.000 A 
ENDROOT
BRANCH   1   7
ATOM      7  C   UNL     1      44.689   7.948  11.355  0.00  0.00    +0.000 C 
BRANCH   7   8
ATOM      8  N   UNL     1      44.455   9.134  12.183  0.00  0.00    +0.000 NA
ATOM      9  H   UNL     1      43.780   8.857  12.902  0.00  0.00    +0.000 HD
BRANCH   8  10
ATOM     10  C   UNL     1      43.856  10.271  11.471  0.00  0.00    +0.000 C 
BRANCH  10  11
ATOM     11  C   UNL     1      42.752   9.905  10.465  0.00  0.00    +0.000 C 
BRANCH  11  12
ATOM     12  N   UNL     1      41.509   9.505  11.133  0.00  0.00    +0.000 NA
ATOM     13  H   UNL     1      40.980   8.897  10.509  0.00  0.00    +0.000 HD
ATOM     14  H   UNL     1      40.930  10.332  11.277  0.00  0.00    +0.000 HD
ENDBRANCH  11  12
ENDBRANCH  10  11
ENDBRANCH   8  10
ENDBRANCH   7   8
ENDBRANCH   1   7
BRANCH   3  15
ATOM     15  C   UNL     1      48.280   6.097  14.322  0.00  0.00    +0.000 C 
BRANCH  15  16
ATOM     16  N   UNL     1      47.965   6.363  15.701  0.00  0.00    +0.000 N 
ATOM     17  C   UNL     1      48.750   5.916  16.732  0.00  0.00    +0.000 C 
ATOM     18  O   UNL     1      49.785   5.283  16.542  0.00  0.00    +0.000 OA
ATOM     19  H   UNL     1      47.030   6.704  15.895  0.00  0.00    +0.000 HD
BRANCH  17  20
ATOM     20  C   UNL     1      48.333   6.301  18.089  0.00  0.00    +0.000 A 
ATOM     21  C   UNL     1      48.214   5.323  19.065  0.00  0.00    +0.000 A 
ATOM     22  S   UNL     1      47.777   5.935  20.594  0.00  0.00    +0.000 S 
ATOM     23  C   UNL     1      47.672   7.523  19.992  0.00  0.00    +0.000 A 
ATOM     24  N   UNL     1      47.308   8.551  20.802  0.00  0.00    +0.000 NA
ATOM     25  C   UNL     1      47.234   9.696  20.209  0.00  0.00    +0.000 A 
ATOM     26  N   UNL     1      47.503   9.906  18.881  0.00  0.00    +0.000 N 
ATOM     27  C   UNL     1      47.931   8.909  18.038  0.00  0.00    +0.000 A 
ATOM     28  O   UNL     1      48.255   9.152  16.879  0.00  0.00    +0.000 OA
ATOM     29  C   UNL     1      47.995   7.593  18.647  0.00  0.00    +0.000 A 
ATOM     30  H   UNL     1      47.457  10.833  18.487  0.00  0.00    +0.000 HD
ENDBRANCH  17  20
ENDBRANCH  15  16
ENDBRANCH   3  15
BRANCH   6  31
ATOM     31  C   UNL     1      43.649   4.975  10.933  0.00  0.00    +0.000 C 
BRANCH  31  32
ATOM     32  N   UNL     1      43.858   3.603  10.522  0.00  0.00    +0.000 N 
ATOM     33  C   UNL     1      44.721   3.370   9.476  0.00  0.00    +0.000 A 
ATOM     34  N   UNL     1      44.992   4.336   8.582  0.00  0.00    +0.000 NA
ATOM     35  C   UNL     1      45.796   4.010   7.543  0.00  0.00    +0.000 A 
ATOM     36  C   UNL     1      46.332   2.760   7.359  0.00  0.00    +0.000 A 
ATOM     37 CL   UNL     1      47.332   2.376   6.027  0.00  0.00    +0.000 Cl
ATOM     38  C   UNL     1      46.003   1.843   8.324  0.00  0.00    +0.000 A 
ATOM     39  N   UNL     1      45.215   2.124   9.389  0.00  0.00    +0.000 NA
ATOM     40  H   UNL     1      43.984   2.914  11.250  0.00  0.00    +0.000 HD
ENDBRANCH  31  32
ENDBRANCH   6  31
TORSDOF 10
ENDMDL
MODEL 4
REMARK VINA RESULT:    -6.887      5.013      8.852
REMARK INTER + INTRA:         -12.548
REMARK INTER:                 -10.685
REMARK INTRA:                  -1.862
REMARK UNBOUND:                -1.835
REMARK  Name = 
REMARK  10 active torsions:
REMARK  status: ('A' for Active; 'I' for Inactive)
REMARK    1  A    between atoms: N_1  and  C_2
REMARK    2  A    between atoms: C_2  and  C_3
REMARK    3  A    between atoms: C_3  and  N_4
REMARK    4  A    between atoms: N_4  and  C_5
REMARK    5  A    between atoms: C_5  and  C_6
REMARK    6  A    between atoms: C_8  and  C_9
REMARK    7  A    between atoms: C_9  and  N_10
REMARK    8  A    between atoms: C_11  and  C_13
REMARK    9  A    between atoms: C_25  and  C_26
REMARK   10  A    between atoms: C_26  and  N_27
REMARK                            x       y       z     vdW  Elec       q    Type
REMARK                         _______ _______ _______ _____ _____    ______ ____
ROOT
ATOM      1  C   UNL     1      48.992   5.787  17.644  0.00  0.00    +0.000 A 
ATOM      2  C   UNL     1      48.471   6.692  16.685  0.00  0.00    +0.000 A 
ATOM      3  C   UNL     1      49.285   7.332  15.740  0.00  0.00    +0.000 A 
ATOM      4  C   UNL     1      50.657   7.101  15.775  0.00  0.00    +0.000 A 
ATOM      5  C   UNL     1      51.188   6.181  16.677  0.00  0.00    +0.000 A 
ATOM      6  C   UNL     1      50.374   5.488  17.600  0.00  0.00    +0.000 A 
ENDROOT
BRANCH   1   7
ATOM      7  C   UNL     1      47.977   5.170  18.592  0.00  0.00    +0.000 C 
BRANCH   7   8
ATOM      8  N   UNL     1      47.056   4.166  18.052  0.00  0.00    +0.000 NA
ATOM      9  H   UNL     1      46.358   3.990  18.780  0.00  0.00    +0.000 HD
BRANCH   8  10
ATOM     10  C   UNL     1      47.673   2.867  17.749  0.00  0.00    +0.000 C 
BRANCH  10  11
ATOM     11  C   UNL     1      48.119   2.680  16.289  0.00  0.00    +0.000 C 
BRANCH  11  12
ATOM     12  N   UNL     1      49.293   1.806  16.180  0.00  0.00    +0.000 NA
ATOM     13  H   UNL     1      49.629   1.587  17.117  0.00  0.00    +0.000 HD
ATOM     14  H   UNL     1      50.046   2.321  15.724  0.00  0.00    +0.000 HD
ENDBRANCH  11  12
ENDBRANCH  10  11
ENDBRANCH   8  10
ENDBRANCH   7   8
ENDBRANCH   1   7
BRANCH   3  15
ATOM     15  C   UNL     1      48.699   8.261  14.712  0.00  0.00    +0.000 C 
BRANCH  15  16
ATOM     16  N   UNL     1      47.499   7.718  14.135  0.00  0.00    +0.000 N 
ATOM     17  C   UNL     1      47.487   7.105  12.909  0.00  0.00    +0.000 C 
ATOM     18  O   UNL     1      48.505   6.958  12.239  0.00  0.00    +0.000 OA
ATOM     19  H   UNL     1      46.624   7.994  14.565  0.00  0.00    +0.000 HD
BRANCH  17  20
ATOM     20  C   UNL     1      46.198   6.554  12.463  0.00  0.00    +0.000 A 
ATOM     21  C   UNL     1      45.252   7.404  11.910  0.00  0.00    +0.000 A 
ATOM     22  S   UNL     1      43.837   6.607  11.392  0.00  0.00    +0.000 S 
ATOM     23  C   UNL     1      44.415   5.105  11.944  0.00  0.00    +0.000 A 
ATOM     24  N   UNL     1      43.657   3.983  11.825  0.00  0.00    +0.000 NA
ATOM     25  C   UNL     1      44.200   2.919  12.315  0.00  0.00    +0.000 A 
ATOM     26  N   UNL     1      45.438   2.874  12.904  0.00  0.00    +0.000 N 
ATOM     27  C   UNL     1      46.262   3.969  12.994  0.00  0.00    +0.000 A 
ATOM     28  O   UNL     1      47.402   3.872  13.441  0.00  0.00    +0.000 OA
ATOM     29  C   UNL     1      45.683   5.202  12.491  0.00  0.00    +0.000 A 
ATOM     30  H   UNL     1      45.817   2.002  13.240  0.00  0.00    +0.000 HD
ENDBRANCH  17  20
ENDBRANCH  15  16
ENDBRANCH   3  15
BRANCH   6  31
ATOM     31  C   UNL     1      51.062   4.422  18.438  0.00  0.00    +0.000 C 
BRANCH  31  32
ATOM     32  N   UNL     1      51.341   3.271  17.607  0.00  0.00    +0.000 N 
ATOM     33  C   UNL     1      52.359   2.430  17.996  0.00  0.00    +0.000 A 
ATOM     34  N   UNL     1      53.339   2.868  18.804  0.00  0.00    +0.000 NA
ATOM     35  C   UNL     1      54.341   2.003  19.086  0.00  0.00    +0.000 A 
ATOM     36  C   UNL     1      54.406   0.726  18.589  0.00  0.00    +0.000 A 
ATOM     37 CL   UNL     1      55.694  -0.338  18.951  0.00  0.00    +0.000 Cl
ATOM     38  C   UNL     1      53.359   0.368  17.777  0.00  0.00    +0.000 A 
ATOM     39  N   UNL     1      52.328   1.192  17.477  0.00  0.00    +0.000 NA
ATOM     40  H   UNL     1      50.552   2.742  17.265  0.00  0.00    +0.000 HD
ENDBRANCH  31  32
ENDBRANCH   6  31
TORSDOF 10
ENDMDL
MODEL 5
REMARK VINA RESULT:    -6.408      4.381      6.641
REMARK INTER + INTRA:         -11.801
REMARK INTER:                 -10.093
REMARK INTRA:                  -1.709
REMARK UNBOUND:                -1.835
REMARK  Name = 
REMARK  10 active torsions:
REMARK  status: ('A' for Active; 'I' for Inactive)
REMARK    1  A    between atoms: N_1  and  C_2
REMARK    2  A    between atoms: C_2  and  C_3
REMARK    3  A    between atoms: C_3  and  N_4
REMARK    4  A    between atoms: N_4  and  C_5
REMARK    5  A    between atoms: C_5  and  C_6
REMARK    6  A    between atoms: C_8  and  C_9
REMARK    7  A    between atoms: C_9  and  N_10
REMARK    8  A    between atoms: C_11  and  C_13
REMARK    9  A    between atoms: C_25  and  C_26
REMARK   10  A    between atoms: C_26  and  N_27
REMARK                            x       y       z     vdW  Elec       q    Type
REMARK                         _______ _______ _______ _____ _____    ______ ____
ROOT
ATOM      1  C   UNL     1      48.736   7.301  13.954  0.00  0.00    +0.000 A 
ATOM      2  C   UNL     1      50.058   7.618  13.553  0.00  0.00    +0.000 A 
ATOM      3  C   UNL     1      50.373   7.987  12.239  0.00  0.00    +0.000 A 
ATOM      4  C   UNL     1      49.356   8.002  11.287  0.00  0.00    +0.000 A 
ATOM      5  C   UNL     1      48.041   7.738  11.666  0.00  0.00    +0.000 A 
ATOM      6  C   UNL     1      47.700   7.417  12.998  0.00  0.00    +0.000 A 
ENDROOT
BRANCH   1   7
ATOM      7  C   UNL     1      48.559   6.928  15.418  0.00  0.00    +0.000 C 
BRANCH   7   8
ATOM      8  N   UNL     1      49.317   5.783  15.929  0.00  0.00    +0.000 NA
ATOM      9  H   UNL     1      49.493   5.170  15.128  0.00  0.00    +0.000 HD
BRANCH   8  10
ATOM     10  C   UNL     1      48.603   4.969  16.922  0.00  0.00    +0.000 C 
BRANCH  10  11
ATOM     11  C   UNL     1      47.310   4.307  16.417  0.00  0.00    +0.000 C 
BRANCH  11  12
ATOM     12  N   UNL     1      47.547   3.466  15.237  0.00  0.00    +0.000 NA
ATOM     13  H   UNL     1      48.396   2.922  15.386  0.00  0.00    +0.000 HD
ATOM     14  H   UNL     1      47.734   4.067  14.435  0.00  0.00    +0.000 HD
ENDBRANCH  11  12
ENDBRANCH  10  11
ENDBRANCH   8  10
ENDBRANCH   7   8
ENDBRANCH   1   7
BRANCH   3  15
ATOM     15  C   UNL     1      51.779   8.352  11.849  0.00  0.00    +0.000 C 
BRANCH  15  16
ATOM     16  N   UNL     1      52.065   7.970  10.492  0.00  0.00    +0.000 N 
ATOM     17  C   UNL     1      52.980   8.638   9.720  0.00  0.00    +0.000 C 
ATOM     18  O   UNL     1      53.631   9.587  10.147  0.00  0.00    +0.000 OA
ATOM     19  H   UNL     1      51.413   7.329  10.054  0.00  0.00    +0.000 HD
BRANCH  17  20
ATOM     20  C   UNL     1      53.206   8.110   8.365  0.00  0.00    +0.000 A 
ATOM     21  C   UNL     1      53.130   8.970   7.280  0.00  0.00    +0.000 A 
ATOM     22  S   UNL     1      53.470   8.219   5.789  0.00  0.00    +0.000 S 
ATOM     23  C   UNL     1      53.672   6.703   6.534  0.00  0.00    +0.000 A 
ATOM     24  N   UNL     1      53.958   5.598   5.796  0.00  0.00    +0.000 NA
ATOM     25  C   UNL     1      54.050   4.508   6.483  0.00  0.00    +0.000 A 
ATOM     26  N   UNL     1      53.892   4.426   7.842  0.00  0.00    +0.000 N 
ATOM     27  C   UNL     1      53.661   5.524   8.635  0.00  0.00    +0.000 A 
ATOM     28  O   UNL     1      53.621   5.427   9.859  0.00  0.00    +0.000 OA
ATOM     29  C   UNL     1      53.511   6.771   7.908  0.00  0.00    +0.000 A 
ATOM     30  H   UNL     1      54.009   3.547   8.322  0.00  0.00    +0.000 HD
ENDBRANCH  17  20
ENDBRANCH  15  16
ENDBRANCH   3  15
BRANCH   6  31
ATOM     31  C   UNL     1      46.216   7.279  13.299  0.00  0.00    +0.000 C 
BRANCH  31  32
ATOM     32  N   UNL     1      45.923   5.899  13.622  0.00  0.00    +0.000 N 
ATOM     33  C   UNL     1      45.579   5.057  12.590  0.00  0.00    +0.000 A 
ATOM     34  N   UNL     1      45.083   5.546  11.441  0.00  0.00    +0.000 NA
ATOM     35  C   UNL     1      44.704   4.651  10.500  0.00  0.00    +0.000 A 
ATOM     36  C   UNL     1      44.794   3.292  10.662  0.00  0.00    +0.000 A 
ATOM     37 CL   UNL     1      44.292   2.186   9.459  0.00  0.00    +0.000 Cl
ATOM     38  C   UNL     1      45.316   2.887  11.865  0.00  0.00    +0.000 A 
ATOM     39  N   UNL     1      45.722   3.743  12.832  0.00  0.00    +0.000 NA
ATOM     40  H   UNL     1      46.538   5.433  14.274  0.00  0.00    +0.000 HD
ENDBRANCH  31  32
ENDBRANCH   6  31
TORSDOF 10
ENDMDL
MODEL 6
REMARK VINA RESULT:    -6.389      2.504      4.268
REMARK INTER + INTRA:         -11.772
REMARK INTER:                 -11.281
REMARK INTRA:                  -0.491
REMARK UNBOUND:                -1.835
REMARK  Name = 
REMARK  10 active torsions:
REMARK  status: ('A' for Active; 'I' for Inactive)
REMARK    1  A    between atoms: N_1  and  C_2
REMARK    2  A    between atoms: C_2  and  C_3
REMARK    3  A    between atoms: C_3  and  N_4
REMARK    4  A    between atoms: N_4  and  C_5
REMARK    5  A    between atoms: C_5  and  C_6
REMARK    6  A    between atoms: C_8  and  C_9
REMARK    7  A    between atoms: C_9  and  N_10
REMARK    8  A    between atoms: C_11  and  C_13
REMARK    9  A    between atoms: C_25  and  C_26
REMARK   10  A    between atoms: C_26  and  N_27
REMARK                            x       y       z     vdW  Elec       q    Type
REMARK                         _______ _______ _______ _____ _____    ______ ____
ROOT
ATOM      1  C   UNL     1      44.981   7.980  11.675  0.00  0.00    +0.000 A 
ATOM      2  C   UNL     1      46.311   8.222  12.101  0.00  0.00    +0.000 A 
ATOM      3  C   UNL     1      47.074   7.249  12.762  0.00  0.00    +0.000 A 
ATOM      4  C   UNL     1      46.487   6.018  13.043  0.00  0.00    +0.000 A 
ATOM      5  C   UNL     1      45.198   5.740  12.595  0.00  0.00    +0.000 A 
ATOM      6  C   UNL     1      44.436   6.692  11.881  0.00  0.00    +0.000 A 
ENDROOT
BRANCH   1   7
ATOM      7  C   UNL     1      44.293   9.135  10.965  0.00  0.00    +0.000 C 
BRANCH   7   8
ATOM      8  N   UNL     1      43.335   9.937  11.731  0.00  0.00    +0.000 NA
ATOM      9  H   UNL     1      42.670   9.278  12.145  0.00  0.00    +0.000 HD
BRANCH   8  10
ATOM     10  C   UNL     1      42.540  10.876  10.928  0.00  0.00    +0.000 C 
BRANCH  10  11
ATOM     11  C   UNL     1      41.050  10.522  10.794  0.00  0.00    +0.000 C 
BRANCH  11  12
ATOM     12  N   UNL     1      40.737   9.220  11.394  0.00  0.00    +0.000 NA
ATOM     13  H   UNL     1      39.819   8.919  11.070  0.00  0.00    +0.000 HD
ATOM     14  H   UNL     1      40.656   9.333  12.405  0.00  0.00    +0.000 HD
ENDBRANCH  11  12
ENDBRANCH  10  11
ENDBRANCH   8  10
ENDBRANCH   7   8
ENDBRANCH   1   7
BRANCH   3  15
ATOM     15  C   UNL     1      48.495   7.522  13.172  0.00  0.00    +0.000 C 
BRANCH  15  16
ATOM     16  N   UNL     1      48.785   6.961  14.465  0.00  0.00    +0.000 N 
ATOM     17  C   UNL     1      48.630   7.675  15.625  0.00  0.00    +0.000 C 
ATOM     18  O   UNL     1      48.209   8.828  15.635  0.00  0.00    +0.000 OA
ATOM     19  H   UNL     1      49.313   6.096  14.476  0.00  0.00    +0.000 HD
BRANCH  17  20
ATOM     20  C   UNL     1      48.920   6.961  16.878  0.00  0.00    +0.000 A 
ATOM     21  C   UNL     1      49.548   7.636  17.914  0.00  0.00    +0.000 A 
ATOM     22  S   UNL     1      49.764   6.690  19.315  0.00  0.00    +0.000 S 
ATOM     23  C   UNL     1      49.077   5.325  18.566  0.00  0.00    +0.000 A 
ATOM     24  N   UNL     1      48.983   4.142  19.229  0.00  0.00    +0.000 NA
ATOM     25  C   UNL     1      48.475   3.180  18.533  0.00  0.00    +0.000 A 
ATOM     26  N   UNL     1      48.044   3.298  17.237  0.00  0.00    +0.000 N 
ATOM     27  C   UNL     1      48.065   4.486  16.547  0.00  0.00    +0.000 A 
ATOM     28  O   UNL     1      47.581   4.576  15.422  0.00  0.00    +0.000 OA
ATOM     29  C   UNL     1      48.662   5.592  17.272  0.00  0.00    +0.000 A 
ATOM     30  H   UNL     1      47.627   2.513  16.760  0.00  0.00    +0.000 HD
ENDBRANCH  17  20
ENDBRANCH  15  16
ENDBRANCH   3  15
BRANCH   6  31
ATOM     31  C   UNL     1      43.097   6.215  11.340  0.00  0.00    +0.000 C 
BRANCH  31  32
ATOM     32  N   UNL     1      43.093   4.768  11.287  0.00  0.00    +0.000 N 
ATOM     33  C   UNL     1      43.911   4.158  10.364  0.00  0.00    +0.000 A 
ATOM     34  N   UNL     1      44.327   4.820   9.271  0.00  0.00    +0.000 NA
ATOM     35  C   UNL     1      45.071   4.130   8.375  0.00  0.00    +0.000 A 
ATOM     36  C   UNL     1      45.409   2.809   8.524  0.00  0.00    +0.000 A 
ATOM     37 CL   UNL     1      46.338   1.961   7.367  0.00  0.00    +0.000 Cl
ATOM     38  C   UNL     1      44.943   2.219   9.672  0.00  0.00    +0.000 A 
ATOM     39  N   UNL     1      44.207   2.870  10.604  0.00  0.00    +0.000 NA
ATOM     40  H   UNL     1      43.112   4.271  12.166  0.00  0.00    +0.000 HD
ENDBRANCH  31  32
ENDBRANCH   6  31
TORSDOF 10
ENDMDL
MODEL 7
REMARK VINA RESULT:    -6.250      4.245      9.003
REMARK INTER + INTRA:         -11.556
REMARK INTER:                  -9.854
REMARK INTRA:                  -1.701
REMARK UNBOUND:                -1.835
REMARK  Name = 
REMARK  10 active torsions:
REMARK  status: ('A' for Active; 'I' for Inactive)
REMARK    1  A    between atoms: N_1  and  C_2
REMARK    2  A    between atoms: C_2  and  C_3
REMARK    3  A    between atoms: C_3  and  N_4
REMARK    4  A    between atoms: N_4  and  C_5
REMARK    5  A    between atoms: C_5  and  C_6
REMARK    6  A    between atoms: C_8  and  C_9
REMARK    7  A    between atoms: C_9  and  N_10
REMARK    8  A    between atoms: C_11  and  C_13
REMARK    9  A    between atoms: C_25  and  C_26
REMARK   10  A    between atoms: C_26  and  N_27
REMARK                            x       y       z     vdW  Elec       q    Type
REMARK                         _______ _______ _______ _____ _____    ______ ____
ROOT
ATOM      1  C   UNL     1      49.069   7.344  15.513  0.00  0.00    +0.000 A 
ATOM      2  C   UNL     1      48.475   7.209  14.233  0.00  0.00    +0.000 A 
ATOM      3  C   UNL     1      48.757   8.090  13.181  0.00  0.00    +0.000 A 
ATOM      4  C   UNL     1      49.619   9.159  13.416  0.00  0.00    +0.000 A 
ATOM      5  C   UNL     1      50.250   9.287  14.652  0.00  0.00    +0.000 A 
ATOM      6  C   UNL     1      50.017   8.375  15.705  0.00  0.00    +0.000 A 
ENDROOT
BRANCH   1   7
ATOM      7  C   UNL     1      48.666   6.301  16.543  0.00  0.00    +0.000 C 
BRANCH   7   8
ATOM      8  N   UNL     1      49.452   5.067  16.613  0.00  0.00    +0.000 NA
ATOM      9  H   UNL     1      49.779   4.877  15.661  0.00  0.00    +0.000 HD
BRANCH   8  10
ATOM     10  C   UNL     1      48.694   3.880  17.033  0.00  0.00    +0.000 C 
BRANCH  10  11
ATOM     11  C   UNL     1      49.542   2.623  17.296  0.00  0.00    +0.000 C 
BRANCH  11  12
ATOM     12  N   UNL     1      49.603   1.745  16.122  0.00  0.00    +0.000 NA
ATOM     13  H   UNL     1      48.791   1.129  16.127  0.00  0.00    +0.000 HD
ATOM     14  H   UNL     1      50.418   1.138  16.206  0.00  0.00    +0.000 HD
ENDBRANCH  11  12
ENDBRANCH  10  11
ENDBRANCH   8  10
ENDBRANCH   7   8
ENDBRANCH   1   7
BRANCH   3  15
ATOM     15  C   UNL     1      48.139   7.902  11.822  0.00  0.00    +0.000 C 
BRANCH  15  16
ATOM     16  N   UNL     1      47.315   6.724  11.778  0.00  0.00    +0.000 N 
ATOM     17  C   UNL     1      45.946   6.785  11.802  0.00  0.00    +0.000 C 
ATOM     18  O   UNL     1      45.338   7.851  11.838  0.00  0.00    +0.000 OA
ATOM     19  H   UNL     1      47.780   5.839  11.945  0.00  0.00    +0.000 HD
BRANCH  17  20
ATOM     20  C   UNL     1      45.230   5.504  11.703  0.00  0.00    +0.000 A 
ATOM     21  C   UNL     1      44.561   5.013  12.814  0.00  0.00    +0.000 A 
ATOM     22  S   UNL     1      43.737   3.550  12.524  0.00  0.00    +0.000 S 
ATOM     23  C   UNL     1      44.294   3.490  10.917  0.00  0.00    +0.000 A 
ATOM     24  N   UNL     1      43.964   2.451  10.105  0.00  0.00    +0.000 NA
ATOM     25  C   UNL     1      44.481   2.513   8.924  0.00  0.00    +0.000 A 
ATOM     26  N   UNL     1      45.291   3.526   8.478  0.00  0.00    +0.000 N 
ATOM     27  C   UNL     1      45.603   4.624   9.242  0.00  0.00    +0.000 A 
ATOM     28  O   UNL     1      46.251   5.558   8.778  0.00  0.00    +0.000 OA
ATOM     29  C   UNL     1      45.076   4.586  10.594  0.00  0.00    +0.000 A 
ATOM     30  H   UNL     1      45.638   3.529   7.531  0.00  0.00    +0.000 HD
ENDBRANCH  17  20
ENDBRANCH  15  16
ENDBRANCH   3  15
BRANCH   6  31
ATOM     31  C   UNL     1      50.867   8.557  16.954  0.00  0.00    +0.000 C 
BRANCH  31  32
ATOM     32  N   UNL     1      52.256   8.321  16.623  0.00  0.00    +0.000 N 
ATOM     33  C   UNL     1      52.771   7.070  16.873  0.00  0.00    +0.000 A 
ATOM     34  N   UNL     1      52.203   6.263  17.784  0.00  0.00    +0.000 NA
ATOM     35  C   UNL     1      52.808   5.077  18.025  0.00  0.00    +0.000 A 
ATOM     36  C   UNL     1      53.959   4.670  17.398  0.00  0.00    +0.000 A 
ATOM     37 CL   UNL     1      54.709   3.171  17.734  0.00  0.00    +0.000 Cl
ATOM     38  C   UNL     1      54.463   5.558  16.482  0.00  0.00    +0.000 A 
ATOM     39  N   UNL     1      53.887   6.749  16.197  0.00  0.00    +0.000 NA
ATOM     40  H   UNL     1      52.589   8.674  15.737  0.00  0.00    +0.000 HD
ENDBRANCH  31  32
ENDBRANCH   6  31
TORSDOF 10
ENDMDL
MODEL 8
REMARK VINA RESULT:    -6.030      4.770      8.861
REMARK INTER + INTRA:         -11.214
REMARK INTER:                  -9.348
REMARK INTRA:                  -1.865
REMARK UNBOUND:                -1.835
REMARK  Name = 
REMARK  10 active torsions:
REMARK  status: ('A' for Active; 'I' for Inactive)
REMARK    1  A    between atoms: N_1  and  C_2
REMARK    2  A    between atoms: C_2  and  C_3
REMARK    3  A    between atoms: C_3  and  N_4
REMARK    4  A    between atoms: N_4  and  C_5
REMARK    5  A    between atoms: C_5  and  C_6
REMARK    6  A    between atoms: C_8  and  C_9
REMARK    7  A    between atoms: C_9  and  N_10
REMARK    8  A    between atoms: C_11  and  C_13
REMARK    9  A    between atoms: C_25  and  C_26
REMARK   10  A    between atoms: C_26  and  N_27
REMARK                            x       y       z     vdW  Elec       q    Type
REMARK                         _______ _______ _______ _____ _____    ______ ____
ROOT
ATOM      1  C   UNL     1      49.225   5.868  18.143  0.00  0.00    +0.000 A 
ATOM      2  C   UNL     1      48.610   6.562  17.071  0.00  0.00    +0.000 A 
ATOM      3  C   UNL     1      49.340   7.352  16.173  0.00  0.00    +0.000 A 
ATOM      4  C   UNL     1      50.712   7.490  16.368  0.00  0.00    +0.000 A 
ATOM      5  C   UNL     1      51.347   6.783  17.386  0.00  0.00    +0.000 A 
ATOM      6  C   UNL     1      50.632   5.941  18.267  0.00  0.00    +0.000 A 
ENDROOT
BRANCH   1   7
ATOM      7  C   UNL     1      48.295   5.048  19.021  0.00  0.00    +0.000 C 
BRANCH   7   8
ATOM      8  N   UNL     1      48.289   3.593  18.843  0.00  0.00    +0.000 NA
ATOM      9  H   UNL     1      49.268   3.309  18.746  0.00  0.00    +0.000 HD
BRANCH   8  10
ATOM     10  C   UNL     1      47.601   3.126  17.633  0.00  0.00    +0.000 C 
BRANCH  10  11
ATOM     11  C   UNL     1      48.511   2.491  16.567  0.00  0.00    +0.000 C 
BRANCH  11  12
ATOM     12  N   UNL     1      49.930   2.588  16.928  0.00  0.00    +0.000 NA
ATOM     13  H   UNL     1      50.422   1.778  16.553  0.00  0.00    +0.000 HD
ATOM     14  H   UNL     1      50.018   2.527  17.942  0.00  0.00    +0.000 HD
ENDBRANCH  11  12
ENDBRANCH  10  11
ENDBRANCH   8  10
ENDBRANCH   7   8
ENDBRANCH   1   7
BRANCH   3  15
ATOM     15  C   UNL     1      48.665   8.050  15.024  0.00  0.00    +0.000 C 
BRANCH  15  16
ATOM     16  N   UNL     1      47.612   7.245  14.465  0.00  0.00    +0.000 N 
ATOM     17  C   UNL     1      47.826   6.376  13.427  0.00  0.00    +0.000 C 
ATOM     18  O   UNL     1      48.934   6.212  12.926  0.00  0.00    +0.000 OA
ATOM     19  H   UNL     1      46.664   7.498  14.719  0.00  0.00    +0.000 HD
BRANCH  17  20
ATOM     20  C   UNL     1      46.668   5.582  12.986  0.00  0.00    +0.000 A 
ATOM     21  C   UNL     1      46.685   4.206  13.154  0.00  0.00    +0.000 A 
ATOM     22  S   UNL     1      45.251   3.438  12.646  0.00  0.00    +0.000 S 
ATOM     23  C   UNL     1      44.579   4.913  12.127  0.00  0.00    +0.000 A 
ATOM     24  N   UNL     1      43.346   4.952  11.555  0.00  0.00    +0.000 NA
ATOM     25  C   UNL     1      42.972   6.128  11.177  0.00  0.00    +0.000 A 
ATOM     26  N   UNL     1      43.716   7.271  11.328  0.00  0.00    +0.000 N 
ATOM     27  C   UNL     1      44.940   7.289  11.952  0.00  0.00    +0.000 A 
ATOM     28  O   UNL     1      45.533   8.344  12.156  0.00  0.00    +0.000 OA
ATOM     29  C   UNL     1      45.424   5.984  12.364  0.00  0.00    +0.000 A 
ATOM     30  H   UNL     1      43.351   8.165  11.038  0.00  0.00    +0.000 HD
ENDBRANCH  17  20
ENDBRANCH  15  16
ENDBRANCH   3  15
BRANCH   6  31
ATOM     31  C   UNL     1      51.463   5.130  19.248  0.00  0.00    +0.000 C 
BRANCH  31  32
ATOM     32  N   UNL     1      52.844   5.127  18.814  0.00  0.00    +0.000 N 
ATOM     33  C   UNL     1      53.339   3.972  18.255  0.00  0.00    +0.000 A 
ATOM     34  N   UNL     1      52.766   2.784  18.513  0.00  0.00    +0.000 NA
ATOM     35  C   UNL     1      53.352   1.685  17.984  0.00  0.00    +0.000 A 
ATOM     36  C   UNL     1      54.488   1.725  17.215  0.00  0.00    +0.000 A 
ATOM     37 CL   UNL     1      55.213   0.317  16.573  0.00  0.00    +0.000 Cl
ATOM     38  C   UNL     1      54.998   2.981  17.003  0.00  0.00    +0.000 A 
ATOM     39  N   UNL     1      54.441   4.110  17.499  0.00  0.00    +0.000 NA
ATOM     40  H   UNL     1      53.174   5.938  18.309  0.00  0.00    +0.000 HD
ENDBRANCH  31  32
ENDBRANCH   6  31
TORSDOF 10
ENDMDL
MODEL 9
REMARK VINA RESULT:    -5.979      4.432      6.584
REMARK INTER + INTRA:         -11.135
REMARK INTER:                  -9.900
REMARK INTRA:                  -1.235
REMARK UNBOUND:                -1.835
REMARK  Name = 
REMARK  10 active torsions:
REMARK  status: ('A' for Active; 'I' for Inactive)
REMARK    1  A    between atoms: N_1  and  C_2
REMARK    2  A    between atoms: C_2  and  C_3
REMARK    3  A    between atoms: C_3  and  N_4
REMARK    4  A    between atoms: N_4  and  C_5
REMARK    5  A    between atoms: C_5  and  C_6
REMARK    6  A    between atoms: C_8  and  C_9
REMARK    7  A    between atoms: C_9  and  N_10
REMARK    8  A    between atoms: C_11  and  C_13
REMARK    9  A    between atoms: C_25  and  C_26
REMARK   10  A    between atoms: C_26  and  N_27
REMARK                            x       y       z     vdW  Elec       q    Type
REMARK                         _______ _______ _______ _____ _____    ______ ____
ROOT
ATOM      1  C   UNL     1      48.797   7.421  14.044  0.00  0.00    +0.000 A 
ATOM      2  C   UNL     1      50.132   7.714  13.669  0.00  0.00    +0.000 A 
ATOM      3  C   UNL     1      50.481   8.068  12.359  0.00  0.00    +0.000 A 
ATOM      4  C   UNL     1      49.485   8.092  11.385  0.00  0.00    +0.000 A 
ATOM      5  C   UNL     1      48.159   7.853  11.738  0.00  0.00    +0.000 A 
ATOM      6  C   UNL     1      47.784   7.547  13.065  0.00  0.00    +0.000 A 
ENDROOT
BRANCH   1   7
ATOM      7  C   UNL     1      48.584   7.062  15.505  0.00  0.00    +0.000 C 
BRANCH   7   8
ATOM      8  N   UNL     1      49.069   5.760  15.970  0.00  0.00    +0.000 NA
ATOM      9  H   UNL     1      49.107   5.153  15.145  0.00  0.00    +0.000 HD
BRANCH   8  10
ATOM     10  C   UNL     1      48.193   5.087  16.938  0.00  0.00    +0.000 C 
BRANCH  10  11
ATOM     11  C   UNL     1      47.654   3.717  16.490  0.00  0.00    +0.000 C 
BRANCH  11  12
ATOM     12  N   UNL     1      46.627   3.205  17.404  0.00  0.00    +0.000 NA
ATOM     13  H   UNL     1      45.942   3.940  17.577  0.00  0.00    +0.000 HD
ATOM     14  H   UNL     1      47.058   3.004  18.307  0.00  0.00    +0.000 HD
ENDBRANCH  11  12
ENDBRANCH  10  11
ENDBRANCH   8  10
ENDBRANCH   7   8
ENDBRANCH   1   7
BRANCH   3  15
ATOM     15  C   UNL     1      51.901   8.408  11.997  0.00  0.00    +0.000 C 
BRANCH  15  16
ATOM     16  N   UNL     1      52.243   7.915  10.689  0.00  0.00    +0.000 N 
ATOM     17  C   UNL     1      53.426   7.271  10.434  0.00  0.00    +0.000 C 
ATOM     18  O   UNL     1      54.256   7.052  11.312  0.00  0.00    +0.000 OA
ATOM     19  H   UNL     1      51.679   8.249   9.916  0.00  0.00    +0.000 HD
BRANCH  17  20
ATOM     20  C   UNL     1      53.623   6.779   9.062  0.00  0.00    +0.000 A 
ATOM     21  C   UNL     1      53.944   5.446   8.858  0.00  0.00    +0.000 A 
ATOM     22  S   UNL     1      54.086   5.021   7.214  0.00  0.00    +0.000 S 
ATOM     23  C   UNL     1      53.780   6.620   6.717  0.00  0.00    +0.000 A 
ATOM     24  N   UNL     1      53.785   6.950   5.398  0.00  0.00    +0.000 NA
ATOM     25  C   UNL     1      53.574   8.202   5.163  0.00  0.00    +0.000 A 
ATOM     26  N   UNL     1      53.349   9.151   6.127  0.00  0.00    +0.000 N 
ATOM     27  C   UNL     1      53.278   8.854   7.466  0.00  0.00    +0.000 A 
ATOM     28  O   UNL     1      52.979   9.711   8.293  0.00  0.00    +0.000 OA
ATOM     29  C   UNL     1      53.545   7.464   7.789  0.00  0.00    +0.000 A 
ATOM     30  H   UNL     1      53.160  10.109   5.873  0.00  0.00    +0.000 HD
ENDBRANCH  17  20
ENDBRANCH  15  16
ENDBRANCH   3  15
BRANCH   6  31
ATOM     31  C   UNL     1      46.292   7.435  13.335  0.00  0.00    +0.000 C 
BRANCH  31  32
ATOM     32  N   UNL     1      45.974   6.069  13.693  0.00  0.00    +0.000 N 
ATOM     33  C   UNL     1      45.614   5.208  12.683  0.00  0.00    +0.000 A 
ATOM     34  N   UNL     1      45.124   5.677  11.523  0.00  0.00    +0.000 NA
ATOM     35  C   UNL     1      44.726   4.766  10.605  0.00  0.00    +0.000 A 
ATOM     36  C   UNL     1      44.791   3.410  10.801  0.00  0.00    +0.000 A 
ATOM     37 CL   UNL     1      44.267   2.284   9.627  0.00  0.00    +0.000 Cl
ATOM     38  C   UNL     1      45.309   3.026  12.012  0.00  0.00    +0.000 A 
ATOM     39  N   UNL     1      45.733   3.898  12.957  0.00  0.00    +0.000 NA
ATOM     40  H   UNL     1      46.583   5.608  14.355  0.00  0.00    +0.000 HD
ENDBRANCH  31  32
ENDBRANCH   6  31
TORSDOF 10
ENDMDL
