MODEL 1
REMARK VINA RESULT:    -7.972      0.000      0.000
REMARK INTER + INTRA:         -12.272
REMARK INTER:                 -10.768
REMARK INTRA:                  -1.504
REMARK UNBOUND:                -1.504
REMARK  Name = 
REMARK  9 active torsions:
REMARK  status: ('A' for Active; 'I' for Inactive)
REMARK    1  A    between atoms: C_1  and  C_2
REMARK    2  A    between atoms: C_2  and  C_3
REMARK    3  A    between atoms: C_3  and  N_4
REMARK    4  A    between atoms: C_3  and  C_18
REMARK    5  A    between atoms: C_5  and  C_7
REMARK    6  A    between atoms: N_13  and  C_14
REMARK    7  A    between atoms: C_21  and  C_22
REMARK    8  A    between atoms: C_22  and  C_23
REMARK    9  A    between atoms: C_22  and  C_24
REMARK                            x       y       z     vdW  Elec       q    Type
REMARK                         _______ _______ _______ _____ _____    ______ ____
ROOT
ATOM      1  C   UNL     1      47.945   7.373  13.900  0.00  0.00    +0.000 C 
ENDROOT
BRANCH   1   2
ATOM      2  C   UNL     1      47.018   6.580  12.979  0.00  0.00    +0.000 A 
ATOM      3  C   UNL     1      46.652   5.267  13.289  0.00  0.00    +0.000 A 
ATOM      4  C   UNL     1      45.803   4.545  12.441  0.00  0.00    +0.000 A 
ATOM      5  C   UNL     1      45.285   5.119  11.268  0.00  0.00    +0.000 A 
ATOM      6  C   UNL     1      45.643   6.436  10.962  0.00  0.00    +0.000 A 
ATOM      7  C   UNL     1      46.502   7.151  11.801  0.00  0.00    +0.000 A 
BRANCH   5   8
ATOM      8  C   UNL     1      44.373   4.313  10.353  0.00  0.00    +0.000 C 
ATOM      9  C   UNL     1      43.481   3.350  11.152  0.00  0.00    +0.000 C 
BRANCH   8  10
ATOM     10  C   UNL     1      45.117   3.599   9.226  0.00  0.00    +0.000 A 
ATOM     11  C   UNL     1      45.285   2.215   9.279  0.00  0.00    +0.000 A 
ATOM     12  C   UNL     1      45.997   1.578   8.265  0.00  0.00    +0.000 A 
ATOM     13  C   UNL     1      46.518   2.331   7.220  0.00  0.00    +0.000 A 
ATOM     14  C   UNL     1      46.294   3.696   7.228  0.00  0.00    +0.000 A 
ATOM     15  N   UNL     1      45.605   4.340   8.196  0.00  0.00    +0.000 NA
ENDBRANCH   8  10
ENDBRANCH   5   8
ENDBRANCH   1   2
BRANCH   1  16
ATOM     16  N   UNL     1      47.948   6.728  15.207  0.00  0.00    +0.000 N 
ATOM     17  C   UNL     1      49.062   6.396  15.927  0.00  0.00    +0.000 C 
ATOM     18  O   UNL     1      50.201   6.534  15.490  0.00  0.00    +0.000 OA
ATOM     19  H   UNL     1      47.045   6.670  15.662  0.00  0.00    +0.000 HD
BRANCH  17  20
ATOM     20  C   UNL     1      48.813   5.818  17.258  0.00  0.00    +0.000 A 
ATOM     21  C   UNL     1      49.066   4.473  17.493  0.00  0.00    +0.000 A 
ATOM     22  S   UNL     1      48.679   3.972  19.077  0.00  0.00    +0.000 S 
ATOM     23  C   UNL     1      48.208   5.545  19.522  0.00  0.00    +0.000 A 
ATOM     24  N   UNL     1      47.770   5.816  20.777  0.00  0.00    +0.000 NA
ATOM     25  C   UNL     1      47.458   7.053  20.986  0.00  0.00    +0.000 A 
ATOM     26  N   UNL     1      47.536   8.064  20.049  0.00  0.00    +0.000 N 
ATOM     27  C   UNL     1      47.134   9.418  20.374  0.00  0.00    +0.000 C 
ATOM     28  C   UNL     1      47.971   7.815  18.758  0.00  0.00    +0.000 A 
ATOM     29  O   UNL     1      48.039   8.700  17.908  0.00  0.00    +0.000 OA
ATOM     30  C   UNL     1      48.328   6.437  18.475  0.00  0.00    +0.000 A 
ENDBRANCH  17  20
ENDBRANCH   1  16
BRANCH   1  32
ATOM     31  C   UNL     1      48.651   9.760  14.484  0.00  0.00    +0.000 C 
ATOM     32  C   UNL     1      47.529   8.856  13.989  0.00  0.00    +0.000 C 
ENDBRANCH   1  32
TORSDOF 6
ENDMDL
MODEL 2
REMARK VINA RESULT:    -7.504      1.586      2.492
REMARK INTER + INTRA:         -11.640
REMARK INTER:                 -10.034
REMARK INTRA:                  -1.606
REMARK UNBOUND:                -1.504
REMARK  Name = 
REMARK  9 active torsions:
REMARK  status: ('A' for Active; 'I' for Inactive)
REMARK    1  A    between atoms: C_1  and  C_2
REMARK    2  A    between atoms: C_2  and  C_3
REMARK    3  A    between atoms: C_3  and  N_4
REMARK    4  A    between atoms: C_3  and  C_18
REMARK    5  A    between atoms: C_5  and  C_7
REMARK    6  A    between atoms: N_13  and  C_14
REMARK    7  A    between atoms: C_21  and  C_22
REMARK    8  A    between atoms: C_22  and  C_23
REMARK    9  A    between atoms: C_22  and  C_24
REMARK                            x       y       z     vdW  Elec       q    Type
REMARK                         _______ _______ _______ _____ _____    ______ ____
ROOT
ATOM      1  C   UNL     1      47.837   8.458  13.321  0.00  0.00    +0.000 C 
ENDROOT
BRANCH   1   2
ATOM      2  C   UNL     1      46.880   7.510  12.600  0.00  0.00    +0.000 A 
ATOM      3  C   UNL     1      47.102   6.130  12.603  0.00  0.00    +0.000 A 
ATOM      4  C   UNL     1      46.222   5.265  11.940  0.00  0.00    +0.000 A 
ATOM      5  C   UNL     1      45.090   5.754  11.269  0.00  0.00    +0.000 A 
ATOM      6  C   UNL     1      44.861   7.133  11.273  0.00  0.00    +0.000 A 
ATOM      7  C   UNL     1      45.748   7.997  11.923  0.00  0.00    +0.000 A 
BRANCH   5   8
ATOM      8  C   UNL     1      44.151   4.798  10.544  0.00  0.00    +0.000 C 
ATOM      9  C   UNL     1      43.322   3.963  11.533  0.00  0.00    +0.000 C 
BRANCH   8  10
ATOM     10  C   UNL     1      44.854   3.923   9.508  0.00  0.00    +0.000 A 
ATOM     11  C   UNL     1      44.823   2.534   9.643  0.00  0.00    +0.000 A 
ATOM     12  C   UNL     1      45.499   1.747   8.713  0.00  0.00    +0.000 A 
ATOM     13  C   UNL     1      46.181   2.358   7.669  0.00  0.00    +0.000 A 
ATOM     14  C   UNL     1      46.150   3.738   7.592  0.00  0.00    +0.000 A 
ATOM     15  N   UNL     1      45.502   4.527   8.477  0.00  0.00    +0.000 NA
ENDBRANCH   8  10
ENDBRANCH   5   8
ENDBRANCH   1   2
BRANCH   1  16
ATOM     16  N   UNL     1      47.897   8.067  14.723  0.00  0.00    +0.000 N 
ATOM     17  C   UNL     1      48.914   8.361  15.588  0.00  0.00    +0.000 C 
ATOM     18  O   UNL     1      49.946   8.923  15.235  0.00  0.00    +0.000 OA
ATOM     19  H   UNL     1      47.039   7.682  15.100  0.00  0.00    +0.000 HD
BRANCH  17  20
ATOM     20  C   UNL     1      48.715   7.920  16.980  0.00  0.00    +0.000 A 
ATOM     21  C   UNL     1      48.619   8.857  18.000  0.00  0.00    +0.000 A 
ATOM     22  S   UNL     1      48.433   8.163  19.548  0.00  0.00    +0.000 S 
ATOM     23  C   UNL     1      48.422   6.589  18.905  0.00  0.00    +0.000 A 
ATOM     24  N   UNL     1      48.283   5.504  19.709  0.00  0.00    +0.000 NA
ATOM     25  C   UNL     1      48.277   4.370  19.091  0.00  0.00    +0.000 A 
ATOM     26  N   UNL     1      48.405   4.204  17.726  0.00  0.00    +0.000 N 
ATOM     27  C   UNL     1      48.415   2.883  17.131  0.00  0.00    +0.000 C 
ATOM     28  C   UNL     1      48.557   5.291  16.882  0.00  0.00    +0.000 A 
ATOM     29  O   UNL     1      48.680   5.164  15.666  0.00  0.00    +0.000 OA
ATOM     30  C   UNL     1      48.575   6.589  17.532  0.00  0.00    +0.000 A 
ENDBRANCH  17  20
ENDBRANCH   1  16
BRANCH   1  32
ATOM     31  C   UNL     1      48.241  10.670  12.103  0.00  0.00    +0.000 C 
ATOM     32  C   UNL     1      47.415   9.933  13.150  0.00  0.00    +0.000 C 
ENDBRANCH   1  32
TORSDOF 6
ENDMDL
MODEL 3
REMARK VINA RESULT:    -6.761      4.474      9.059
REMARK INTER + INTRA:         -10.636
REMARK INTER:                  -9.593
REMARK INTRA:                  -1.042
REMARK UNBOUND:                -1.504
REMARK  Name = 
REMARK  9 active torsions:
REMARK  status: ('A' for Active; 'I' for Inactive)
REMARK    1  A    between atoms: C_1  and  C_2
REMARK    2  A    between atoms: C_2  and  C_3
REMARK    3  A    between atoms: C_3  and  N_4
REMARK    4  A    between atoms: C_3  and  C_18
REMARK    5  A    between atoms: C_5  and  C_7
REMARK    6  A    between atoms: N_13  and  C_14
REMARK    7  A    between atoms: C_21  and  C_22
REMARK    8  A    between atoms: C_22  and  C_23
REMARK    9  A    between atoms: C_22  and  C_24
REMARK                            x       y       z     vdW  Elec       q    Type
REMARK                         _______ _______ _______ _____ _____    ______ ____
ROOT
ATOM      1  C   UNL     1      47.904   3.561  17.140  0.00  0.00    +0.000 C 
ENDROOT
BRANCH   1   2
ATOM      2  C   UNL     1      49.401   3.360  17.378  0.00  0.00    +0.000 A 
ATOM      3  C   UNL     1      49.997   2.113  17.173  0.00  0.00    +0.000 A 
ATOM      4  C   UNL     1      51.369   1.934  17.393  0.00  0.00    +0.000 A 
ATOM      5  C   UNL     1      52.184   2.999  17.810  0.00  0.00    +0.000 A 
ATOM      6  C   UNL     1      51.590   4.250  18.007  0.00  0.00    +0.000 A 
ATOM      7  C   UNL     1      50.218   4.423  17.800  0.00  0.00    +0.000 A 
BRANCH   5   8
ATOM      8  C   UNL     1      53.672   2.782  18.056  0.00  0.00    +0.000 C 
ATOM      9  C   UNL     1      54.525   3.794  17.276  0.00  0.00    +0.000 C 
BRANCH   8  10
ATOM     10  C   UNL     1      54.125   1.344  17.812  0.00  0.00    +0.000 A 
ATOM     11  C   UNL     1      54.771   1.018  16.619  0.00  0.00    +0.000 A 
ATOM     12  C   UNL     1      55.148  -0.304  16.390  0.00  0.00    +0.000 A 
ATOM     13  C   UNL     1      54.880  -1.266  17.356  0.00  0.00    +0.000 A 
ATOM     14  C   UNL     1      54.253  -0.862  18.520  0.00  0.00    +0.000 A 
ATOM     15  N   UNL     1      53.879   0.412  18.770  0.00  0.00    +0.000 NA
ENDBRANCH   8  10
ENDBRANCH   5   8
ENDBRANCH   1   2
BRANCH   1  16
ATOM     16  N   UNL     1      47.740   4.533  16.067  0.00  0.00    +0.000 N 
ATOM     17  C   UNL     1      47.419   4.240  14.771  0.00  0.00    +0.000 C 
ATOM     18  O   UNL     1      47.321   3.090  14.354  0.00  0.00    +0.000 OA
ATOM     19  H   UNL     1      47.717   5.502  16.363  0.00  0.00    +0.000 HD
BRANCH  17  20
ATOM     20  C   UNL     1      47.234   5.400  13.882  0.00  0.00    +0.000 A 
ATOM     21  C   UNL     1      48.272   6.300  13.686  0.00  0.00    +0.000 A 
ATOM     22  S   UNL     1      47.864   7.600  12.659  0.00  0.00    +0.000 S 
ATOM     23  C   UNL     1      46.302   6.979  12.398  0.00  0.00    +0.000 A 
ATOM     24  N   UNL     1      45.420   7.619  11.589  0.00  0.00    +0.000 NA
ATOM     25  C   UNL     1      44.275   7.032  11.467  0.00  0.00    +0.000 A 
ATOM     26  N   UNL     1      43.913   5.852  12.085  0.00  0.00    +0.000 N 
ATOM     27  C   UNL     1      42.590   5.289  11.905  0.00  0.00    +0.000 C 
ATOM     28  C   UNL     1      44.789   5.182  12.922  0.00  0.00    +0.000 A 
ATOM     29  O   UNL     1      44.482   4.135  13.488  0.00  0.00    +0.000 OA
ATOM     30  C   UNL     1      46.088   5.806  13.095  0.00  0.00    +0.000 A 
ENDBRANCH  17  20
ENDBRANCH   1  16
BRANCH   1  32
ATOM     31  C   UNL     1      47.032   5.506  18.551  0.00  0.00    +0.000 C 
ATOM     32  C   UNL     1      47.175   3.994  18.429  0.00  0.00    +0.000 C 
ENDBRANCH   1  32
TORSDOF 6
ENDMDL
MODEL 4
REMARK VINA RESULT:    -6.662      3.651      5.560
REMARK INTER + INTRA:         -10.503
REMARK INTER:                  -9.027
REMARK INTRA:                  -1.476
REMARK UNBOUND:                -1.504
REMARK  Name = 
REMARK  9 active torsions:
REMARK  status: ('A' for Active; 'I' for Inactive)
REMARK    1  A    between atoms: C_1  and  C_2
REMARK    2  A    between atoms: C_2  and  C_3
REMARK    3  A    between atoms: C_3  and  N_4
REMARK    4  A    between atoms: C_3  and  C_18
REMARK    5  A    between atoms: C_5  and  C_7
REMARK    6  A    between atoms: N_13  and  C_14
REMARK    7  A    between atoms: C_21  and  C_22
REMARK    8  A    between atoms: C_22  and  C_23
REMARK    9  A    between atoms: C_22  and  C_24
REMARK                            x       y       z     vdW  Elec       q    Type
REMARK                         _______ _______ _______ _____ _____    ______ ____
ROOT
ATOM      1  C   UNL     1      47.968   7.130  14.046  0.00  0.00    +0.000 C 
ENDROOT
BRANCH   1   2
ATOM      2  C   UNL     1      47.063   6.389  13.062  0.00  0.00    +0.000 A 
ATOM      3  C   UNL     1      46.774   6.932  11.807  0.00  0.00    +0.000 A 
ATOM      4  C   UNL     1      45.943   6.250  10.909  0.00  0.00    +0.000 A 
ATOM      5  C   UNL     1      45.389   5.002  11.236  0.00  0.00    +0.000 A 
ATOM      6  C   UNL     1      45.685   4.453  12.488  0.00  0.00    +0.000 A 
ATOM      7  C   UNL     1      46.503   5.141  13.388  0.00  0.00    +0.000 A 
BRANCH   5   8
ATOM      8  C   UNL     1      44.477   4.281  10.251  0.00  0.00    +0.000 C 
ATOM      9  C   UNL     1      43.492   3.349  10.973  0.00  0.00    +0.000 C 
BRANCH   8  10
ATOM     10  C   UNL     1      45.234   3.560   9.137  0.00  0.00    +0.000 A 
ATOM     11  C   UNL     1      45.388   2.174   9.193  0.00  0.00    +0.000 A 
ATOM     12  C   UNL     1      46.111   1.531   8.191  0.00  0.00    +0.000 A 
ATOM     13  C   UNL     1      46.656   2.279   7.155  0.00  0.00    +0.000 A 
ATOM     14  C   UNL     1      46.445   3.646   7.159  0.00  0.00    +0.000 A 
ATOM     15  N   UNL     1      45.746   4.296   8.115  0.00  0.00    +0.000 NA
ENDBRANCH   8  10
ENDBRANCH   5   8
ENDBRANCH   1   2
BRANCH   1  16
ATOM     16  N   UNL     1      49.109   7.655  13.308  0.00  0.00    +0.000 N 
ATOM     17  C   UNL     1      49.504   8.963  13.280  0.00  0.00    +0.000 C 
ATOM     18  O   UNL     1      48.866   9.862  13.820  0.00  0.00    +0.000 OA
ATOM     19  H   UNL     1      49.730   6.956  12.917  0.00  0.00    +0.000 HD
BRANCH  17  20
ATOM     20  C   UNL     1      50.735   9.243  12.520  0.00  0.00    +0.000 A 
ATOM     21  C   UNL     1      50.670   9.936  11.319  0.00  0.00    +0.000 A 
ATOM     22  S   UNL     1      52.187  10.130  10.561  0.00  0.00    +0.000 S 
ATOM     23  C   UNL     1      52.990   9.341  11.835  0.00  0.00    +0.000 A 
ATOM     24  N   UNL     1      54.337   9.174  11.818  0.00  0.00    +0.000 NA
ATOM     25  C   UNL     1      54.821   8.571  12.854  0.00  0.00    +0.000 A 
ATOM     26  N   UNL     1      54.082   8.104  13.922  0.00  0.00    +0.000 N 
ATOM     27  C   UNL     1      54.718   7.413  15.026  0.00  0.00    +0.000 C 
ATOM     28  C   UNL     1      52.706   8.252  13.963  0.00  0.00    +0.000 A 
ATOM     29  O   UNL     1      52.030   7.836  14.902  0.00  0.00    +0.000 OA
ATOM     30  C   UNL     1      52.115   8.920  12.818  0.00  0.00    +0.000 A 
ENDBRANCH  17  20
ENDBRANCH   1  16
BRANCH   1  32
ATOM     31  C   UNL     1      48.979   7.000  16.392  0.00  0.00    +0.000 C 
ATOM     32  C   UNL     1      48.405   6.220  15.214  0.00  0.00    +0.000 C 
ENDBRANCH   1  32
TORSDOF 6
ENDMDL
MODEL 5
REMARK VINA RESULT:    -6.599      2.939      4.418
REMARK INTER + INTRA:         -10.417
REMARK INTER:                  -9.142
REMARK INTRA:                  -1.275
REMARK UNBOUND:                -1.504
REMARK  Name = 
REMARK  9 active torsions:
REMARK  status: ('A' for Active; 'I' for Inactive)
REMARK    1  A    between atoms: C_1  and  C_2
REMARK    2  A    between atoms: C_2  and  C_3
REMARK    3  A    between atoms: C_3  and  N_4
REMARK    4  A    between atoms: C_3  and  C_18
REMARK    5  A    between atoms: C_5  and  C_7
REMARK    6  A    between atoms: N_13  and  C_14
REMARK    7  A    between atoms: C_21  and  C_22
REMARK    8  A    between atoms: C_22  and  C_23
REMARK    9  A    between atoms: C_22  and  C_24
REMARK                            x       y       z     vdW  Elec       q    Type
REMARK                         _______ _______ _______ _____ _____    ______ ____
ROOT
ATOM      1  C   UNL     1      47.554   4.833  15.717  0.00  0.00    +0.000 C 
ENDROOT
BRANCH   1   2
ATOM      2  C   UNL     1      46.836   4.928  14.370  0.00  0.00    +0.000 A 
ATOM      3  C   UNL     1      47.070   6.004  13.509  0.00  0.00    +0.000 A 
ATOM      4  C   UNL     1      46.409   6.087  12.277  0.00  0.00    +0.000 A 
ATOM      5  C   UNL     1      45.508   5.091  11.866  0.00  0.00    +0.000 A 
ATOM      6  C   UNL     1      45.280   4.010  12.723  0.00  0.00    +0.000 A 
ATOM      7  C   UNL     1      45.929   3.935  13.959  0.00  0.00    +0.000 A 
BRANCH   5   8
ATOM      8  C   UNL     1      44.790   5.206  10.527  0.00  0.00    +0.000 C 
ATOM      9  C   UNL     1      43.265   5.112  10.696  0.00  0.00    +0.000 C 
BRANCH   8  10
ATOM     10  C   UNL     1      45.308   4.231   9.473  0.00  0.00    +0.000 A 
ATOM     11  C   UNL     1      45.101   2.861   9.639  0.00  0.00    +0.000 A 
ATOM     12  C   UNL     1      45.610   1.978   8.690  0.00  0.00    +0.000 A 
ATOM     13  C   UNL     1      46.305   2.477   7.596  0.00  0.00    +0.000 A 
ATOM     14  C   UNL     1      46.454   3.848   7.491  0.00  0.00    +0.000 A 
ATOM     15  N   UNL     1      45.969   4.729   8.394  0.00  0.00    +0.000 NA
ENDBRANCH   8  10
ENDBRANCH   5   8
ENDBRANCH   1   2
BRANCH   1  16
ATOM     16  N   UNL     1      48.776   5.622  15.638  0.00  0.00    +0.000 N 
ATOM     17  C   UNL     1      49.138   6.616  16.504  0.00  0.00    +0.000 C 
ATOM     18  O   UNL     1      48.406   7.010  17.407  0.00  0.00    +0.000 OA
ATOM     19  H   UNL     1      49.464   5.288  14.973  0.00  0.00    +0.000 HD
BRANCH  17  20
ATOM     20  C   UNL     1      50.458   7.223  16.263  0.00  0.00    +0.000 A 
ATOM     21  C   UNL     1      50.550   8.506  15.741  0.00  0.00    +0.000 A 
ATOM     22  S   UNL     1      52.156   9.027  15.491  0.00  0.00    +0.000 S 
ATOM     23  C   UNL     1      52.786   7.578  16.120  0.00  0.00    +0.000 A 
ATOM     24  N   UNL     1      54.125   7.373  16.202  0.00  0.00    +0.000 NA
ATOM     25  C   UNL     1      54.468   6.236  16.711  0.00  0.00    +0.000 A 
ATOM     26  N   UNL     1      53.594   5.262  17.151  0.00  0.00    +0.000 N 
ATOM     27  C   UNL     1      54.080   4.005  17.682  0.00  0.00    +0.000 C 
ATOM     28  C   UNL     1      52.223   5.440  17.071  0.00  0.00    +0.000 A 
ATOM     29  O   UNL     1      51.428   4.582  17.450  0.00  0.00    +0.000 OA
ATOM     30  C   UNL     1      51.788   6.702  16.500  0.00  0.00    +0.000 A 
ENDBRANCH  17  20
ENDBRANCH   1  16
BRANCH   1  32
ATOM     31  C   UNL     1      47.376   3.031  17.523  0.00  0.00    +0.000 C 
ATOM     32  C   UNL     1      47.837   3.367  16.109  0.00  0.00    +0.000 C 
ENDBRANCH   1  32
TORSDOF 6
ENDMDL
MODEL 6
REMARK VINA RESULT:    -6.580      2.889      9.586
REMARK INTER + INTRA:         -10.392
REMARK INTER:                  -9.159
REMARK INTRA:                  -1.233
REMARK UNBOUND:                -1.504
REMARK  Name = 
REMARK  9 active torsions:
REMARK  status: ('A' for Active; 'I' for Inactive)
REMARK    1  A    between atoms: C_1  and  C_2
REMARK    2  A    between atoms: C_2  and  C_3
REMARK    3  A    between atoms: C_3  and  N_4
REMARK    4  A    between atoms: C_3  and  C_18
REMARK    5  A    between atoms: C_5  and  C_7
REMARK    6  A    between atoms: N_13  and  C_14
REMARK    7  A    between atoms: C_21  and  C_22
REMARK    8  A    between atoms: C_22  and  C_23
REMARK    9  A    between atoms: C_22  and  C_24
REMARK                            x       y       z     vdW  Elec       q    Type
REMARK                         _______ _______ _______ _____ _____    ______ ____
ROOT
ATOM      1  C   UNL     1      47.273   7.795  12.654  0.00  0.00    +0.000 C 
ENDROOT
BRANCH   1   2
ATOM      2  C   UNL     1      47.890   7.617  14.041  0.00  0.00    +0.000 A 
ATOM      3  C   UNL     1      48.098   6.342  14.574  0.00  0.00    +0.000 A 
ATOM      4  C   UNL     1      48.663   6.185  15.847  0.00  0.00    +0.000 A 
ATOM      5  C   UNL     1      49.047   7.297  16.614  0.00  0.00    +0.000 A 
ATOM      6  C   UNL     1      48.849   8.573  16.077  0.00  0.00    +0.000 A 
ATOM      7  C   UNL     1      48.272   8.729  14.813  0.00  0.00    +0.000 A 
BRANCH   5   8
ATOM      8  C   UNL     1      49.649   7.106  18.000  0.00  0.00    +0.000 C 
ATOM      9  C   UNL     1      49.564   5.640  18.454  0.00  0.00    +0.000 C 
BRANCH   8  10
ATOM     10  C   UNL     1      49.081   8.061  19.048  0.00  0.00    +0.000 A 
ATOM     11  C   UNL     1      47.791   7.858  19.540  0.00  0.00    +0.000 A 
ATOM     12  C   UNL     1      47.269   8.757  20.467  0.00  0.00    +0.000 A 
ATOM     13  C   UNL     1      48.044   9.830  20.888  0.00  0.00    +0.000 A 
ATOM     14  C   UNL     1      49.320   9.954  20.369  0.00  0.00    +0.000 A 
ATOM     15  N   UNL     1      49.854   9.097  19.471  0.00  0.00    +0.000 NA
ENDBRANCH   8  10
ENDBRANCH   5   8
ENDBRANCH   1   2
BRANCH   1  16
ATOM     16  N   UNL     1      46.504   6.597  12.341  0.00  0.00    +0.000 N 
ATOM     17  C   UNL     1      45.310   6.570  11.676  0.00  0.00    +0.000 C 
ATOM     18  O   UNL     1      44.710   7.589  11.345  0.00  0.00    +0.000 OA
ATOM     19  H   UNL     1      46.985   5.721  12.504  0.00  0.00    +0.000 HD
BRANCH  17  20
ATOM     20  C   UNL     1      44.756   5.231  11.412  0.00  0.00    +0.000 A 
ATOM     21  C   UNL     1      43.913   4.630  12.337  0.00  0.00    +0.000 A 
ATOM     22  S   UNL     1      43.404   3.067  11.881  0.00  0.00    +0.000 S 
ATOM     23  C   UNL     1      44.250   3.157  10.408  0.00  0.00    +0.000 A 
ATOM     24  N   UNL     1      44.225   2.130   9.521  0.00  0.00    +0.000 NA
ATOM     25  C   UNL     1      44.898   2.335   8.437  0.00  0.00    +0.000 A 
ATOM     26  N   UNL     1      45.611   3.481   8.145  0.00  0.00    +0.000 N 
ATOM     27  C   UNL     1      46.359   3.602   6.910  0.00  0.00    +0.000 C 
ATOM     28  C   UNL     1      45.662   4.540   9.034  0.00  0.00    +0.000 A 
ATOM     29  O   UNL     1      46.298   5.565   8.797  0.00  0.00    +0.000 OA
ATOM     30  C   UNL     1      44.925   4.355  10.271  0.00  0.00    +0.000 A 
ENDBRANCH  17  20
ENDBRANCH   1  16
BRANCH   1  32
ATOM     31  C   UNL     1      49.675   7.395  11.873  0.00  0.00    +0.000 C 
ATOM     32  C   UNL     1      48.348   8.086  11.585  0.00  0.00    +0.000 C 
ENDBRANCH   1  32
TORSDOF 6
ENDMDL
MODEL 7
REMARK VINA RESULT:    -6.270      3.996      9.536
REMARK INTER + INTRA:          -9.973
REMARK INTER:                  -9.224
REMARK INTRA:                  -0.750
REMARK UNBOUND:                -1.504
REMARK  Name = 
REMARK  9 active torsions:
REMARK  status: ('A' for Active; 'I' for Inactive)
REMARK    1  A    between atoms: C_1  and  C_2
REMARK    2  A    between atoms: C_2  and  C_3
REMARK    3  A    between atoms: C_3  and  N_4
REMARK    4  A    between atoms: C_3  and  C_18
REMARK    5  A    between atoms: C_5  and  C_7
REMARK    6  A    between atoms: N_13  and  C_14
REMARK    7  A    between atoms: C_21  and  C_22
REMARK    8  A    between atoms: C_22  and  C_23
REMARK    9  A    between atoms: C_22  and  C_24
REMARK                            x       y       z     vdW  Elec       q    Type
REMARK                         _______ _______ _______ _____ _____    ______ ____
ROOT
ATOM      1  C   UNL     1      47.717   4.483  17.357  0.00  0.00    +0.000 C 
ENDROOT
BRANCH   1   2
ATOM      2  C   UNL     1      49.214   4.191  17.460  0.00  0.00    +0.000 A 
ATOM      3  C   UNL     1      49.677   2.886  17.651  0.00  0.00    +0.000 A 
ATOM      4  C   UNL     1      51.050   2.624  17.745  0.00  0.00    +0.000 A 
ATOM      5  C   UNL     1      51.997   3.656  17.638  0.00  0.00    +0.000 A 
ATOM      6  C   UNL     1      51.535   4.960  17.437  0.00  0.00    +0.000 A 
ATOM      7  C   UNL     1      50.164   5.222  17.357  0.00  0.00    +0.000 A 
BRANCH   5   8
ATOM      8  C   UNL     1      53.485   3.352  17.755  0.00  0.00    +0.000 C 
ATOM      9  C   UNL     1      53.741   2.123  18.642  0.00  0.00    +0.000 C 
BRANCH   8  10
ATOM     10  C   UNL     1      54.319   4.554  18.191  0.00  0.00    +0.000 A 
ATOM     11  C   UNL     1      54.418   4.871  19.547  0.00  0.00    +0.000 A 
ATOM     12  C   UNL     1      55.151   5.991  19.931  0.00  0.00    +0.000 A 
ATOM     13  C   UNL     1      55.774   6.764  18.960  0.00  0.00    +0.000 A 
ATOM     14  C   UNL     1      55.647   6.376  17.639  0.00  0.00    +0.000 A 
ATOM     15  N   UNL     1      54.945   5.294  17.237  0.00  0.00    +0.000 NA
ENDBRANCH   8  10
ENDBRANCH   5   8
ENDBRANCH   1   2
BRANCH   1  16
ATOM     16  N   UNL     1      47.463   5.109  16.066  0.00  0.00    +0.000 N 
ATOM     17  C   UNL     1      47.354   4.454  14.872  0.00  0.00    +0.000 C 
ATOM     18  O   UNL     1      47.552   3.248  14.754  0.00  0.00    +0.000 OA
ATOM     19  H   UNL     1      47.200   6.087  16.106  0.00  0.00    +0.000 HD
BRANCH  17  20
ATOM     20  C   UNL     1      47.020   5.295  13.710  0.00  0.00    +0.000 A 
ATOM     21  C   UNL     1      47.590   6.554  13.574  0.00  0.00    +0.000 A 
ATOM     22  S   UNL     1      47.055   7.399  12.192  0.00  0.00    +0.000 S 
ATOM     23  C   UNL     1      46.083   6.094  11.697  0.00  0.00    +0.000 A 
ATOM     24  N   UNL     1      45.348   6.160  10.558  0.00  0.00    +0.000 NA
ATOM     25  C   UNL     1      44.667   5.094  10.293  0.00  0.00    +0.000 A 
ATOM     26  N   UNL     1      44.640   3.951  11.066  0.00  0.00    +0.000 N 
ATOM     27  C   UNL     1      43.818   2.817  10.694  0.00  0.00    +0.000 C 
ATOM     28  C   UNL     1      45.372   3.858  12.237  0.00  0.00    +0.000 A 
ATOM     29  O   UNL     1      45.355   2.852  12.943  0.00  0.00    +0.000 OA
ATOM     30  C   UNL     1      46.151   5.034  12.580  0.00  0.00    +0.000 A 
ENDBRANCH  17  20
ENDBRANCH   1  16
BRANCH   1  32
ATOM     31  C   UNL     1      48.040   5.157  19.803  0.00  0.00    +0.000 C 
ATOM     32  C   UNL     1      47.225   5.356  18.530  0.00  0.00    +0.000 C 
ENDBRANCH   1  32
TORSDOF 6
ENDMDL
MODEL 8
REMARK VINA RESULT:    -6.248      3.356      9.507
REMARK INTER + INTRA:          -9.944
REMARK INTER:                  -8.771
REMARK INTRA:                  -1.173
REMARK UNBOUND:                -1.504
REMARK  Name = 
REMARK  9 active torsions:
REMARK  status: ('A' for Active; 'I' for Inactive)
REMARK    1  A    between atoms: C_1  and  C_2
REMARK    2  A    between atoms: C_2  and  C_3
REMARK    3  A    between atoms: C_3  and  N_4
REMARK    4  A    between atoms: C_3  and  C_18
REMARK    5  A    between atoms: C_5  and  C_7
REMARK    6  A    between atoms: N_13  and  C_14
REMARK    7  A    between atoms: C_21  and  C_22
REMARK    8  A    between atoms: C_22  and  C_23
REMARK    9  A    between atoms: C_22  and  C_24
REMARK                            x       y       z     vdW  Elec       q    Type
REMARK                         _______ _______ _______ _____ _____    ______ ____
ROOT
ATOM      1  C   UNL     1      47.548   7.759  12.450  0.00  0.00    +0.000 C 
ENDROOT
BRANCH   1   2
ATOM      2  C   UNL     1      47.987   7.790  13.914  0.00  0.00    +0.000 A 
ATOM      3  C   UNL     1      47.926   8.975  14.654  0.00  0.00    +0.000 A 
ATOM      4  C   UNL     1      48.331   8.998  15.995  0.00  0.00    +0.000 A 
ATOM      5  C   UNL     1      48.794   7.838  16.636  0.00  0.00    +0.000 A 
ATOM      6  C   UNL     1      48.847   6.650  15.899  0.00  0.00    +0.000 A 
ATOM      7  C   UNL     1      48.456   6.631  14.557  0.00  0.00    +0.000 A 
BRANCH   5   8
ATOM      8  C   UNL     1      49.241   7.887  18.092  0.00  0.00    +0.000 C 
ATOM      9  C   UNL     1      48.423   8.908  18.898  0.00  0.00    +0.000 C 
BRANCH   8  10
ATOM     10  C   UNL     1      50.744   8.099  18.260  0.00  0.00    +0.000 A 
ATOM     11  C   UNL     1      51.493   8.607  17.198  0.00  0.00    +0.000 A 
ATOM     12  C   UNL     1      52.869   8.762  17.350  0.00  0.00    +0.000 A 
ATOM     13  C   UNL     1      53.465   8.415  18.555  0.00  0.00    +0.000 A 
ATOM     14  C   UNL     1      52.655   7.935  19.567  0.00  0.00    +0.000 A 
ATOM     15  N   UNL     1      51.318   7.777  19.450  0.00  0.00    +0.000 NA
ENDBRANCH   8  10
ENDBRANCH   5   8
ENDBRANCH   1   2
BRANCH   1  16
ATOM     16  N   UNL     1      46.721   6.576  12.249  0.00  0.00    +0.000 N 
ATOM     17  C   UNL     1      45.463   6.568  11.714  0.00  0.00    +0.000 C 
ATOM     18  O   UNL     1      44.856   7.595  11.424  0.00  0.00    +0.000 OA
ATOM     19  H   UNL     1      47.194   5.691  12.381  0.00  0.00    +0.000 HD
BRANCH  17  20
ATOM     20  C   UNL     1      44.852   5.239  11.540  0.00  0.00    +0.000 A 
ATOM     21  C   UNL     1      44.082   4.688  12.555  0.00  0.00    +0.000 A 
ATOM     22  S   UNL     1      43.491   3.128  12.194  0.00  0.00    +0.000 S 
ATOM     23  C   UNL     1      44.200   3.154  10.648  0.00  0.00    +0.000 A 
ATOM     24  N   UNL     1      44.066   2.105   9.798  0.00  0.00    +0.000 NA
ATOM     25  C   UNL     1      44.641   2.261   8.651  0.00  0.00    +0.000 A 
ATOM     26  N   UNL     1      45.355   3.377   8.262  0.00  0.00    +0.000 N 
ATOM     27  C   UNL     1      45.989   3.443   6.961  0.00  0.00    +0.000 C 
ATOM     28  C   UNL     1      45.516   4.458   9.111  0.00  0.00    +0.000 A 
ATOM     29  O   UNL     1      46.155   5.457   8.787  0.00  0.00    +0.000 OA
ATOM     30  C   UNL     1      44.891   4.327  10.415  0.00  0.00    +0.000 A 
ENDBRANCH  17  20
ENDBRANCH   1  16
BRANCH   1  32
ATOM     31  C   UNL     1      49.719   8.935  11.783  0.00  0.00    +0.000 C 
ATOM     32  C   UNL     1      48.757   7.789  11.492  0.00  0.00    +0.000 C 
ENDBRANCH   1  32
TORSDOF 6
ENDMDL
MODEL 9
REMARK VINA RESULT:    -5.696      3.948      5.919
REMARK INTER + INTRA:          -9.198
REMARK INTER:                  -8.102
REMARK INTRA:                  -1.096
REMARK UNBOUND:                -1.504
REMARK  Name = 
REMARK  9 active torsions:
REMARK  status: ('A' for Active; 'I' for Inactive)
REMARK    1  A    between atoms: C_1  and  C_2
REMARK    2  A    between atoms: C_2  and  C_3
REMARK    3  A    between atoms: C_3  and  N_4
REMARK    4  A    between atoms: C_3  and  C_18
REMARK    5  A    between atoms: C_5  and  C_7
REMARK    6  A    between atoms: N_13  and  C_14
REMARK    7  A    between atoms: C_21  and  C_22
REMARK    8  A    between atoms: C_22  and  C_23
REMARK    9  A    between atoms: C_22  and  C_24
REMARK                            x       y       z     vdW  Elec       q    Type
REMARK                         _______ _______ _______ _____ _____    ______ ____
ROOT
ATOM      1  C   UNL     1      48.600   4.513  17.335  0.00  0.00    +0.000 C 
ENDROOT
BRANCH   1   2
ATOM      2  C   UNL     1      48.131   5.084  15.997  0.00  0.00    +0.000 A 
ATOM      3  C   UNL     1      47.130   4.446  15.259  0.00  0.00    +0.000 A 
ATOM      4  C   UNL     1      46.704   4.973  14.033  0.00  0.00    +0.000 A 
ATOM      5  C   UNL     1      47.257   6.157  13.518  0.00  0.00    +0.000 A 
ATOM      6  C   UNL     1      48.252   6.801  14.261  0.00  0.00    +0.000 A 
ATOM      7  C   UNL     1      48.686   6.267  15.477  0.00  0.00    +0.000 A 
BRANCH   5   8
ATOM      8  C   UNL     1      46.788   6.708  12.177  0.00  0.00    +0.000 C 
ATOM      9  C   UNL     1      46.677   8.240  12.205  0.00  0.00    +0.000 C 
BRANCH   8  10
ATOM     10  C   UNL     1      45.508   6.051  11.663  0.00  0.00    +0.000 A 
ATOM     11  C   UNL     1      45.575   5.148  10.602  0.00  0.00    +0.000 A 
ATOM     12  C   UNL     1      44.398   4.583  10.117  0.00  0.00    +0.000 A 
ATOM     13  C   UNL     1      43.185   4.923  10.703  0.00  0.00    +0.000 A 
ATOM     14  C   UNL     1      43.202   5.812  11.763  0.00  0.00    +0.000 A 
ATOM     15  N   UNL     1      44.328   6.373  12.256  0.00  0.00    +0.000 NA
ENDBRANCH   8  10
ENDBRANCH   5   8
ENDBRANCH   1   2
BRANCH   1  16
ATOM     16  N   UNL     1      50.048   4.662  17.411  0.00  0.00    +0.000 N 
ATOM     17  C   UNL     1      50.773   4.806  18.561  0.00  0.00    +0.000 C 
ATOM     18  O   UNL     1      50.251   4.914  19.667  0.00  0.00    +0.000 OA
ATOM     19  H   UNL     1      50.545   4.490  16.546  0.00  0.00    +0.000 HD
BRANCH  17  20
ATOM     20  C   UNL     1      52.235   4.865  18.391  0.00  0.00    +0.000 A 
ATOM     21  C   UNL     1      52.912   6.060  18.592  0.00  0.00    +0.000 A 
ATOM     22  S   UNL     1      54.591   5.949  18.309  0.00  0.00    +0.000 S 
ATOM     23  C   UNL     1      54.481   4.288  17.959  0.00  0.00    +0.000 A 
ATOM     24  N   UNL     1      55.584   3.565  17.638  0.00  0.00    +0.000 NA
ATOM     25  C   UNL     1      55.362   2.312  17.409  0.00  0.00    +0.000 A 
ATOM     26  N   UNL     1      54.126   1.698  17.463  0.00  0.00    +0.000 N 
ATOM     27  C   UNL     1      53.978   0.289  17.161  0.00  0.00    +0.000 C 
ATOM     28  C   UNL     1      52.983   2.412  17.778  0.00  0.00    +0.000 A 
ATOM     29  O   UNL     1      51.873   1.886  17.824  0.00  0.00    +0.000 OA
ATOM     30  C   UNL     1      53.182   3.827  18.039  0.00  0.00    +0.000 A 
ENDBRANCH  17  20
ENDBRANCH   1  16
BRANCH   1  32
ATOM     31  C   UNL     1      48.953   2.076  16.644  0.00  0.00    +0.000 C 
ATOM     32  C   UNL     1      48.161   3.045  17.514  0.00  0.00    +0.000 C 
ENDBRANCH   1  32
TORSDOF 6
ENDMDL
