MODEL 1
REMARK VINA RESULT:    -7.921      0.000      0.000
REMARK INTER + INTRA:         -13.131
REMARK INTER:                 -12.089
REMARK INTRA:                  -1.043
REMARK UNBOUND:                -1.043
REMARK  Name = 
REMARK  10 active torsions:
REMARK  status: ('A' for Active; 'I' for Inactive)
REMARK    1  A    between atoms: C_1  and  C_2
REMARK    2  A    between atoms: C_2  and  C_3
REMARK    3  A    between atoms: C_3  and  N_4
REMARK    4  A    between atoms: C_3  and  C_20
REMARK    5  A    between atoms: N_4  and  C_5
REMARK    6  A    between atoms: C_5  and  C_6
REMARK    7  A    between atoms: C_9  and  C_10
REMARK    8  A    between atoms: C_10  and  N_11
REMARK    9  A    between atoms: N_11  and  C_12
REMARK   10  A    between atoms: C_12  and  C_13
REMARK                            x       y       z     vdW  Elec       q    Type
REMARK                         _______ _______ _______ _____ _____    ______ ____
ROOT
ATOM      1  C   UNL     1      48.264   5.949  15.217  0.00  0.00    +0.000 C 
ENDROOT
BRANCH   1   2
ATOM      2  C   UNL     1      47.370   5.786  14.007  0.00  0.00    +0.000 A 
ATOM      3  C   UNL     1      47.496   6.610  12.882  0.00  0.00    +0.000 A 
ATOM      4  C   UNL     1      46.629   6.452  11.794  0.00  0.00    +0.000 A 
ATOM      5  C   UNL     1      45.641   5.462  11.802  0.00  0.00    +0.000 A 
ATOM      6  C   UNL     1      45.529   4.628  12.919  0.00  0.00    +0.000 A 
ATOM      7  C   UNL     1      46.385   4.789  14.009  0.00  0.00    +0.000 A 
BRANCH   5   8
ATOM      8  C   UNL     1      44.688   5.307  10.642  0.00  0.00    +0.000 C 
BRANCH   8   9
ATOM      9  N   UNL     1      45.411   5.021   9.406  0.00  0.00    +0.000 NA
ATOM     10  H   UNL     1      46.313   4.624   9.659  0.00  0.00    +0.000 HD
BRANCH   9  11
ATOM     11  C   UNL     1      44.680   4.047   8.601  0.00  0.00    +0.000 C 
BRANCH  11  12
ATOM     12  C   UNL     1      45.603   2.986   8.133  0.00  0.00    +0.000 A 
ATOM     13  C   UNL     1      46.625   2.992   7.208  0.00  0.00    +0.000 A 
ATOM     14  C   UNL     1      47.122   1.678   7.215  0.00  0.00    +0.000 A 
ATOM     15  N   UNL     1      46.481   0.892   8.084  0.00  0.00    +0.000 NA
ATOM     16  N   UNL     1      45.569   1.714   8.634  0.00  0.00    +0.000 N 
ATOM     17  H   UNL     1      44.928   1.347   9.334  0.00  0.00    +0.000 HD
ENDBRANCH  11  12
ENDBRANCH   9  11
ENDBRANCH   8   9
ENDBRANCH   5   8
ENDBRANCH   1   2
BRANCH   1  18
ATOM     18  N   UNL     1      48.537   4.660  15.850  0.00  0.00    +0.000 NA
ATOM     19  H   UNL     1      47.796   4.013  15.585  0.00  0.00    +0.000 HD
BRANCH  18  20
ATOM     20  C   UNL     1      48.579   4.722  17.320  0.00  0.00    +0.000 C 
BRANCH  20  21
ATOM     21  C   UNL     1      50.022   4.475  17.749  0.00  0.00    +0.000 A 
ATOM     22  C   UNL     1      50.824   5.395  18.412  0.00  0.00    +0.000 A 
ATOM     23  S   UNL     1      52.378   4.797  18.791  0.00  0.00    +0.000 S 
ATOM     24  C   UNL     1      52.021   3.278  18.113  0.00  0.00    +0.000 A 
ATOM     25  N   UNL     1      52.923   2.259  18.154  0.00  0.00    +0.000 NA
ATOM     26  C   UNL     1      52.495   1.156  17.636  0.00  0.00    +0.000 A 
ATOM     27  N   UNL     1      51.264   0.985  17.056  0.00  0.00    +0.000 N 
ATOM     28  C   UNL     1      50.351   2.007  16.920  0.00  0.00    +0.000 A 
ATOM     29  O   UNL     1      49.308   1.856  16.293  0.00  0.00    +0.000 OA
ATOM     30  C   UNL     1      50.755   3.245  17.560  0.00  0.00    +0.000 A 
ATOM     31  H   UNL     1      51.012   0.104  16.633  0.00  0.00    +0.000 HD
ENDBRANCH  20  21
BRANCH  20  33
ATOM     32  C   UNL     1      47.163   5.882  19.168  0.00  0.00    +0.000 C 
ATOM     33  C   UNL     1      48.021   6.037  17.914  0.00  0.00    +0.000 C 
ENDBRANCH  20  33
ENDBRANCH  18  20
ENDBRANCH   1  18
TORSDOF 9
ENDMDL
MODEL 2
REMARK VINA RESULT:    -7.453      1.822      2.457
REMARK INTER + INTRA:         -12.417
REMARK INTER:                 -11.196
REMARK INTRA:                  -1.221
REMARK UNBOUND:                -1.043
REMARK  Name = 
REMARK  10 active torsions:
REMARK  status: ('A' for Active; 'I' for Inactive)
REMARK    1  A    between atoms: C_1  and  C_2
REMARK    2  A    between atoms: C_2  and  C_3
REMARK    3  A    between atoms: C_3  and  N_4
REMARK    4  A    between atoms: C_3  and  C_20
REMARK    5  A    between atoms: N_4  and  C_5
REMARK    6  A    between atoms: C_5  and  C_6
REMARK    7  A    between atoms: C_9  and  C_10
REMARK    8  A    between atoms: C_10  and  N_11
REMARK    9  A    between atoms: N_11  and  C_12
REMARK   10  A    between atoms: C_12  and  C_13
REMARK                            x       y       z     vdW  Elec       q    Type
REMARK                         _______ _______ _______ _____ _____    ______ ____
ROOT
ATOM      1  C   UNL     1      47.837   6.728  13.461  0.00  0.00    +0.000 C 
ENDROOT
BRANCH   1   2
ATOM      2  C   UNL     1      46.797   5.903  12.736  0.00  0.00    +0.000 A 
ATOM      3  C   UNL     1      46.186   4.795  13.337  0.00  0.00    +0.000 A 
ATOM      4  C   UNL     1      45.252   4.034  12.625  0.00  0.00    +0.000 A 
ATOM      5  C   UNL     1      44.899   4.375  11.315  0.00  0.00    +0.000 A 
ATOM      6  C   UNL     1      45.495   5.493  10.723  0.00  0.00    +0.000 A 
ATOM      7  C   UNL     1      46.435   6.248  11.427  0.00  0.00    +0.000 A 
BRANCH   5   8
ATOM      8  C   UNL     1      43.912   3.541  10.534  0.00  0.00    +0.000 C 
BRANCH   8   9
ATOM      9  N   UNL     1      44.360   3.353   9.157  0.00  0.00    +0.000 NA
ATOM     10  H   UNL     1      45.073   4.054   8.965  0.00  0.00    +0.000 HD
BRANCH   9  11
ATOM     11  C   UNL     1      44.948   2.027   8.989  0.00  0.00    +0.000 C 
BRANCH  11  12
ATOM     12  C   UNL     1      46.100   2.101   8.059  0.00  0.00    +0.000 A 
ATOM     13  C   UNL     1      46.662   3.151   7.366  0.00  0.00    +0.000 A 
ATOM     14  C   UNL     1      47.732   2.580   6.657  0.00  0.00    +0.000 A 
ATOM     15  N   UNL     1      47.857   1.270   6.885  0.00  0.00    +0.000 NA
ATOM     16  N   UNL     1      46.859   1.007   7.747  0.00  0.00    +0.000 N 
ATOM     17  H   UNL     1      46.724   0.053   8.074  0.00  0.00    +0.000 HD
ENDBRANCH  11  12
ENDBRANCH   9  11
ENDBRANCH   8   9
ENDBRANCH   5   8
ENDBRANCH   1   2
BRANCH   1  18
ATOM     18  N   UNL     1      48.344   6.024  14.638  0.00  0.00    +0.000 NA
ATOM     19  H   UNL     1      47.609   5.408  14.980  0.00  0.00    +0.000 HD
BRANCH  18  20
ATOM     20  C   UNL     1      48.735   6.919  15.739  0.00  0.00    +0.000 C 
BRANCH  20  21
ATOM     21  C   UNL     1      50.183   6.603  16.096  0.00  0.00    +0.000 A 
ATOM     22  C   UNL     1      51.282   7.362  15.713  0.00  0.00    +0.000 A 
ATOM     23  S   UNL     1      52.765   6.766  16.312  0.00  0.00    +0.000 S 
ATOM     24  C   UNL     1      51.988   5.492  17.131  0.00  0.00    +0.000 A 
ATOM     25  N   UNL     1      52.691   4.619  17.902  0.00  0.00    +0.000 NA
ATOM     26  C   UNL     1      51.961   3.733  18.494  0.00  0.00    +0.000 A 
ATOM     27  N   UNL     1      50.600   3.620  18.361  0.00  0.00    +0.000 N 
ATOM     28  C   UNL     1      49.858   4.429  17.530  0.00  0.00    +0.000 A 
ATOM     29  O   UNL     1      48.663   4.232  17.341  0.00  0.00    +0.000 OA
ATOM     30  C   UNL     1      50.624   5.493  16.908  0.00  0.00    +0.000 A 
ATOM     31  H   UNL     1      50.098   2.875  18.821  0.00  0.00    +0.000 HD
ENDBRANCH  20  21
BRANCH  20  33
ATOM     32  C   UNL     1      48.208   9.303  16.638  0.00  0.00    +0.000 C 
ATOM     33  C   UNL     1      48.534   8.423  15.433  0.00  0.00    +0.000 C 
ENDBRANCH  20  33
ENDBRANCH  18  20
ENDBRANCH   1  18
TORSDOF 9
ENDMDL
MODEL 3
REMARK VINA RESULT:    -7.186      1.563      2.236
REMARK INTER + INTRA:         -12.010
REMARK INTER:                 -10.871
REMARK INTRA:                  -1.140
REMARK UNBOUND:                -1.043
REMARK  Name = 
REMARK  10 active torsions:
REMARK  status: ('A' for Active; 'I' for Inactive)
REMARK    1  A    between atoms: C_1  and  C_2
REMARK    2  A    between atoms: C_2  and  C_3
REMARK    3  A    between atoms: C_3  and  N_4
REMARK    4  A    between atoms: C_3  and  C_20
REMARK    5  A    between atoms: N_4  and  C_5
REMARK    6  A    between atoms: C_5  and  C_6
REMARK    7  A    between atoms: C_9  and  C_10
REMARK    8  A    between atoms: C_10  and  N_11
REMARK    9  A    between atoms: N_11  and  C_12
REMARK   10  A    between atoms: C_12  and  C_13
REMARK                            x       y       z     vdW  Elec       q    Type
REMARK                         _______ _______ _______ _____ _____    ______ ____
ROOT
ATOM      1  C   UNL     1      49.320   6.618  15.214  0.00  0.00    +0.000 C 
ENDROOT
BRANCH   1   2
ATOM      2  C   UNL     1      48.075   6.662  14.355  0.00  0.00    +0.000 A 
ATOM      3  C   UNL     1      47.409   5.494  13.961  0.00  0.00    +0.000 A 
ATOM      4  C   UNL     1      46.280   5.571  13.137  0.00  0.00    +0.000 A 
ATOM      5  C   UNL     1      45.786   6.809  12.712  0.00  0.00    +0.000 A 
ATOM      6  C   UNL     1      46.440   7.975  13.122  0.00  0.00    +0.000 A 
ATOM      7  C   UNL     1      47.572   7.901  13.934  0.00  0.00    +0.000 A 
BRANCH   5   8
ATOM      8  C   UNL     1      44.584   6.894  11.803  0.00  0.00    +0.000 C 
BRANCH   8   9
ATOM      9  N   UNL     1      43.447   6.174  12.371  0.00  0.00    +0.000 NA
ATOM     10  H   UNL     1      42.861   6.852  12.854  0.00  0.00    +0.000 HD
BRANCH   9  11
ATOM     11  C   UNL     1      42.662   5.545  11.313  0.00  0.00    +0.000 C 
BRANCH  11  12
ATOM     12  C   UNL     1      43.480   4.520  10.622  0.00  0.00    +0.000 A 
ATOM     13  C   UNL     1      44.019   3.325  11.050  0.00  0.00    +0.000 A 
ATOM     14  C   UNL     1      44.686   2.811   9.925  0.00  0.00    +0.000 A 
ATOM     15  N   UNL     1      44.574   3.603   8.855  0.00  0.00    +0.000 NA
ATOM     16  N   UNL     1      43.829   4.629   9.304  0.00  0.00    +0.000 N 
ATOM     17  H   UNL     1      43.608   5.395   8.672  0.00  0.00    +0.000 HD
ENDBRANCH  11  12
ENDBRANCH   9  11
ENDBRANCH   8   9
ENDBRANCH   5   8
ENDBRANCH   1   2
BRANCH   1  18
ATOM     18  N   UNL     1      48.983   6.400  16.620  0.00  0.00    +0.000 NA
ATOM     19  H   UNL     1      49.707   6.834  17.190  0.00  0.00    +0.000 HD
BRANCH  18  20
ATOM     20  C   UNL     1      48.903   4.979  16.993  0.00  0.00    +0.000 C 
BRANCH  20  21
ATOM     21  C   UNL     1      50.261   4.576  17.559  0.00  0.00    +0.000 A 
ATOM     22  C   UNL     1      51.113   5.419  18.261  0.00  0.00    +0.000 A 
ATOM     23  S   UNL     1      52.540   4.652  18.800  0.00  0.00    +0.000 S 
ATOM     24  C   UNL     1      52.054   3.159  18.143  0.00  0.00    +0.000 A 
ATOM     25  N   UNL     1      52.813   2.041  18.300  0.00  0.00    +0.000 NA
ATOM     26  C   UNL     1      52.295   0.976  17.783  0.00  0.00    +0.000 A 
ATOM     27  N   UNL     1      51.107   0.932  17.099  0.00  0.00    +0.000 N 
ATOM     28  C   UNL     1      50.345   2.051  16.847  0.00  0.00    +0.000 A 
ATOM     29  O   UNL     1      49.349   2.002  16.134  0.00  0.00    +0.000 OA
ATOM     30  C   UNL     1      50.846   3.258  17.479  0.00  0.00    +0.000 A 
ATOM     31  H   UNL     1      50.783   0.071  16.685  0.00  0.00    +0.000 HD
ENDBRANCH  20  21
BRANCH  20  33
ATOM     32  C   UNL     1      47.261   5.807  18.833  0.00  0.00    +0.000 C 
ATOM     33  C   UNL     1      47.751   4.645  17.972  0.00  0.00    +0.000 C 
ENDBRANCH  20  33
ENDBRANCH  18  20
ENDBRANCH   1  18
TORSDOF 9
ENDMDL
MODEL 4
REMARK VINA RESULT:    -6.981      3.622      8.696
REMARK INTER + INTRA:         -11.697
REMARK INTER:                 -10.186
REMARK INTRA:                  -1.512
REMARK UNBOUND:                -1.043
REMARK  Name = 
REMARK  10 active torsions:
REMARK  status: ('A' for Active; 'I' for Inactive)
REMARK    1  A    between atoms: C_1  and  C_2
REMARK    2  A    between atoms: C_2  and  C_3
REMARK    3  A    between atoms: C_3  and  N_4
REMARK    4  A    between atoms: C_3  and  C_20
REMARK    5  A    between atoms: N_4  and  C_5
REMARK    6  A    between atoms: C_5  and  C_6
REMARK    7  A    between atoms: C_9  and  C_10
REMARK    8  A    between atoms: C_10  and  N_11
REMARK    9  A    between atoms: N_11  and  C_12
REMARK   10  A    between atoms: C_12  and  C_13
REMARK                            x       y       z     vdW  Elec       q    Type
REMARK                         _______ _______ _______ _____ _____    ______ ____
ROOT
ATOM      1  C   UNL     1      47.839   8.082  12.081  0.00  0.00    +0.000 C 
ENDROOT
BRANCH   1   2
ATOM      2  C   UNL     1      48.174   7.937  13.550  0.00  0.00    +0.000 A 
ATOM      3  C   UNL     1      48.615   6.721  14.088  0.00  0.00    +0.000 A 
ATOM      4  C   UNL     1      48.883   6.613  15.458  0.00  0.00    +0.000 A 
ATOM      5  C   UNL     1      48.736   7.717  16.305  0.00  0.00    +0.000 A 
ATOM      6  C   UNL     1      48.315   8.935  15.763  0.00  0.00    +0.000 A 
ATOM      7  C   UNL     1      48.037   9.042  14.400  0.00  0.00    +0.000 A 
BRANCH   5   8
ATOM      8  C   UNL     1      48.999   7.598  17.787  0.00  0.00    +0.000 C 
BRANCH   8   9
ATOM      9  N   UNL     1      47.777   7.255  18.509  0.00  0.00    +0.000 NA
ATOM     10  H   UNL     1      47.064   7.023  17.820  0.00  0.00    +0.000 HD
BRANCH   9  11
ATOM     11  C   UNL     1      47.999   6.093  19.364  0.00  0.00    +0.000 C 
BRANCH  11  12
ATOM     12  C   UNL     1      47.875   4.850  18.566  0.00  0.00    +0.000 A 
ATOM     13  C   UNL     1      48.701   3.755  18.427  0.00  0.00    +0.000 A 
ATOM     14  C   UNL     1      48.026   2.909  17.531  0.00  0.00    +0.000 A 
ATOM     15  N   UNL     1      46.853   3.411  17.137  0.00  0.00    +0.000 NA
ATOM     16  N   UNL     1      46.782   4.586  17.787  0.00  0.00    +0.000 N 
ATOM     17  H   UNL     1      45.972   5.185  17.644  0.00  0.00    +0.000 HD
ENDBRANCH  11  12
ENDBRANCH   9  11
ENDBRANCH   8   9
ENDBRANCH   5   8
ENDBRANCH   1   2
BRANCH   1  18
ATOM     18  N   UNL     1      47.161   6.891  11.574  0.00  0.00    +0.000 NA
ATOM     19  H   UNL     1      47.578   6.646  10.676  0.00  0.00    +0.000 HD
BRANCH  18  20
ATOM     20  C   UNL     1      45.716   7.078  11.366  0.00  0.00    +0.000 C 
BRANCH  20  21
ATOM     21  C   UNL     1      45.048   5.717  11.528  0.00  0.00    +0.000 A 
ATOM     22  C   UNL     1      44.379   5.288  12.668  0.00  0.00    +0.000 A 
ATOM     23  S   UNL     1      43.703   3.728  12.517  0.00  0.00    +0.000 S 
ATOM     24  C   UNL     1      44.254   3.582  10.913  0.00  0.00    +0.000 A 
ATOM     25  N   UNL     1      43.964   2.483  10.166  0.00  0.00    +0.000 NA
ATOM     26  C   UNL     1      44.414   2.534   8.956  0.00  0.00    +0.000 A 
ATOM     27  N   UNL     1      45.152   3.566   8.435  0.00  0.00    +0.000 N 
ATOM     28  C   UNL     1      45.538   4.661   9.176  0.00  0.00    +0.000 A 
ATOM     29  O   UNL     1      46.294   5.511   8.720  0.00  0.00    +0.000 OA
ATOM     30  C   UNL     1      44.986   4.687  10.518  0.00  0.00    +0.000 A 
ATOM     31  H   UNL     1      45.507   3.520   7.492  0.00  0.00    +0.000 HD
ENDBRANCH  20  21
BRANCH  20  33
ATOM     32  C   UNL     1      44.617   9.425  11.596  0.00  0.00    +0.000 C 
ATOM     33  C   UNL     1      45.077   8.144  12.289  0.00  0.00    +0.000 C 
ENDBRANCH  20  33
ENDBRANCH  18  20
ENDBRANCH   1  18
TORSDOF 9
ENDMDL
MODEL 5
REMARK VINA RESULT:    -6.963      2.297      3.240
REMARK INTER + INTRA:         -11.670
REMARK INTER:                 -10.238
REMARK INTRA:                  -1.432
REMARK UNBOUND:                -1.043
REMARK  Name = 
REMARK  10 active torsions:
REMARK  status: ('A' for Active; 'I' for Inactive)
REMARK    1  A    between atoms: C_1  and  C_2
REMARK    2  A    between atoms: C_2  and  C_3
REMARK    3  A    between atoms: C_3  and  N_4
REMARK    4  A    between atoms: C_3  and  C_20
REMARK    5  A    between atoms: N_4  and  C_5
REMARK    6  A    between atoms: C_5  and  C_6
REMARK    7  A    between atoms: C_9  and  C_10
REMARK    8  A    between atoms: C_10  and  N_11
REMARK    9  A    between atoms: N_11  and  C_12
REMARK   10  A    between atoms: C_12  and  C_13
REMARK                            x       y       z     vdW  Elec       q    Type
REMARK                         _______ _______ _______ _____ _____    ______ ____
ROOT
ATOM      1  C   UNL     1      48.357   7.112  12.558  0.00  0.00    +0.000 C 
ENDROOT
BRANCH   1   2
ATOM      2  C   UNL     1      46.992   6.471  12.677  0.00  0.00    +0.000 A 
ATOM      3  C   UNL     1      46.795   5.281  13.391  0.00  0.00    +0.000 A 
ATOM      4  C   UNL     1      45.524   4.698  13.451  0.00  0.00    +0.000 A 
ATOM      5  C   UNL     1      44.429   5.299  12.820  0.00  0.00    +0.000 A 
ATOM      6  C   UNL     1      44.623   6.496  12.124  0.00  0.00    +0.000 A 
ATOM      7  C   UNL     1      45.891   7.075  12.053  0.00  0.00    +0.000 A 
BRANCH   5   8
ATOM      8  C   UNL     1      43.063   4.659  12.861  0.00  0.00    +0.000 C 
BRANCH   8   9
ATOM      9  N   UNL     1      42.708   4.099  11.560  0.00  0.00    +0.000 NA
ATOM     10  H   UNL     1      42.958   4.785  10.849  0.00  0.00    +0.000 HD
BRANCH   9  11
ATOM     11  C   UNL     1      43.458   2.872  11.312  0.00  0.00    +0.000 C 
BRANCH  11  12
ATOM     12  C   UNL     1      44.237   3.002  10.057  0.00  0.00    +0.000 A 
ATOM     13  C   UNL     1      44.458   4.069   9.213  0.00  0.00    +0.000 A 
ATOM     14  C   UNL     1      45.283   3.557   8.197  0.00  0.00    +0.000 A 
ATOM     15  N   UNL     1      45.580   2.268   8.379  0.00  0.00    +0.000 NA
ATOM     16  N   UNL     1      44.939   1.958   9.521  0.00  0.00    +0.000 N 
ATOM     17  H   UNL     1      44.995   1.008   9.879  0.00  0.00    +0.000 HD
ENDBRANCH  11  12
ENDBRANCH   9  11
ENDBRANCH   8   9
ENDBRANCH   5   8
ENDBRANCH   1   2
BRANCH   1  18
ATOM     18  N   UNL     1      49.257   6.635  13.607  0.00  0.00    +0.000 NA
ATOM     19  H   UNL     1      48.851   5.794  14.015  0.00  0.00    +0.000 HD
BRANCH  18  20
ATOM     20  C   UNL     1      49.467   7.608  14.691  0.00  0.00    +0.000 C 
BRANCH  20  21
ATOM     21  C   UNL     1      50.620   7.099  15.549  0.00  0.00    +0.000 A 
ATOM     22  C   UNL     1      51.933   7.545  15.464  0.00  0.00    +0.000 A 
ATOM     23  S   UNL     1      52.979   6.807  16.594  0.00  0.00    +0.000 S 
ATOM     24  C   UNL     1      51.708   5.889  17.257  0.00  0.00    +0.000 A 
ATOM     25  N   UNL     1      51.914   5.067  18.321  0.00  0.00    +0.000 NA
ATOM     26  C   UNL     1      50.849   4.468  18.739  0.00  0.00    +0.000 A 
ATOM     27  N   UNL     1      49.605   4.593  18.174  0.00  0.00    +0.000 N 
ATOM     28  C   UNL     1      49.364   5.350  17.050  0.00  0.00    +0.000 A 
ATOM     29  O   UNL     1      48.269   5.350  16.498  0.00  0.00    +0.000 OA
ATOM     30  C   UNL     1      50.515   6.106  16.592  0.00  0.00    +0.000 A 
ATOM     31  H   UNL     1      48.823   4.062  18.528  0.00  0.00    +0.000 HD
ENDBRANCH  20  21
BRANCH  20  33
ATOM     32  C   UNL     1      49.149  10.158  15.100  0.00  0.00    +0.000 C 
ATOM     33  C   UNL     1      49.710   9.057  14.203  0.00  0.00    +0.000 C 
ENDBRANCH  20  33
ENDBRANCH  18  20
ENDBRANCH   1  18
TORSDOF 9
ENDMDL
MODEL 6
REMARK VINA RESULT:    -6.893      2.502      3.345
REMARK INTER + INTRA:         -11.562
REMARK INTER:                  -9.899
REMARK INTRA:                  -1.663
REMARK UNBOUND:                -1.043
REMARK  Name = 
REMARK  10 active torsions:
REMARK  status: ('A' for Active; 'I' for Inactive)
REMARK    1  A    between atoms: C_1  and  C_2
REMARK    2  A    between atoms: C_2  and  C_3
REMARK    3  A    between atoms: C_3  and  N_4
REMARK    4  A    between atoms: C_3  and  C_20
REMARK    5  A    between atoms: N_4  and  C_5
REMARK    6  A    between atoms: C_5  and  C_6
REMARK    7  A    between atoms: C_9  and  C_10
REMARK    8  A    between atoms: C_10  and  N_11
REMARK    9  A    between atoms: N_11  and  C_12
REMARK   10  A    between atoms: C_12  and  C_13
REMARK                            x       y       z     vdW  Elec       q    Type
REMARK                         _______ _______ _______ _____ _____    ______ ____
ROOT
ATOM      1  C   UNL     1      49.612   8.039  13.588  0.00  0.00    +0.000 C 
ENDROOT
BRANCH   1   2
ATOM      2  C   UNL     1      48.210   7.801  13.071  0.00  0.00    +0.000 A 
ATOM      3  C   UNL     1      47.913   6.738  12.209  0.00  0.00    +0.000 A 
ATOM      4  C   UNL     1      46.611   6.568  11.724  0.00  0.00    +0.000 A 
ATOM      5  C   UNL     1      45.585   7.439  12.104  0.00  0.00    +0.000 A 
ATOM      6  C   UNL     1      45.879   8.489  12.980  0.00  0.00    +0.000 A 
ATOM      7  C   UNL     1      47.178   8.667  13.458  0.00  0.00    +0.000 A 
BRANCH   5   8
ATOM      8  C   UNL     1      44.186   7.275  11.562  0.00  0.00    +0.000 C 
BRANCH   8   9
ATOM      9  N   UNL     1      43.464   6.232  12.286  0.00  0.00    +0.000 NA
ATOM     10  H   UNL     1      42.813   6.689  12.922  0.00  0.00    +0.000 HD
BRANCH   9  11
ATOM     11  C   UNL     1      42.707   5.398  11.358  0.00  0.00    +0.000 C 
BRANCH  11  12
ATOM     12  C   UNL     1      43.628   4.498  10.624  0.00  0.00    +0.000 A 
ATOM     13  C   UNL     1      44.332   3.379  11.013  0.00  0.00    +0.000 A 
ATOM     14  C   UNL     1      45.023   2.971   9.859  0.00  0.00    +0.000 A 
ATOM     15  N   UNL     1      44.773   3.757   8.808  0.00  0.00    +0.000 NA
ATOM     16  N   UNL     1      43.916   4.670   9.298  0.00  0.00    +0.000 N 
ATOM     17  H   UNL     1      43.574   5.408   8.687  0.00  0.00    +0.000 HD
ENDBRANCH  11  12
ENDBRANCH   9  11
ENDBRANCH   8   9
ENDBRANCH   5   8
ENDBRANCH   1   2
BRANCH   1  18
ATOM     18  N   UNL     1      49.930   7.132  14.690  0.00  0.00    +0.000 NA
ATOM     19  H   UNL     1      49.702   6.183  14.396  0.00  0.00    +0.000 HD
BRANCH  18  20
ATOM     20  C   UNL     1      49.178   7.416  15.923  0.00  0.00    +0.000 C 
BRANCH  20  21
ATOM     21  C   UNL     1      49.452   6.278  16.900  0.00  0.00    +0.000 A 
ATOM     22  C   UNL     1      50.406   6.307  17.909  0.00  0.00    +0.000 A 
ATOM     23  S   UNL     1      50.435   4.891  18.862  0.00  0.00    +0.000 S 
ATOM     24  C   UNL     1      49.153   4.203  17.980  0.00  0.00    +0.000 A 
ATOM     25  N   UNL     1      48.636   2.991  18.319  0.00  0.00    +0.000 NA
ATOM     26  C   UNL     1      47.640   2.618  17.585  0.00  0.00    +0.000 A 
ATOM     27  N   UNL     1      47.134   3.330  16.528  0.00  0.00    +0.000 N 
ATOM     28  C   UNL     1      47.674   4.522  16.099  0.00  0.00    +0.000 A 
ATOM     29  O   UNL     1      47.277   5.077  15.081  0.00  0.00    +0.000 OA
ATOM     30  C   UNL     1      48.744   5.021  16.943  0.00  0.00    +0.000 A 
ATOM     31  H   UNL     1      46.380   2.958  15.970  0.00  0.00    +0.000 HD
ENDBRANCH  20  21
BRANCH  20  33
ATOM     32  C   UNL     1      48.276   9.581  17.050  0.00  0.00    +0.000 C 
ATOM     33  C   UNL     1      49.488   8.798  16.549  0.00  0.00    +0.000 C 
ENDBRANCH  20  33
ENDBRANCH  18  20
ENDBRANCH   1  18
TORSDOF 9
ENDMDL
MODEL 7
REMARK VINA RESULT:    -6.853      2.379      3.384
REMARK INTER + INTRA:         -11.501
REMARK INTER:                 -10.886
REMARK INTRA:                  -0.614
REMARK UNBOUND:                -1.043
REMARK  Name = 
REMARK  10 active torsions:
REMARK  status: ('A' for Active; 'I' for Inactive)
REMARK    1  A    between atoms: C_1  and  C_2
REMARK    2  A    between atoms: C_2  and  C_3
REMARK    3  A    between atoms: C_3  and  N_4
REMARK    4  A    between atoms: C_3  and  C_20
REMARK    5  A    between atoms: N_4  and  C_5
REMARK    6  A    between atoms: C_5  and  C_6
REMARK    7  A    between atoms: C_9  and  C_10
REMARK    8  A    between atoms: C_10  and  N_11
REMARK    9  A    between atoms: N_11  and  C_12
REMARK   10  A    between atoms: C_12  and  C_13
REMARK                            x       y       z     vdW  Elec       q    Type
REMARK                         _______ _______ _______ _____ _____    ______ ____
ROOT
ATOM      1  C   UNL     1      47.935   7.262  13.628  0.00  0.00    +0.000 C 
ENDROOT
BRANCH   1   2
ATOM      2  C   UNL     1      46.987   6.338  12.894  0.00  0.00    +0.000 A 
ATOM      3  C   UNL     1      46.485   5.174  13.490  0.00  0.00    +0.000 A 
ATOM      4  C   UNL     1      45.637   4.325  12.770  0.00  0.00    +0.000 A 
ATOM      5  C   UNL     1      45.262   4.630  11.457  0.00  0.00    +0.000 A 
ATOM      6  C   UNL     1      45.749   5.803  10.870  0.00  0.00    +0.000 A 
ATOM      7  C   UNL     1      46.603   6.647  11.582  0.00  0.00    +0.000 A 
BRANCH   5   8
ATOM      8  C   UNL     1      44.369   3.703  10.669  0.00  0.00    +0.000 C 
BRANCH   8   9
ATOM      9  N   UNL     1      45.060   2.456  10.353  0.00  0.00    +0.000 NA
ATOM     10  H   UNL     1      44.737   1.748  11.010  0.00  0.00    +0.000 HD
BRANCH   9  11
ATOM     11  C   UNL     1      44.734   2.021   8.998  0.00  0.00    +0.000 C 
BRANCH  11  12
ATOM     12  C   UNL     1      45.942   2.096   8.141  0.00  0.00    +0.000 A 
ATOM     13  C   UNL     1      46.568   3.154   7.518  0.00  0.00    +0.000 A 
ATOM     14  C   UNL     1      47.666   2.578   6.856  0.00  0.00    +0.000 A 
ATOM     15  N   UNL     1      47.748   1.259   7.048  0.00  0.00    +0.000 NA
ATOM     16  N   UNL     1      46.694   0.994   7.840  0.00  0.00    +0.000 N 
ATOM     17  H   UNL     1      46.518   0.034   8.127  0.00  0.00    +0.000 HD
ENDBRANCH  11  12
ENDBRANCH   9  11
ENDBRANCH   8   9
ENDBRANCH   5   8
ENDBRANCH   1   2
BRANCH   1  18
ATOM     18  N   UNL     1      48.237   6.755  14.965  0.00  0.00    +0.000 NA
ATOM     19  H   UNL     1      47.357   6.631  15.464  0.00  0.00    +0.000 HD
BRANCH  18  20
ATOM     20  C   UNL     1      49.084   7.659  15.761  0.00  0.00    +0.000 C 
BRANCH  20  21
ATOM     21  C   UNL     1      48.672   7.508  17.221  0.00  0.00    +0.000 A 
ATOM     22  C   UNL     1      48.104   8.512  17.996  0.00  0.00    +0.000 A 
ATOM     23  S   UNL     1      47.715   8.013  19.581  0.00  0.00    +0.000 S 
ATOM     24  C   UNL     1      48.261   6.430  19.278  0.00  0.00    +0.000 A 
ATOM     25  N   UNL     1      48.160   5.457  20.224  0.00  0.00    +0.000 NA
ATOM     26  C   UNL     1      48.578   4.298  19.835  0.00  0.00    +0.000 A 
ATOM     27  N   UNL     1      49.113   4.029  18.601  0.00  0.00    +0.000 N 
ATOM     28  C   UNL     1      49.309   4.997  17.642  0.00  0.00    +0.000 A 
ATOM     29  O   UNL     1      49.896   4.753  16.594  0.00  0.00    +0.000 OA
ATOM     30  C   UNL     1      48.780   6.299  18.003  0.00  0.00    +0.000 A 
ATOM     31  H   UNL     1      49.459   3.107  18.380  0.00  0.00    +0.000 HD
ENDBRANCH  20  21
BRANCH  20  33
ATOM     32  C   UNL     1      51.290   8.385  14.588  0.00  0.00    +0.000 C 
ATOM     33  C   UNL     1      50.604   7.435  15.567  0.00  0.00    +0.000 C 
ENDBRANCH  20  33
ENDBRANCH  18  20
ENDBRANCH   1  18
TORSDOF 9
ENDMDL
MODEL 8
REMARK VINA RESULT:    -6.826      2.696      3.565
REMARK INTER + INTRA:         -11.460
REMARK INTER:                 -10.340
REMARK INTRA:                  -1.119
REMARK UNBOUND:                -1.043
REMARK  Name = 
REMARK  10 active torsions:
REMARK  status: ('A' for Active; 'I' for Inactive)
REMARK    1  A    between atoms: C_1  and  C_2
REMARK    2  A    between atoms: C_2  and  C_3
REMARK    3  A    between atoms: C_3  and  N_4
REMARK    4  A    between atoms: C_3  and  C_20
REMARK    5  A    between atoms: N_4  and  C_5
REMARK    6  A    between atoms: C_5  and  C_6
REMARK    7  A    between atoms: C_9  and  C_10
REMARK    8  A    between atoms: C_10  and  N_11
REMARK    9  A    between atoms: N_11  and  C_12
REMARK   10  A    between atoms: C_12  and  C_13
REMARK                            x       y       z     vdW  Elec       q    Type
REMARK                         _______ _______ _______ _____ _____    ______ ____
ROOT
ATOM      1  C   UNL     1      48.129   5.963  14.023  0.00  0.00    +0.000 C 
ENDROOT
BRANCH   1   2
ATOM      2  C   UNL     1      46.996   5.637  13.074  0.00  0.00    +0.000 A 
ATOM      3  C   UNL     1      46.146   4.545  13.289  0.00  0.00    +0.000 A 
ATOM      4  C   UNL     1      45.129   4.254  12.372  0.00  0.00    +0.000 A 
ATOM      5  C   UNL     1      44.932   5.055  11.242  0.00  0.00    +0.000 A 
ATOM      6  C   UNL     1      45.770   6.156  11.039  0.00  0.00    +0.000 A 
ATOM      7  C   UNL     1      46.791   6.443  11.946  0.00  0.00    +0.000 A 
BRANCH   5   8
ATOM      8  C   UNL     1      43.854   4.729  10.237  0.00  0.00    +0.000 C 
BRANCH   8   9
ATOM      9  N   UNL     1      44.434   4.361   8.948  0.00  0.00    +0.000 NA
ATOM     10  H   UNL     1      45.370   4.758   8.905  0.00  0.00    +0.000 HD
BRANCH   9  11
ATOM     11  C   UNL     1      44.534   2.910   8.830  0.00  0.00    +0.000 C 
BRANCH  11  12
ATOM     12  C   UNL     1      45.786   2.547   8.123  0.00  0.00    +0.000 A 
ATOM     13  C   UNL     1      46.419   1.339   7.927  0.00  0.00    +0.000 A 
ATOM     14  C   UNL     1      47.564   1.653   7.175  0.00  0.00    +0.000 A 
ATOM     15  N   UNL     1      47.653   2.956   6.897  0.00  0.00    +0.000 NA
ATOM     16  N   UNL     1      46.556   3.474   7.477  0.00  0.00    +0.000 N 
ATOM     17  H   UNL     1      46.392   4.477   7.422  0.00  0.00    +0.000 HD
ENDBRANCH  11  12
ENDBRANCH   9  11
ENDBRANCH   8   9
ENDBRANCH   5   8
ENDBRANCH   1   2
BRANCH   1  18
ATOM     18  N   UNL     1      47.651   6.061  15.402  0.00  0.00    +0.000 NA
ATOM     19  H   UNL     1      47.853   7.001  15.741  0.00  0.00    +0.000 HD
BRANCH  18  20
ATOM     20  C   UNL     1      48.289   5.102  16.317  0.00  0.00    +0.000 C 
BRANCH  20  21
ATOM     21  C   UNL     1      48.313   5.736  17.704  0.00  0.00    +0.000 A 
ATOM     22  C   UNL     1      47.378   5.501  18.704  0.00  0.00    +0.000 A 
ATOM     23  S   UNL     1      47.711   6.331  20.158  0.00  0.00    +0.000 S 
ATOM     24  C   UNL     1      49.133   7.008  19.513  0.00  0.00    +0.000 A 
ATOM     25  N   UNL     1      49.944   7.796  20.270  0.00  0.00    +0.000 NA
ATOM     26  C   UNL     1      51.006   8.201  19.658  0.00  0.00    +0.000 A 
ATOM     27  N   UNL     1      51.317   7.918  18.352  0.00  0.00    +0.000 N 
ATOM     28  C   UNL     1      50.490   7.192  17.525  0.00  0.00    +0.000 A 
ATOM     29  O   UNL     1      50.736   7.053  16.332  0.00  0.00    +0.000 OA
ATOM     30  C   UNL     1      49.323   6.646  18.192  0.00  0.00    +0.000 A 
ATOM     31  H   UNL     1      52.146   8.304  17.925  0.00  0.00    +0.000 HD
ENDBRANCH  20  21
BRANCH  20  33
ATOM     32  C   UNL     1      48.537   2.542  16.715  0.00  0.00    +0.000 C 
ATOM     33  C   UNL     1      47.622   3.705  16.336  0.00  0.00    +0.000 C 
ENDBRANCH  20  33
ENDBRANCH  18  20
ENDBRANCH   1  18
TORSDOF 9
ENDMDL
MODEL 9
REMARK VINA RESULT:    -6.713      3.300      4.688
REMARK INTER + INTRA:         -11.288
REMARK INTER:                  -9.925
REMARK INTRA:                  -1.364
REMARK UNBOUND:                -1.043
REMARK  Name = 
REMARK  10 active torsions:
REMARK  status: ('A' for Active; 'I' for Inactive)
REMARK    1  A    between atoms: C_1  and  C_2
REMARK    2  A    between atoms: C_2  and  C_3
REMARK    3  A    between atoms: C_3  and  N_4
REMARK    4  A    between atoms: C_3  and  C_20
REMARK    5  A    between atoms: N_4  and  C_5
REMARK    6  A    between atoms: C_5  and  C_6
REMARK    7  A    between atoms: C_9  and  C_10
REMARK    8  A    between atoms: C_10  and  N_11
REMARK    9  A    between atoms: N_11  and  C_12
REMARK   10  A    between atoms: C_12  and  C_13
REMARK                            x       y       z     vdW  Elec       q    Type
REMARK                         _______ _______ _______ _____ _____    ______ ____
ROOT
ATOM      1  C   UNL     1      48.590   7.158  12.732  0.00  0.00    +0.000 C 
ENDROOT
BRANCH   1   2
ATOM      2  C   UNL     1      47.195   6.580  12.828  0.00  0.00    +0.000 A 
ATOM      3  C   UNL     1      46.936   5.394  13.526  0.00  0.00    +0.000 A 
ATOM      4  C   UNL     1      45.638   4.869  13.565  0.00  0.00    +0.000 A 
ATOM      5  C   UNL     1      44.580   5.527  12.930  0.00  0.00    +0.000 A 
ATOM      6  C   UNL     1      44.837   6.722  12.250  0.00  0.00    +0.000 A 
ATOM      7  C   UNL     1      46.131   7.242  12.200  0.00  0.00    +0.000 A 
BRANCH   5   8
ATOM      8  C   UNL     1      43.185   4.951  12.949  0.00  0.00    +0.000 C 
BRANCH   8   9
ATOM      9  N   UNL     1      42.812   4.441  11.632  0.00  0.00    +0.000 NA
ATOM     10  H   UNL     1      43.168   5.093  10.935  0.00  0.00    +0.000 HD
BRANCH   9  11
ATOM     11  C   UNL     1      43.417   3.133  11.402  0.00  0.00    +0.000 C 
BRANCH  11  12
ATOM     12  C   UNL     1      44.195   3.152  10.140  0.00  0.00    +0.000 A 
ATOM     13  C   UNL     1      44.459   4.155   9.232  0.00  0.00    +0.000 A 
ATOM     14  C   UNL     1      45.256   3.546   8.248  0.00  0.00    +0.000 A 
ATOM     15  N   UNL     1      45.497   2.259   8.508  0.00  0.00    +0.000 NA
ATOM     16  N   UNL     1      44.849   2.048   9.667  0.00  0.00    +0.000 N 
ATOM     17  H   UNL     1      44.865   1.119  10.083  0.00  0.00    +0.000 HD
ENDBRANCH  11  12
ENDBRANCH   9  11
ENDBRANCH   8   9
ENDBRANCH   5   8
ENDBRANCH   1   2
BRANCH   1  18
ATOM     18  N   UNL     1      49.456   6.626  13.783  0.00  0.00    +0.000 NA
ATOM     19  H   UNL     1      48.965   5.858  14.240  0.00  0.00    +0.000 HD
BRANCH  18  20
ATOM     20  C   UNL     1      49.809   7.615  14.814  0.00  0.00    +0.000 C 
BRANCH  20  21
ATOM     21  C   UNL     1      49.240   7.120  16.140  0.00  0.00    +0.000 A 
ATOM     22  C   UNL     1      49.307   5.809  16.596  0.00  0.00    +0.000 A 
ATOM     23  S   UNL     1      48.614   5.587  18.140  0.00  0.00    +0.000 S 
ATOM     24  C   UNL     1      48.228   7.240  18.267  0.00  0.00    +0.000 A 
ATOM     25  N   UNL     1      47.652   7.744  19.392  0.00  0.00    +0.000 NA
ATOM     26  C   UNL     1      47.457   9.020  19.358  0.00  0.00    +0.000 A 
ATOM     27  N   UNL     1      47.755   9.833  18.294  0.00  0.00    +0.000 N 
ATOM     28  C   UNL     1      48.265   9.357  17.107  0.00  0.00    +0.000 A 
ATOM     29  O   UNL     1      48.412  10.086  16.132  0.00  0.00    +0.000 OA
ATOM     30  C   UNL     1      48.577   7.940  17.127  0.00  0.00    +0.000 A 
ATOM     31  H   UNL     1      47.537  10.817  18.321  0.00  0.00    +0.000 HD
ENDBRANCH  20  21
BRANCH  20  33
ATOM     32  C   UNL     1      51.788   8.542  16.226  0.00  0.00    +0.000 C 
ATOM     33  C   UNL     1      51.325   7.910  14.915  0.00  0.00    +0.000 C 
ENDBRANCH  20  33
ENDBRANCH  18  20
ENDBRANCH   1  18
TORSDOF 9
ENDMDL
