MODEL 1
REMARK VINA RESULT:    -7.844      0.000      0.000
REMARK INTER + INTRA:         -11.638
REMARK INTER:                 -10.824
REMARK INTRA:                  -0.813
REMARK UNBOUND:                -0.813
REMARK  Name = 
REMARK  7 active torsions:
REMARK  status: ('A' for Active; 'I' for Inactive)
REMARK    1  A    between atoms: N_1  and  C_2
REMARK    2  A    between atoms: C_2  and  C_3
REMARK    3  A    between atoms: C_6  and  O_7
REMARK    4  A    between atoms: O_7  and  C_8
REMARK    5  A    between atoms: C_8  and  C_9
REMARK    6  A    between atoms: C_9  and  C_10
REMARK    7  A    between atoms: C_13  and  C_14
REMARK                            x       y       z     vdW  Elec       q    Type
REMARK                         _______ _______ _______ _____ _____    ______ ____
ROOT
ATOM      1  C   UNL     1      43.586   3.018  12.128  0.00  0.00    +0.000 C 
ENDROOT
BRANCH   1   2
ATOM      2  O   UNL     1      43.773   3.876  13.257  0.00  0.00    +0.000 OA
BRANCH   2   6
ATOM      3  C   UNL     1      47.040   6.484  13.014  0.00  0.00    +0.000 A 
ATOM      4  C   UNL     1      45.750   6.985  12.799  0.00  0.00    +0.000 A 
ATOM      5  C   UNL     1      44.633   6.147  12.868  0.00  0.00    +0.000 A 
ATOM      6  C   UNL     1      44.788   4.791  13.152  0.00  0.00    +0.000 A 
ATOM      7  C   UNL     1      46.073   4.282  13.354  0.00  0.00    +0.000 A 
ATOM      8  C   UNL     1      47.193   5.118  13.287  0.00  0.00    +0.000 A 
BRANCH   3   9
ATOM      9  C   UNL     1      48.229   7.406  12.945  0.00  0.00    +0.000 C 
BRANCH   9  10
ATOM     10  N   UNL     1      49.477   6.655  12.859  0.00  0.00    +0.000 NA
ATOM     11  H   UNL     1      49.284   5.722  12.504  0.00  0.00    +0.000 HD
ATOM     12  H   UNL     1      49.853   6.538  13.799  0.00  0.00    +0.000 HD
ENDBRANCH   9  10
ENDBRANCH   3   9
ENDBRANCH   2   6
ENDBRANCH   1   2
BRANCH   1  13
ATOM     13  C   UNL     1      43.407   3.874  10.877  0.00  0.00    +0.000 C 
BRANCH  13  14
ATOM     14  C   UNL     1      44.374   3.469   9.791  0.00  0.00    +0.000 A 
ATOM     15  C   UNL     1      45.019   4.443   9.019  0.00  0.00    +0.000 A 
ATOM     16  C   UNL     1      45.904   4.070   8.003  0.00  0.00    +0.000 A 
ATOM     17  C   UNL     1      46.156   2.717   7.737  0.00  0.00    +0.000 A 
ATOM     18  C   UNL     1      45.494   1.744   8.503  0.00  0.00    +0.000 A 
ATOM     19  C   UNL     1      44.610   2.116   9.517  0.00  0.00    +0.000 A 
BRANCH  17  20
ATOM     20  C   UNL     1      47.120   2.298   6.655  0.00  0.00    +0.000 C 
ATOM     21  F   UNL     1      48.397   2.722   6.868  0.00  0.00    +0.000 F 
ATOM     22  F   UNL     1      47.195   0.944   6.521  0.00  0.00    +0.000 F 
ATOM     23  F   UNL     1      46.768   2.775   5.429  0.00  0.00    +0.000 F 
ENDBRANCH  17  20
ENDBRANCH  13  14
ENDBRANCH   1  13
TORSDOF 7
ENDMDL
MODEL 2
REMARK VINA RESULT:    -7.761      0.827      1.913
REMARK INTER + INTRA:         -11.523
REMARK INTER:                 -10.459
REMARK INTRA:                  -1.064
REMARK UNBOUND:                -0.813
REMARK  Name = 
REMARK  7 active torsions:
REMARK  status: ('A' for Active; 'I' for Inactive)
REMARK    1  A    between atoms: N_1  and  C_2
REMARK    2  A    between atoms: C_2  and  C_3
REMARK    3  A    between atoms: C_6  and  O_7
REMARK    4  A    between atoms: O_7  and  C_8
REMARK    5  A    between atoms: C_8  and  C_9
REMARK    6  A    between atoms: C_9  and  C_10
REMARK    7  A    between atoms: C_13  and  C_14
REMARK                            x       y       z     vdW  Elec       q    Type
REMARK                         _______ _______ _______ _____ _____    ______ ____
ROOT
ATOM      1  C   UNL     1      43.139   5.154  11.098  0.00  0.00    +0.000 C 
ENDROOT
BRANCH   1   2
ATOM      2  O   UNL     1      43.519   5.697  12.365  0.00  0.00    +0.000 OA
BRANCH   2   6
ATOM      3  C   UNL     1      47.601   6.566  12.700  0.00  0.00    +0.000 A 
ATOM      4  C   UNL     1      47.049   5.565  13.508  0.00  0.00    +0.000 A 
ATOM      5  C   UNL     1      45.689   5.247  13.430  0.00  0.00    +0.000 A 
ATOM      6  C   UNL     1      44.859   5.927  12.540  0.00  0.00    +0.000 A 
ATOM      7  C   UNL     1      45.401   6.936  11.741  0.00  0.00    +0.000 A 
ATOM      8  C   UNL     1      46.761   7.255  11.816  0.00  0.00    +0.000 A 
BRANCH   3   9
ATOM      9  C   UNL     1      49.070   6.886  12.793  0.00  0.00    +0.000 C 
BRANCH   9  10
ATOM     10  N   UNL     1      49.560   6.727  14.158  0.00  0.00    +0.000 NA
ATOM     11  H   UNL     1      48.832   7.007  14.811  0.00  0.00    +0.000 HD
ATOM     12  H   UNL     1      50.342   7.365  14.300  0.00  0.00    +0.000 HD
ENDBRANCH   9  10
ENDBRANCH   3   9
ENDBRANCH   2   6
ENDBRANCH   1   2
BRANCH   1  13
ATOM     13  C   UNL     1      43.490   3.669  11.066  0.00  0.00    +0.000 C 
BRANCH  13  14
ATOM     14  C   UNL     1      44.400   3.344   9.906  0.00  0.00    +0.000 A 
ATOM     15  C   UNL     1      44.714   2.013   9.605  0.00  0.00    +0.000 A 
ATOM     16  C   UNL     1      45.567   1.710   8.540  0.00  0.00    +0.000 A 
ATOM     17  C   UNL     1      46.126   2.732   7.760  0.00  0.00    +0.000 A 
ATOM     18  C   UNL     1      45.822   4.066   8.076  0.00  0.00    +0.000 A 
ATOM     19  C   UNL     1      44.970   4.369   9.140  0.00  0.00    +0.000 A 
BRANCH  17  20
ATOM     20  C   UNL     1      47.036   2.422   6.597  0.00  0.00    +0.000 C 
ATOM     21  F   UNL     1      47.071   1.100   6.269  0.00  0.00    +0.000 F 
ATOM     22  F   UNL     1      46.670   3.078   5.461  0.00  0.00    +0.000 F 
ATOM     23  F   UNL     1      48.328   2.780   6.836  0.00  0.00    +0.000 F 
ENDBRANCH  17  20
ENDBRANCH  13  14
ENDBRANCH   1  13
TORSDOF 7
ENDMDL
MODEL 3
REMARK VINA RESULT:    -7.568      3.584      6.014
REMARK INTER + INTRA:         -11.257
REMARK INTER:                 -10.127
REMARK INTRA:                  -1.130
REMARK UNBOUND:                -0.813
REMARK  Name = 
REMARK  7 active torsions:
REMARK  status: ('A' for Active; 'I' for Inactive)
REMARK    1  A    between atoms: N_1  and  C_2
REMARK    2  A    between atoms: C_2  and  C_3
REMARK    3  A    between atoms: C_6  and  O_7
REMARK    4  A    between atoms: O_7  and  C_8
REMARK    5  A    between atoms: C_8  and  C_9
REMARK    6  A    between atoms: C_9  and  C_10
REMARK    7  A    between atoms: C_13  and  C_14
REMARK                            x       y       z     vdW  Elec       q    Type
REMARK                         _______ _______ _______ _____ _____    ______ ____
ROOT
ATOM      1  C   UNL     1      43.446   2.937  11.856  0.00  0.00    +0.000 C 
ENDROOT
BRANCH   1   2
ATOM      2  O   UNL     1      43.316   3.525  10.559  0.00  0.00    +0.000 OA
BRANCH   2   6
ATOM      3  C   UNL     1      46.396   2.925   7.787  0.00  0.00    +0.000 A 
ATOM      4  C   UNL     1      45.814   1.814   8.410  0.00  0.00    +0.000 A 
ATOM      5  C   UNL     1      44.785   1.971   9.344  0.00  0.00    +0.000 A 
ATOM      6  C   UNL     1      44.322   3.246   9.671  0.00  0.00    +0.000 A 
ATOM      7  C   UNL     1      44.908   4.358   9.064  0.00  0.00    +0.000 A 
ATOM      8  C   UNL     1      45.937   4.203   8.128  0.00  0.00    +0.000 A 
BRANCH   3   9
ATOM      9  C   UNL     1      47.496   2.732   6.777  0.00  0.00    +0.000 C 
BRANCH   9  10
ATOM     10  N   UNL     1      47.958   1.349   6.755  0.00  0.00    +0.000 NA
ATOM     11  H   UNL     1      48.012   0.997   7.708  0.00  0.00    +0.000 HD
ATOM     12  H   UNL     1      48.905   1.326   6.380  0.00  0.00    +0.000 HD
ENDBRANCH   9  10
ENDBRANCH   3   9
ENDBRANCH   2   6
ENDBRANCH   1   2
BRANCH   1  13
ATOM     13  C   UNL     1      43.415   4.042  12.909  0.00  0.00    +0.000 C 
BRANCH  13  14
ATOM     14  C   UNL     1      44.652   4.904  12.838  0.00  0.00    +0.000 A 
ATOM     15  C   UNL     1      44.565   6.234  12.409  0.00  0.00    +0.000 A 
ATOM     16  C   UNL     1      45.711   7.030  12.330  0.00  0.00    +0.000 A 
ATOM     17  C   UNL     1      46.967   6.509  12.673  0.00  0.00    +0.000 A 
ATOM     18  C   UNL     1      47.052   5.170  13.087  0.00  0.00    +0.000 A 
ATOM     19  C   UNL     1      45.907   4.375  13.165  0.00  0.00    +0.000 A 
BRANCH  17  20
ATOM     20  C   UNL     1      48.212   7.359  12.608  0.00  0.00    +0.000 C 
ATOM     21  F   UNL     1      48.279   8.144  11.496  0.00  0.00    +0.000 F 
ATOM     22  F   UNL     1      48.319   8.206  13.669  0.00  0.00    +0.000 F 
ATOM     23  F   UNL     1      49.352   6.614  12.607  0.00  0.00    +0.000 F 
ENDBRANCH  17  20
ENDBRANCH  13  14
ENDBRANCH   1  13
TORSDOF 7
ENDMDL
MODEL 4
REMARK VINA RESULT:    -7.277      3.544      6.014
REMARK INTER + INTRA:         -10.855
REMARK INTER:                  -9.787
REMARK INTRA:                  -1.068
REMARK UNBOUND:                -0.813
REMARK  Name = 
REMARK  7 active torsions:
REMARK  status: ('A' for Active; 'I' for Inactive)
REMARK    1  A    between atoms: N_1  and  C_2
REMARK    2  A    between atoms: C_2  and  C_3
REMARK    3  A    between atoms: C_6  and  O_7
REMARK    4  A    between atoms: O_7  and  C_8
REMARK    5  A    between atoms: C_8  and  C_9
REMARK    6  A    between atoms: C_9  and  C_10
REMARK    7  A    between atoms: C_13  and  C_14
REMARK                            x       y       z     vdW  Elec       q    Type
REMARK                         _______ _______ _______ _____ _____    ______ ____
ROOT
ATOM      1  C   UNL     1      43.753   3.080  11.917  0.00  0.00    +0.000 C 
ENDROOT
BRANCH   1   2
ATOM      2  O   UNL     1      43.371   3.374  10.570  0.00  0.00    +0.000 OA
BRANCH   2   6
ATOM      3  C   UNL     1      46.397   2.744   7.746  0.00  0.00    +0.000 A 
ATOM      4  C   UNL     1      45.963   4.051   8.000  0.00  0.00    +0.000 A 
ATOM      5  C   UNL     1      44.952   4.304   8.933  0.00  0.00    +0.000 A 
ATOM      6  C   UNL     1      44.358   3.251   9.627  0.00  0.00    +0.000 A 
ATOM      7  C   UNL     1      44.777   1.944   9.368  0.00  0.00    +0.000 A 
ATOM      8  C   UNL     1      45.788   1.689   8.436  0.00  0.00    +0.000 A 
BRANCH   3   9
ATOM      9  C   UNL     1      47.494   2.496   6.744  0.00  0.00    +0.000 C 
BRANCH   9  10
ATOM     10  N   UNL     1      47.154   3.051   5.439  0.00  0.00    +0.000 NA
ATOM     11  H   UNL     1      47.863   2.778   4.763  0.00  0.00    +0.000 HD
ATOM     12  H   UNL     1      47.183   4.068   5.499  0.00  0.00    +0.000 HD
ENDBRANCH   9  10
ENDBRANCH   3   9
ENDBRANCH   2   6
ENDBRANCH   1   2
BRANCH   1  13
ATOM     13  C   UNL     1      43.619   4.344  12.760  0.00  0.00    +0.000 C 
BRANCH  13  14
ATOM     14  C   UNL     1      44.808   5.257  12.577  0.00  0.00    +0.000 A 
ATOM     15  C   UNL     1      46.049   4.923  13.133  0.00  0.00    +0.000 A 
ATOM     16  C   UNL     1      47.147   5.774  12.976  0.00  0.00    +0.000 A 
ATOM     17  C   UNL     1      47.023   6.975  12.266  0.00  0.00    +0.000 A 
ATOM     18  C   UNL     1      45.773   7.314  11.724  0.00  0.00    +0.000 A 
ATOM     19  C   UNL     1      44.676   6.465  11.880  0.00  0.00    +0.000 A 
BRANCH  17  20
ATOM     20  C   UNL     1      48.202   7.897  12.074  0.00  0.00    +0.000 C 
ATOM     21  F   UNL     1      49.082   7.881  13.114  0.00  0.00    +0.000 F 
ATOM     22  F   UNL     1      48.931   7.586  10.966  0.00  0.00    +0.000 F 
ATOM     23  F   UNL     1      47.829   9.198  11.922  0.00  0.00    +0.000 F 
ENDBRANCH  17  20
ENDBRANCH  13  14
ENDBRANCH   1  13
TORSDOF 7
ENDMDL
MODEL 5
REMARK VINA RESULT:    -7.210      0.920      1.593
REMARK INTER + INTRA:         -10.763
REMARK INTER:                  -9.811
REMARK INTRA:                  -0.952
REMARK UNBOUND:                -0.813
REMARK  Name = 
REMARK  7 active torsions:
REMARK  status: ('A' for Active; 'I' for Inactive)
REMARK    1  A    between atoms: N_1  and  C_2
REMARK    2  A    between atoms: C_2  and  C_3
REMARK    3  A    between atoms: C_6  and  O_7
REMARK    4  A    between atoms: O_7  and  C_8
REMARK    5  A    between atoms: C_8  and  C_9
REMARK    6  A    between atoms: C_9  and  C_10
REMARK    7  A    between atoms: C_13  and  C_14
REMARK                            x       y       z     vdW  Elec       q    Type
REMARK                         _______ _______ _______ _____ _____    ______ ____
ROOT
ATOM      1  C   UNL     1      44.166   4.411  12.279  0.00  0.00    +0.000 C 
ENDROOT
BRANCH   1   2
ATOM      2  O   UNL     1      44.071   5.825  12.474  0.00  0.00    +0.000 OA
BRANCH   2   6
ATOM      3  C   UNL     1      47.796   7.730  12.303  0.00  0.00    +0.000 A 
ATOM      4  C   UNL     1      46.633   8.491  12.138  0.00  0.00    +0.000 A 
ATOM      5  C   UNL     1      45.370   7.893  12.184  0.00  0.00    +0.000 A 
ATOM      6  C   UNL     1      45.250   6.520  12.396  0.00  0.00    +0.000 A 
ATOM      7  C   UNL     1      46.407   5.753  12.548  0.00  0.00    +0.000 A 
ATOM      8  C   UNL     1      47.672   6.349  12.503  0.00  0.00    +0.000 A 
BRANCH   3   9
ATOM      9  C   UNL     1      49.146   8.396  12.258  0.00  0.00    +0.000 C 
BRANCH   9  10
ATOM     10  N   UNL     1      50.215   7.445  12.542  0.00  0.00    +0.000 NA
ATOM     11  H   UNL     1      51.014   7.650  11.947  0.00  0.00    +0.000 HD
ATOM     12  H   UNL     1      49.896   6.510  12.291  0.00  0.00    +0.000 HD
ENDBRANCH   9  10
ENDBRANCH   3   9
ENDBRANCH   2   6
ENDBRANCH   1   2
BRANCH   1  13
ATOM     13  C   UNL     1      43.382   4.028  11.027  0.00  0.00    +0.000 C 
BRANCH  13  14
ATOM     14  C   UNL     1      44.302   3.570   9.920  0.00  0.00    +0.000 A 
ATOM     15  C   UNL     1      44.524   2.204   9.704  0.00  0.00    +0.000 A 
ATOM     16  C   UNL     1      45.386   1.779   8.689  0.00  0.00    +0.000 A 
ATOM     17  C   UNL     1      46.045   2.710   7.876  0.00  0.00    +0.000 A 
ATOM     18  C   UNL     1      45.832   4.079   8.107  0.00  0.00    +0.000 A 
ATOM     19  C   UNL     1      44.972   4.504   9.121  0.00  0.00    +0.000 A 
BRANCH  17  20
ATOM     20  C   UNL     1      46.967   2.268   6.766  0.00  0.00    +0.000 C 
ATOM     21  F   UNL     1      48.262   2.651   6.946  0.00  0.00    +0.000 F 
ATOM     22  F   UNL     1      46.997   0.913   6.624  0.00  0.00    +0.000 F 
ATOM     23  F   UNL     1      46.596   2.762   5.552  0.00  0.00    +0.000 F 
ENDBRANCH  17  20
ENDBRANCH  13  14
ENDBRANCH   1  13
TORSDOF 7
ENDMDL
MODEL 6
REMARK VINA RESULT:    -6.104      3.513      4.251
REMARK INTER + INTRA:          -9.236
REMARK INTER:                  -8.740
REMARK INTRA:                  -0.496
REMARK UNBOUND:                -0.813
REMARK  Name = 
REMARK  7 active torsions:
REMARK  status: ('A' for Active; 'I' for Inactive)
REMARK    1  A    between atoms: N_1  and  C_2
REMARK    2  A    between atoms: C_2  and  C_3
REMARK    3  A    between atoms: C_6  and  O_7
REMARK    4  A    between atoms: O_7  and  C_8
REMARK    5  A    between atoms: C_8  and  C_9
REMARK    6  A    between atoms: C_9  and  C_10
REMARK    7  A    between atoms: C_13  and  C_14
REMARK                            x       y       z     vdW  Elec       q    Type
REMARK                         _______ _______ _______ _____ _____    ______ ____
ROOT
ATOM      1  C   UNL     1      46.323   5.300  13.919  0.00  0.00    +0.000 C 
ENDROOT
BRANCH   1   2
ATOM      2  O   UNL     1      46.638   4.106  14.642  0.00  0.00    +0.000 OA
BRANCH   2   6
ATOM      3  C   UNL     1      48.611   4.420  18.321  0.00  0.00    +0.000 A 
ATOM      4  C   UNL     1      48.736   5.459  17.390  0.00  0.00    +0.000 A 
ATOM      5  C   UNL     1      48.096   5.391  16.148  0.00  0.00    +0.000 A 
ATOM      6  C   UNL     1      47.321   4.281  15.817  0.00  0.00    +0.000 A 
ATOM      7  C   UNL     1      47.203   3.236  16.736  0.00  0.00    +0.000 A 
ATOM      8  C   UNL     1      47.841   3.301  17.980  0.00  0.00    +0.000 A 
BRANCH   3   9
ATOM      9  C   UNL     1      49.301   4.518  19.657  0.00  0.00    +0.000 C 
BRANCH   9  10
ATOM     10  N   UNL     1      48.528   3.855  20.701  0.00  0.00    +0.000 NA
ATOM     11  H   UNL     1      49.105   3.148  21.148  0.00  0.00    +0.000 HD
ATOM     12  H   UNL     1      47.747   3.365  20.268  0.00  0.00    +0.000 HD
ENDBRANCH   9  10
ENDBRANCH   3   9
ENDBRANCH   2   6
ENDBRANCH   1   2
BRANCH   1  13
ATOM     13  C   UNL     1      44.959   5.135  13.255  0.00  0.00    +0.000 C 
BRANCH  13  14
ATOM     14  C   UNL     1      45.097   4.688  11.820  0.00  0.00    +0.000 A 
ATOM     15  C   UNL     1      44.787   3.372  11.455  0.00  0.00    +0.000 A 
ATOM     16  C   UNL     1      44.927   2.952  10.129  0.00  0.00    +0.000 A 
ATOM     17  C   UNL     1      45.385   3.839   9.145  0.00  0.00    +0.000 A 
ATOM     18  C   UNL     1      45.711   5.152   9.518  0.00  0.00    +0.000 A 
ATOM     19  C   UNL     1      45.571   5.572  10.842  0.00  0.00    +0.000 A 
BRANCH  17  20
ATOM     20  C   UNL     1      45.527   3.406   7.706  0.00  0.00    +0.000 C 
ATOM     21  F   UNL     1      46.385   4.182   6.985  0.00  0.00    +0.000 F 
ATOM     22  F   UNL     1      45.992   2.131   7.590  0.00  0.00    +0.000 F 
ATOM     23  F   UNL     1      44.344   3.435   7.033  0.00  0.00    +0.000 F 
ENDBRANCH  17  20
ENDBRANCH  13  14
ENDBRANCH   1  13
TORSDOF 7
ENDMDL
MODEL 7
REMARK VINA RESULT:    -5.892      5.104      7.509
REMARK INTER + INTRA:          -8.944
REMARK INTER:                  -8.032
REMARK INTRA:                  -0.912
REMARK UNBOUND:                -0.813
REMARK  Name = 
REMARK  7 active torsions:
REMARK  status: ('A' for Active; 'I' for Inactive)
REMARK    1  A    between atoms: N_1  and  C_2
REMARK    2  A    between atoms: C_2  and  C_3
REMARK    3  A    between atoms: C_6  and  O_7
REMARK    4  A    between atoms: O_7  and  C_8
REMARK    5  A    between atoms: C_8  and  C_9
REMARK    6  A    between atoms: C_9  and  C_10
REMARK    7  A    between atoms: C_13  and  C_14
REMARK                            x       y       z     vdW  Elec       q    Type
REMARK                         _______ _______ _______ _____ _____    ______ ____
ROOT
ATOM      1  C   UNL     1      46.668   8.093  13.263  0.00  0.00    +0.000 C 
ENDROOT
BRANCH   1   2
ATOM      2  O   UNL     1      45.912   7.978  12.054  0.00  0.00    +0.000 OA
BRANCH   2   6
ATOM      3  C   UNL     1      44.405   4.204  11.043  0.00  0.00    +0.000 A 
ATOM      4  C   UNL     1      43.955   4.827  12.214  0.00  0.00    +0.000 A 
ATOM      5  C   UNL     1      44.436   6.085  12.589  0.00  0.00    +0.000 A 
ATOM      6  C   UNL     1      45.377   6.742  11.798  0.00  0.00    +0.000 A 
ATOM      7  C   UNL     1      45.841   6.120  10.636  0.00  0.00    +0.000 A 
ATOM      8  C   UNL     1      45.361   4.862  10.258  0.00  0.00    +0.000 A 
BRANCH   3   9
ATOM      9  C   UNL     1      43.867   2.853  10.653  0.00  0.00    +0.000 C 
BRANCH   9  10
ATOM     10  N   UNL     1      43.054   2.279  11.719  0.00  0.00    +0.000 NA
ATOM     11  H   UNL     1      42.760   1.343  11.451  0.00  0.00    +0.000 HD
ATOM     12  H   UNL     1      42.206   2.835  11.818  0.00  0.00    +0.000 HD
ENDBRANCH   9  10
ENDBRANCH   3   9
ENDBRANCH   2   6
ENDBRANCH   1   2
BRANCH   1  13
ATOM     13  C   UNL     1      47.880   7.170  13.181  0.00  0.00    +0.000 C 
BRANCH  13  14
ATOM     14  C   UNL     1      47.916   6.204  14.341  0.00  0.00    +0.000 A 
ATOM     15  C   UNL     1      47.195   5.005  14.286  0.00  0.00    +0.000 A 
ATOM     16  C   UNL     1      47.215   4.116  15.364  0.00  0.00    +0.000 A 
ATOM     17  C   UNL     1      47.951   4.412  16.519  0.00  0.00    +0.000 A 
ATOM     18  C   UNL     1      48.659   5.623  16.577  0.00  0.00    +0.000 A 
ATOM     19  C   UNL     1      48.639   6.511  15.500  0.00  0.00    +0.000 A 
BRANCH  17  20
ATOM     20  C   UNL     1      47.996   3.456  17.686  0.00  0.00    +0.000 C 
ATOM     21  F   UNL     1      48.002   4.076  18.899  0.00  0.00    +0.000 F 
ATOM     22  F   UNL     1      46.929   2.609  17.706  0.00  0.00    +0.000 F 
ATOM     23  F   UNL     1      49.103   2.662  17.668  0.00  0.00    +0.000 F 
ENDBRANCH  17  20
ENDBRANCH  13  14
ENDBRANCH   1  13
TORSDOF 7
ENDMDL
MODEL 8
REMARK VINA RESULT:    -5.778      6.286      8.577
REMARK INTER + INTRA:          -8.786
REMARK INTER:                  -8.244
REMARK INTRA:                  -0.543
REMARK UNBOUND:                -0.813
REMARK  Name = 
REMARK  7 active torsions:
REMARK  status: ('A' for Active; 'I' for Inactive)
REMARK    1  A    between atoms: N_1  and  C_2
REMARK    2  A    between atoms: C_2  and  C_3
REMARK    3  A    between atoms: C_6  and  O_7
REMARK    4  A    between atoms: O_7  and  C_8
REMARK    5  A    between atoms: C_8  and  C_9
REMARK    6  A    between atoms: C_9  and  C_10
REMARK    7  A    between atoms: C_13  and  C_14
REMARK                            x       y       z     vdW  Elec       q    Type
REMARK                         _______ _______ _______ _____ _____    ______ ____
ROOT
ATOM      1  C   UNL     1      47.313   4.472  15.710  0.00  0.00    +0.000 C 
ENDROOT
BRANCH   1   2
ATOM      2  O   UNL     1      47.510   3.905  14.411  0.00  0.00    +0.000 OA
BRANCH   2   6
ATOM      3  C   UNL     1      44.496   4.915  11.686  0.00  0.00    +0.000 A 
ATOM      4  C   UNL     1      44.861   3.571  11.831  0.00  0.00    +0.000 A 
ATOM      5  C   UNL     1      45.865   3.192  12.727  0.00  0.00    +0.000 A 
ATOM      6  C   UNL     1      46.522   4.154  13.494  0.00  0.00    +0.000 A 
ATOM      7  C   UNL     1      46.172   5.498  13.344  0.00  0.00    +0.000 A 
ATOM      8  C   UNL     1      45.167   5.879  12.448  0.00  0.00    +0.000 A 
BRANCH   3   9
ATOM      9  C   UNL     1      43.405   5.300  10.721  0.00  0.00    +0.000 C 
BRANCH   9  10
ATOM     10  N   UNL     1      43.626   4.704   9.408  0.00  0.00    +0.000 NA
ATOM     11  H   UNL     1      42.885   4.034   9.215  0.00  0.00    +0.000 HD
ATOM     12  H   UNL     1      44.498   4.177   9.430  0.00  0.00    +0.000 HD
ENDBRANCH   9  10
ENDBRANCH   3   9
ENDBRANCH   2   6
ENDBRANCH   1   2
BRANCH   1  13
ATOM     13  C   UNL     1      47.472   3.376  16.760  0.00  0.00    +0.000 C 
BRANCH  13  14
ATOM     14  C   UNL     1      48.924   3.149  17.104  0.00  0.00    +0.000 A 
ATOM     15  C   UNL     1      49.679   4.168  17.697  0.00  0.00    +0.000 A 
ATOM     16  C   UNL     1      51.027   3.965  18.003  0.00  0.00    +0.000 A 
ATOM     17  C   UNL     1      51.647   2.741  17.718  0.00  0.00    +0.000 A 
ATOM     18  C   UNL     1      50.891   1.727  17.108  0.00  0.00    +0.000 A 
ATOM     19  C   UNL     1      49.544   1.930  16.801  0.00  0.00    +0.000 A 
BRANCH  17  20
ATOM     20  C   UNL     1      53.097   2.499  18.056  0.00  0.00    +0.000 C 
ATOM     21  F   UNL     1      53.958   3.311  17.381  0.00  0.00    +0.000 F 
ATOM     22  F   UNL     1      53.362   2.694  19.378  0.00  0.00    +0.000 F 
ATOM     23  F   UNL     1      53.493   1.226  17.779  0.00  0.00    +0.000 F 
ENDBRANCH  17  20
ENDBRANCH  13  14
ENDBRANCH   1  13
TORSDOF 7
ENDMDL
MODEL 9
REMARK VINA RESULT:    -5.759      4.747      6.058
REMARK INTER + INTRA:          -8.761
REMARK INTER:                  -8.176
REMARK INTRA:                  -0.585
REMARK UNBOUND:                -0.813
REMARK  Name = 
REMARK  7 active torsions:
REMARK  status: ('A' for Active; 'I' for Inactive)
REMARK    1  A    between atoms: N_1  and  C_2
REMARK    2  A    between atoms: C_2  and  C_3
REMARK    3  A    between atoms: C_6  and  O_7
REMARK    4  A    between atoms: O_7  and  C_8
REMARK    5  A    between atoms: C_8  and  C_9
REMARK    6  A    between atoms: C_9  and  C_10
REMARK    7  A    between atoms: C_13  and  C_14
REMARK                            x       y       z     vdW  Elec       q    Type
REMARK                         _______ _______ _______ _____ _____    ______ ____
ROOT
ATOM      1  C   UNL     1      47.179   4.144  15.968  0.00  0.00    +0.000 C 
ENDROOT
BRANCH   1   2
ATOM      2  O   UNL     1      47.882   4.506  17.160  0.00  0.00    +0.000 OA
BRANCH   2   6
ATOM      3  C   UNL     1      51.542   2.523  17.612  0.00  0.00    +0.000 A 
ATOM      4  C   UNL     1      51.466   3.890  17.908  0.00  0.00    +0.000 A 
ATOM      5  C   UNL     1      50.264   4.590  17.767  0.00  0.00    +0.000 A 
ATOM      6  C   UNL     1      49.115   3.933  17.326  0.00  0.00    +0.000 A 
ATOM      7  C   UNL     1      49.188   2.573  17.016  0.00  0.00    +0.000 A 
ATOM      8  C   UNL     1      50.390   1.870  17.157  0.00  0.00    +0.000 A 
BRANCH   3   9
ATOM      9  C   UNL     1      52.845   1.787  17.780  0.00  0.00    +0.000 C 
BRANCH   9  10
ATOM     10  N   UNL     1      52.665   0.349  17.615  0.00  0.00    +0.000 NA
ATOM     11  H   UNL     1      52.686   0.119  16.625  0.00  0.00    +0.000 HD
ATOM     12  H   UNL     1      51.738   0.095  17.954  0.00  0.00    +0.000 HD
ENDBRANCH   9  10
ENDBRANCH   3   9
ENDBRANCH   2   6
ENDBRANCH   1   2
BRANCH   1  13
ATOM     13  C   UNL     1      47.536   5.131  14.860  0.00  0.00    +0.000 C 
BRANCH  13  14
ATOM     14  C   UNL     1      46.685   4.912  13.633  0.00  0.00    +0.000 A 
ATOM     15  C   UNL     1      46.217   3.631  13.315  0.00  0.00    +0.000 A 
ATOM     16  C   UNL     1      45.441   3.425  12.171  0.00  0.00    +0.000 A 
ATOM     17  C   UNL     1      45.124   4.493  11.321  0.00  0.00    +0.000 A 
ATOM     18  C   UNL     1      45.609   5.772  11.635  0.00  0.00    +0.000 A 
ATOM     19  C   UNL     1      46.385   5.979  12.777  0.00  0.00    +0.000 A 
BRANCH  17  20
ATOM     20  C   UNL     1      44.274   4.290  10.091  0.00  0.00    +0.000 C 
ATOM     21  F   UNL     1      44.924   4.567   8.926  0.00  0.00    +0.000 F 
ATOM     22  F   UNL     1      43.829   3.008   9.972  0.00  0.00    +0.000 F 
ATOM     23  F   UNL     1      43.160   5.073  10.091  0.00  0.00    +0.000 F 
ENDBRANCH  17  20
ENDBRANCH  13  14
ENDBRANCH   1  13
TORSDOF 7
ENDMDL
