MODEL 1
REMARK VINA RESULT:    -8.672      0.000      0.000
REMARK INTER + INTRA:         -11.786
REMARK INTER:                 -11.207
REMARK INTRA:                  -0.579
REMARK UNBOUND:                -0.579
REMARK  Name = 
REMARK  5 active torsions:
REMARK  status: ('A' for Active; 'I' for Inactive)
REMARK    1  A    between atoms: C_2  and  C_4
REMARK    2  A    between atoms: C_7  and  N_8
REMARK    3  A    between atoms: N_8  and  C_9
REMARK    4  A    between atoms: C_9  and  C_10
REMARK    5  A    between atoms: C_14  and  C_15
REMARK                            x       y       z     vdW  Elec       q    Type
REMARK                         _______ _______ _______ _____ _____    ______ ____
ROOT
ATOM      1  N   UNL     1      43.780   4.804   9.899  0.00  0.00    +0.000 N 
ATOM      2  H   UNL     1      43.892   5.781   9.651  0.00  0.00    +0.000 HD
ENDROOT
BRANCH   1   6
ATOM      3  C   UNL     1      46.307   2.285   7.870  0.00  0.00    +0.000 A 
ATOM      4  C   UNL     1      46.321   3.647   7.622  0.00  0.00    +0.000 A 
ATOM      5  N   UNL     1      45.471   4.509   8.241  0.00  0.00    +0.000 NA
ATOM      6  C   UNL     1      44.604   3.979   9.128  0.00  0.00    +0.000 A 
ATOM      7  C   UNL     1      44.605   2.595   9.359  0.00  0.00    +0.000 A 
ATOM      8  N   UNL     1      45.434   1.711   8.741  0.00  0.00    +0.000 NA
BRANCH   3  10
ATOM      9  N   UNL     1      48.318   2.034   6.547  0.00  0.00    +0.000 N 
ATOM     10  C   UNL     1      47.288   1.398   7.187  0.00  0.00    +0.000 C 
ATOM     11  O   UNL     1      47.185   0.178   7.193  0.00  0.00    +0.000 OA
ATOM     12  H   UNL     1      49.011   1.489   6.055  0.00  0.00    +0.000 HD
ATOM     13  H   UNL     1      48.369   3.046   6.554  0.00  0.00    +0.000 HD
ENDBRANCH   3  10
ENDBRANCH   1   6
BRANCH   1  14
ATOM     14  C   UNL     1      43.833   4.595  11.340  0.00  0.00    +0.000 C 
BRANCH  14  15
ATOM     15  C   UNL     1      45.076   5.254  11.898  0.00  0.00    +0.000 A 
ATOM     16  C   UNL     1      45.511   6.479  11.374  0.00  0.00    +0.000 A 
ATOM     17  C   UNL     1      46.584   7.156  11.941  0.00  0.00    +0.000 A 
ATOM     18  C   UNL     1      47.225   6.621  13.059  0.00  0.00    +0.000 A 
ATOM     19  C   UNL     1      46.818   5.400  13.624  0.00  0.00    +0.000 A 
ATOM     20  C   UNL     1      45.743   4.722  13.014  0.00  0.00    +0.000 A 
BRANCH  19  21
ATOM     21  C   UNL     1      47.450   4.900  14.858  0.00  0.00    +0.000 A 
ATOM     22  C   UNL     1      48.262   5.676  15.684  0.00  0.00    +0.000 A 
ATOM     23  N   UNL     1      48.908   5.189  16.775  0.00  0.00    +0.000 NA
ATOM     24  C   UNL     1      48.707   3.875  17.019  0.00  0.00    +0.000 A 
ATOM     25  C   UNL     1      47.888   3.095  16.226  0.00  0.00    +0.000 A 
ATOM     26  N   UNL     1      47.242   3.586  15.144  0.00  0.00    +0.000 NA
ENDBRANCH  19  21
ENDBRANCH  14  15
ENDBRANCH   1  14
TORSDOF 5
ENDMDL
MODEL 2
REMARK VINA RESULT:    -8.068      2.584      3.989
REMARK INTER + INTRA:         -11.006
REMARK INTER:                 -10.357
REMARK INTRA:                  -0.648
REMARK UNBOUND:                -0.579
REMARK  Name = 
REMARK  5 active torsions:
REMARK  status: ('A' for Active; 'I' for Inactive)
REMARK    1  A    between atoms: C_2  and  C_4
REMARK    2  A    between atoms: C_7  and  N_8
REMARK    3  A    between atoms: N_8  and  C_9
REMARK    4  A    between atoms: C_9  and  C_10
REMARK    5  A    between atoms: C_14  and  C_15
REMARK                            x       y       z     vdW  Elec       q    Type
REMARK                         _______ _______ _______ _____ _____    ______ ____
ROOT
ATOM      1  N   UNL     1      43.759   4.823   9.828  0.00  0.00    +0.000 N 
ATOM      2  H   UNL     1      44.034   5.778   9.625  0.00  0.00    +0.000 HD
ENDROOT
BRANCH   1   6
ATOM      3  C   UNL     1      46.168   2.045   8.005  0.00  0.00    +0.000 A 
ATOM      4  C   UNL     1      46.183   3.367   7.595  0.00  0.00    +0.000 A 
ATOM      5  N   UNL     1      45.370   4.309   8.144  0.00  0.00    +0.000 NA
ATOM      6  C   UNL     1      44.539   3.901   9.126  0.00  0.00    +0.000 A 
ATOM      7  C   UNL     1      44.538   2.554   9.520  0.00  0.00    +0.000 A 
ATOM      8  N   UNL     1      45.330   1.592   8.976  0.00  0.00    +0.000 NA
BRANCH   3  10
ATOM      9  N   UNL     1      46.834  -0.250   7.627  0.00  0.00    +0.000 N 
ATOM     10  C   UNL     1      47.109   1.069   7.390  0.00  0.00    +0.000 C 
ATOM     11  O   UNL     1      48.069   1.419   6.716  0.00  0.00    +0.000 OA
ATOM     12  H   UNL     1      47.441  -0.962   7.247  0.00  0.00    +0.000 HD
ATOM     13  H   UNL     1      46.035  -0.507   8.197  0.00  0.00    +0.000 HD
ENDBRANCH   3  10
ENDBRANCH   1   6
BRANCH   1  14
ATOM     14  C   UNL     1      43.620   4.587  11.259  0.00  0.00    +0.000 C 
BRANCH  14  15
ATOM     15  C   UNL     1      44.717   5.321  11.998  0.00  0.00    +0.000 A 
ATOM     16  C   UNL     1      45.637   4.602  12.775  0.00  0.00    +0.000 A 
ATOM     17  C   UNL     1      46.716   5.240  13.374  0.00  0.00    +0.000 A 
ATOM     18  C   UNL     1      46.901   6.610  13.185  0.00  0.00    +0.000 A 
ATOM     19  C   UNL     1      46.010   7.370  12.407  0.00  0.00    +0.000 A 
ATOM     20  C   UNL     1      44.910   6.702  11.831  0.00  0.00    +0.000 A 
BRANCH  19  21
ATOM     21  C   UNL     1      46.275   8.795  12.145  0.00  0.00    +0.000 A 
ATOM     22  C   UNL     1      47.546   9.368  12.179  0.00  0.00    +0.000 A 
ATOM     23  N   UNL     1      47.776  10.697  12.019  0.00  0.00    +0.000 NA
ATOM     24  C   UNL     1      46.671  11.448  11.816  0.00  0.00    +0.000 A 
ATOM     25  C   UNL     1      45.406  10.897  11.755  0.00  0.00    +0.000 A 
ATOM     26  N   UNL     1      45.182   9.572  11.910  0.00  0.00    +0.000 NA
ENDBRANCH  19  21
ENDBRANCH  14  15
ENDBRANCH   1  14
TORSDOF 5
ENDMDL
MODEL 3
REMARK VINA RESULT:    -7.825      1.876      2.690
REMARK INTER + INTRA:         -10.691
REMARK INTER:                 -10.129
REMARK INTRA:                  -0.562
REMARK UNBOUND:                -0.579
REMARK  Name = 
REMARK  5 active torsions:
REMARK  status: ('A' for Active; 'I' for Inactive)
REMARK    1  A    between atoms: C_2  and  C_4
REMARK    2  A    between atoms: C_7  and  N_8
REMARK    3  A    between atoms: N_8  and  C_9
REMARK    4  A    between atoms: C_9  and  C_10
REMARK    5  A    between atoms: C_14  and  C_15
REMARK                            x       y       z     vdW  Elec       q    Type
REMARK                         _______ _______ _______ _____ _____    ______ ____
ROOT
ATOM      1  N   UNL     1      44.018   4.762  10.115  0.00  0.00    +0.000 N 
ATOM      2  H   UNL     1      43.074   4.884   9.764  0.00  0.00    +0.000 HD
ENDROOT
BRANCH   1   6
ATOM      3  C   UNL     1      46.473   2.515   7.711  0.00  0.00    +0.000 A 
ATOM      4  C   UNL     1      46.391   3.887   7.548  0.00  0.00    +0.000 A 
ATOM      5  N   UNL     1      45.558   4.662   8.294  0.00  0.00    +0.000 NA
ATOM      6  C   UNL     1      44.808   4.032   9.222  0.00  0.00    +0.000 A 
ATOM      7  C   UNL     1      44.905   2.640   9.365  0.00  0.00    +0.000 A 
ATOM      8  N   UNL     1      45.718   1.843   8.621  0.00  0.00    +0.000 NA
BRANCH   3  10
ATOM      9  N   UNL     1      48.518   2.416   6.422  0.00  0.00    +0.000 N 
ATOM     10  C   UNL     1      47.431   1.728   6.888  0.00  0.00    +0.000 C 
ATOM     11  O   UNL     1      47.261   0.542   6.640  0.00  0.00    +0.000 OA
ATOM     12  H   UNL     1      49.201   1.942   5.848  0.00  0.00    +0.000 HD
ATOM     13  H   UNL     1      48.625   3.401   6.639  0.00  0.00    +0.000 HD
ENDBRANCH   3  10
ENDBRANCH   1   6
BRANCH   1  14
ATOM     14  C   UNL     1      44.588   6.011  10.600  0.00  0.00    +0.000 C 
BRANCH  14  15
ATOM     15  C   UNL     1      45.479   5.728  11.790  0.00  0.00    +0.000 A 
ATOM     16  C   UNL     1      45.253   4.590  12.576  0.00  0.00    +0.000 A 
ATOM     17  C   UNL     1      46.122   4.251  13.606  0.00  0.00    +0.000 A 
ATOM     18  C   UNL     1      47.246   5.041  13.850  0.00  0.00    +0.000 A 
ATOM     19  C   UNL     1      47.519   6.185  13.082  0.00  0.00    +0.000 A 
ATOM     20  C   UNL     1      46.607   6.521  12.059  0.00  0.00    +0.000 A 
BRANCH  19  21
ATOM     21  C   UNL     1      48.759   6.952  13.297  0.00  0.00    +0.000 A 
ATOM     22  C   UNL     1      49.416   7.664  12.293  0.00  0.00    +0.000 A 
ATOM     23  N   UNL     1      50.601   8.300  12.477  0.00  0.00    +0.000 NA
ATOM     24  C   UNL     1      51.115   8.203  13.722  0.00  0.00    +0.000 A 
ATOM     25  C   UNL     1      50.469   7.523  14.736  0.00  0.00    +0.000 A 
ATOM     26  N   UNL     1      49.285   6.895  14.550  0.00  0.00    +0.000 NA
ENDBRANCH  19  21
ENDBRANCH  14  15
ENDBRANCH   1  14
TORSDOF 5
ENDMDL
MODEL 4
REMARK VINA RESULT:    -7.815      1.768      2.408
REMARK INTER + INTRA:         -10.679
REMARK INTER:                 -10.130
REMARK INTRA:                  -0.549
REMARK UNBOUND:                -0.579
REMARK  Name = 
REMARK  5 active torsions:
REMARK  status: ('A' for Active; 'I' for Inactive)
REMARK    1  A    between atoms: C_2  and  C_4
REMARK    2  A    between atoms: C_7  and  N_8
REMARK    3  A    between atoms: N_8  and  C_9
REMARK    4  A    between atoms: C_9  and  C_10
REMARK    5  A    between atoms: C_14  and  C_15
REMARK                            x       y       z     vdW  Elec       q    Type
REMARK                         _______ _______ _______ _____ _____    ______ ____
ROOT
ATOM      1  N   UNL     1      43.949   4.971   9.860  0.00  0.00    +0.000 N 
ATOM      2  H   UNL     1      43.990   5.888   9.427  0.00  0.00    +0.000 HD
ENDROOT
BRANCH   1   6
ATOM      3  C   UNL     1      46.214   2.110   7.979  0.00  0.00    +0.000 A 
ATOM      4  C   UNL     1      46.336   3.445   7.633  0.00  0.00    +0.000 A 
ATOM      5  N   UNL     1      45.574   4.418   8.201  0.00  0.00    +0.000 NA
ATOM      6  C   UNL     1      44.684   4.027   9.138  0.00  0.00    +0.000 A 
ATOM      7  C   UNL     1      44.575   2.668   9.468  0.00  0.00    +0.000 A 
ATOM      8  N   UNL     1      45.314   1.676   8.902  0.00  0.00    +0.000 NA
BRANCH   3  10
ATOM      9  N   UNL     1      46.814  -0.209   7.638  0.00  0.00    +0.000 N 
ATOM     10  C   UNL     1      47.103   1.097   7.347  0.00  0.00    +0.000 C 
ATOM     11  O   UNL     1      48.033   1.408   6.615  0.00  0.00    +0.000 OA
ATOM     12  H   UNL     1      47.387  -0.944   7.248  0.00  0.00    +0.000 HD
ATOM     13  H   UNL     1      46.041  -0.431   8.255  0.00  0.00    +0.000 HD
ENDBRANCH   3  10
ENDBRANCH   1   6
BRANCH   1  14
ATOM     14  C   UNL     1      44.212   5.030  11.292  0.00  0.00    +0.000 C 
BRANCH  14  15
ATOM     15  C   UNL     1      44.988   6.290  11.609  0.00  0.00    +0.000 A 
ATOM     16  C   UNL     1      44.421   7.544  11.341  0.00  0.00    +0.000 A 
ATOM     17  C   UNL     1      45.067   8.714  11.723  0.00  0.00    +0.000 A 
ATOM     18  C   UNL     1      46.285   8.641  12.400  0.00  0.00    +0.000 A 
ATOM     19  C   UNL     1      46.885   7.406  12.700  0.00  0.00    +0.000 A 
ATOM     20  C   UNL     1      46.222   6.236  12.278  0.00  0.00    +0.000 A 
BRANCH  19  21
ATOM     21  C   UNL     1      48.124   7.351  13.496  0.00  0.00    +0.000 A 
ATOM     22  C   UNL     1      48.334   6.455  14.544  0.00  0.00    +0.000 A 
ATOM     23  N   UNL     1      49.444   6.463  15.327  0.00  0.00    +0.000 NA
ATOM     24  C   UNL     1      50.355   7.411  15.018  0.00  0.00    +0.000 A 
ATOM     25  C   UNL     1      50.177   8.292  13.969  0.00  0.00    +0.000 A 
ATOM     26  N   UNL     1      49.073   8.277  13.188  0.00  0.00    +0.000 NA
ENDBRANCH  19  21
ENDBRANCH  14  15
ENDBRANCH   1  14
TORSDOF 5
ENDMDL
MODEL 5
REMARK VINA RESULT:    -7.330      2.910      7.492
REMARK INTER + INTRA:         -10.052
REMARK INTER:                  -9.722
REMARK INTRA:                  -0.330
REMARK UNBOUND:                -0.579
REMARK  Name = 
REMARK  5 active torsions:
REMARK  status: ('A' for Active; 'I' for Inactive)
REMARK    1  A    between atoms: C_2  and  C_4
REMARK    2  A    between atoms: C_7  and  N_8
REMARK    3  A    between atoms: N_8  and  C_9
REMARK    4  A    between atoms: C_9  and  C_10
REMARK    5  A    between atoms: C_14  and  C_15
REMARK                            x       y       z     vdW  Elec       q    Type
REMARK                         _______ _______ _______ _____ _____    ______ ____
ROOT
ATOM      1  N   UNL     1      47.405   6.477  12.815  0.00  0.00    +0.000 N 
ATOM      2  H   UNL     1      48.156   7.139  12.652  0.00  0.00    +0.000 HD
ENDROOT
BRANCH   1   6
ATOM      3  C   UNL     1      47.661   4.451  16.376  0.00  0.00    +0.000 A 
ATOM      4  C   UNL     1      48.421   5.587  16.156  0.00  0.00    +0.000 A 
ATOM      5  N   UNL     1      48.398   6.261  14.975  0.00  0.00    +0.000 NA
ATOM      6  C   UNL     1      47.585   5.778  14.013  0.00  0.00    +0.000 A 
ATOM      7  C   UNL     1      46.828   4.623  14.258  0.00  0.00    +0.000 A 
ATOM      8  N   UNL     1      46.846   3.923  15.424  0.00  0.00    +0.000 NA
BRANCH   3  10
ATOM      9  N   UNL     1      46.932   2.655  17.824  0.00  0.00    +0.000 N 
ATOM     10  C   UNL     1      47.704   3.779  17.704  0.00  0.00    +0.000 C 
ATOM     11  O   UNL     1      48.382   4.200  18.631  0.00  0.00    +0.000 OA
ATOM     12  H   UNL     1      46.909   2.158  18.703  0.00  0.00    +0.000 HD
ATOM     13  H   UNL     1      46.375   2.337  17.039  0.00  0.00    +0.000 HD
ENDBRANCH   3  10
ENDBRANCH   1   6
BRANCH   1  14
ATOM     14  C   UNL     1      46.093   7.078  12.615  0.00  0.00    +0.000 C 
BRANCH  14  15
ATOM     15  C   UNL     1      45.217   6.124  11.832  0.00  0.00    +0.000 A 
ATOM     16  C   UNL     1      43.825   6.169  11.986  0.00  0.00    +0.000 A 
ATOM     17  C   UNL     1      42.995   5.380  11.199  0.00  0.00    +0.000 A 
ATOM     18  C   UNL     1      43.551   4.546  10.229  0.00  0.00    +0.000 A 
ATOM     19  C   UNL     1      44.941   4.475  10.032  0.00  0.00    +0.000 A 
ATOM     20  C   UNL     1      45.762   5.267  10.861  0.00  0.00    +0.000 A 
BRANCH  19  21
ATOM     21  C   UNL     1      45.501   3.657   8.941  0.00  0.00    +0.000 A 
ATOM     22  C   UNL     1      45.583   2.266   8.978  0.00  0.00    +0.000 A 
ATOM     23  N   UNL     1      46.174   1.523   8.007  0.00  0.00    +0.000 NA
ATOM     24  C   UNL     1      46.686   2.231   6.977  0.00  0.00    +0.000 A 
ATOM     25  C   UNL     1      46.594   3.608   6.910  0.00  0.00    +0.000 A 
ATOM     26  N   UNL     1      46.000   4.344   7.877  0.00  0.00    +0.000 NA
ENDBRANCH  19  21
ENDBRANCH  14  15
ENDBRANCH   1  14
TORSDOF 5
ENDMDL
MODEL 6
REMARK VINA RESULT:    -6.967      3.456      7.084
REMARK INTER + INTRA:          -9.583
REMARK INTER:                  -8.981
REMARK INTRA:                  -0.601
REMARK UNBOUND:                -0.579
REMARK  Name = 
REMARK  5 active torsions:
REMARK  status: ('A' for Active; 'I' for Inactive)
REMARK    1  A    between atoms: C_2  and  C_4
REMARK    2  A    between atoms: C_7  and  N_8
REMARK    3  A    between atoms: N_8  and  C_9
REMARK    4  A    between atoms: C_9  and  C_10
REMARK    5  A    between atoms: C_14  and  C_15
REMARK                            x       y       z     vdW  Elec       q    Type
REMARK                         _______ _______ _______ _____ _____    ______ ____
ROOT
ATOM      1  N   UNL     1      44.506   6.943  12.614  0.00  0.00    +0.000 N 
ATOM      2  H   UNL     1      44.425   6.226  13.327  0.00  0.00    +0.000 HD
ENDROOT
BRANCH   1   6
ATOM      3  C   UNL     1      48.455   8.031  12.349  0.00  0.00    +0.000 A 
ATOM      4  C   UNL     1      47.452   8.964  12.144  0.00  0.00    +0.000 A 
ATOM      5  N   UNL     1      46.133   8.634  12.180  0.00  0.00    +0.000 NA
ATOM      6  C   UNL     1      45.833   7.344  12.436  0.00  0.00    +0.000 A 
ATOM      7  C   UNL     1      46.867   6.417  12.635  0.00  0.00    +0.000 A 
ATOM      8  N   UNL     1      48.193   6.719  12.588  0.00  0.00    +0.000 NA
BRANCH   3  10
ATOM      9  N   UNL     1      50.784   7.506  11.957  0.00  0.00    +0.000 N 
ATOM     10  C   UNL     1      49.880   8.462  12.332  0.00  0.00    +0.000 C 
ATOM     11  O   UNL     1      50.226   9.596  12.635  0.00  0.00    +0.000 OA
ATOM     12  H   UNL     1      51.768   7.731  11.935  0.00  0.00    +0.000 HD
ATOM     13  H   UNL     1      50.465   6.573  11.720  0.00  0.00    +0.000 HD
ENDBRANCH   3  10
ENDBRANCH   1   6
BRANCH   1  14
ATOM     14  C   UNL     1      43.774   6.597  11.403  0.00  0.00    +0.000 C 
BRANCH  14  15
ATOM     15  C   UNL     1      43.966   5.126  11.102  0.00  0.00    +0.000 A 
ATOM     16  C   UNL     1      43.238   4.167  11.821  0.00  0.00    +0.000 A 
ATOM     17  C   UNL     1      43.316   2.819  11.490  0.00  0.00    +0.000 A 
ATOM     18  C   UNL     1      44.111   2.416  10.417  0.00  0.00    +0.000 A 
ATOM     19  C   UNL     1      44.850   3.343   9.662  0.00  0.00    +0.000 A 
ATOM     20  C   UNL     1      44.773   4.701  10.035  0.00  0.00    +0.000 A 
BRANCH  19  21
ATOM     21  C   UNL     1      45.610   2.907   8.477  0.00  0.00    +0.000 A 
ATOM     22  C   UNL     1      46.112   1.617   8.309  0.00  0.00    +0.000 A 
ATOM     23  N   UNL     1      46.881   1.242   7.254  0.00  0.00    +0.000 NA
ATOM     24  C   UNL     1      47.133   2.218   6.354  0.00  0.00    +0.000 A 
ATOM     25  C   UNL     1      46.625   3.495   6.490  0.00  0.00    +0.000 A 
ATOM     26  N   UNL     1      45.854   3.863   7.540  0.00  0.00    +0.000 NA
ENDBRANCH  19  21
ENDBRANCH  14  15
ENDBRANCH   1  14
TORSDOF 5
ENDMDL
MODEL 7
REMARK VINA RESULT:    -6.610      3.227      8.237
REMARK INTER + INTRA:          -9.121
REMARK INTER:                  -8.726
REMARK INTRA:                  -0.395
REMARK UNBOUND:                -0.579
REMARK  Name = 
REMARK  5 active torsions:
REMARK  status: ('A' for Active; 'I' for Inactive)
REMARK    1  A    between atoms: C_2  and  C_4
REMARK    2  A    between atoms: C_7  and  N_8
REMARK    3  A    between atoms: N_8  and  C_9
REMARK    4  A    between atoms: C_9  and  C_10
REMARK    5  A    between atoms: C_14  and  C_15
REMARK                            x       y       z     vdW  Elec       q    Type
REMARK                         _______ _______ _______ _____ _____    ______ ____
ROOT
ATOM      1  N   UNL     1      46.723   4.414  14.197  0.00  0.00    +0.000 N 
ATOM      2  H   UNL     1      47.482   4.291  13.535  0.00  0.00    +0.000 HD
ENDROOT
BRANCH   1   6
ATOM      3  C   UNL     1      48.345   4.457  17.967  0.00  0.00    +0.000 A 
ATOM      4  C   UNL     1      47.344   3.557  17.641  0.00  0.00    +0.000 A 
ATOM      5  N   UNL     1      46.751   3.540  16.417  0.00  0.00    +0.000 NA
ATOM      6  C   UNL     1      47.189   4.442  15.514  0.00  0.00    +0.000 A 
ATOM      7  C   UNL     1      48.200   5.347  15.870  0.00  0.00    +0.000 A 
ATOM      8  N   UNL     1      48.797   5.394  17.092  0.00  0.00    +0.000 NA
BRANCH   3  10
ATOM      9  N   UNL     1      48.529   3.410  20.141  0.00  0.00    +0.000 N 
ATOM     10  C   UNL     1      48.980   4.402  19.313  0.00  0.00    +0.000 C 
ATOM     11  O   UNL     1      49.848   5.191  19.660  0.00  0.00    +0.000 OA
ATOM     12  H   UNL     1      48.912   3.325  21.071  0.00  0.00    +0.000 HD
ATOM     13  H   UNL     1      47.802   2.777  19.825  0.00  0.00    +0.000 HD
ENDBRANCH   3  10
ENDBRANCH   1   6
BRANCH   1  14
ATOM     14  C   UNL     1      45.830   5.498  13.810  0.00  0.00    +0.000 C 
BRANCH  14  15
ATOM     15  C   UNL     1      45.000   5.065  12.621  0.00  0.00    +0.000 A 
ATOM     16  C   UNL     1      43.638   5.391  12.565  0.00  0.00    +0.000 A 
ATOM     17  C   UNL     1      42.881   5.100  11.436  0.00  0.00    +0.000 A 
ATOM     18  C   UNL     1      43.488   4.494  10.335  0.00  0.00    +0.000 A 
ATOM     19  C   UNL     1      44.853   4.159  10.342  0.00  0.00    +0.000 A 
ATOM     20  C   UNL     1      45.591   4.441  11.509  0.00  0.00    +0.000 A 
BRANCH  19  21
ATOM     21  C   UNL     1      45.493   3.604   9.135  0.00  0.00    +0.000 A 
ATOM     22  C   UNL     1      45.894   4.376   8.045  0.00  0.00    +0.000 A 
ATOM     23  N   UNL     1      46.407   3.852   6.903  0.00  0.00    +0.000 NA
ATOM     24  C   UNL     1      46.512   2.505   6.888  0.00  0.00    +0.000 A 
ATOM     25  C   UNL     1      46.142   1.724   7.966  0.00  0.00    +0.000 A 
ATOM     26  N   UNL     1      45.636   2.251   9.105  0.00  0.00    +0.000 NA
ENDBRANCH  19  21
ENDBRANCH  14  15
ENDBRANCH   1  14
TORSDOF 5
ENDMDL
MODEL 8
REMARK VINA RESULT:    -6.518      3.671      7.707
REMARK INTER + INTRA:          -9.002
REMARK INTER:                  -8.400
REMARK INTRA:                  -0.602
REMARK UNBOUND:                -0.579
REMARK  Name = 
REMARK  5 active torsions:
REMARK  status: ('A' for Active; 'I' for Inactive)
REMARK    1  A    between atoms: C_2  and  C_4
REMARK    2  A    between atoms: C_7  and  N_8
REMARK    3  A    between atoms: N_8  and  C_9
REMARK    4  A    between atoms: C_9  and  C_10
REMARK    5  A    between atoms: C_14  and  C_15
REMARK                            x       y       z     vdW  Elec       q    Type
REMARK                         _______ _______ _______ _____ _____    ______ ____
ROOT
ATOM      1  N   UNL     1      48.111   5.869  16.247  0.00  0.00    +0.000 N 
ATOM      2  H   UNL     1      47.274   5.480  15.825  0.00  0.00    +0.000 HD
ENDROOT
BRANCH   1   6
ATOM      3  C   UNL     1      50.816   3.001  17.392  0.00  0.00    +0.000 A 
ATOM      4  C   UNL     1      49.525   2.650  17.036  0.00  0.00    +0.000 A 
ATOM      5  N   UNL     1      48.587   3.573  16.693  0.00  0.00    +0.000 NA
ATOM      6  C   UNL     1      48.971   4.866  16.704  0.00  0.00    +0.000 A 
ATOM      7  C   UNL     1      50.283   5.198  17.073  0.00  0.00    +0.000 A 
ATOM      8  N   UNL     1      51.234   4.295  17.435  0.00  0.00    +0.000 NA
BRANCH   3  10
ATOM      9  N   UNL     1      51.319   0.663  17.757  0.00  0.00    +0.000 N 
ATOM     10  C   UNL     1      51.807   1.941  17.722  0.00  0.00    +0.000 C 
ATOM     11  O   UNL     1      52.983   2.191  17.950  0.00  0.00    +0.000 OA
ATOM     12  H   UNL     1      51.939  -0.101  17.986  0.00  0.00    +0.000 HD
ATOM     13  H   UNL     1      50.337   0.491  17.572  0.00  0.00    +0.000 HD
ENDBRANCH   3  10
ENDBRANCH   1   6
BRANCH   1  14
ATOM     14  C   UNL     1      48.715   6.902  15.416  0.00  0.00    +0.000 C 
BRANCH  14  15
ATOM     15  C   UNL     1      48.080   6.877  14.043  0.00  0.00    +0.000 A 
ATOM     16  C   UNL     1      48.681   7.571  12.984  0.00  0.00    +0.000 A 
ATOM     17  C   UNL     1      48.177   7.475  11.692  0.00  0.00    +0.000 A 
ATOM     18  C   UNL     1      47.072   6.662  11.440  0.00  0.00    +0.000 A 
ATOM     19  C   UNL     1      46.443   5.940  12.469  0.00  0.00    +0.000 A 
ATOM     20  C   UNL     1      46.958   6.075  13.774  0.00  0.00    +0.000 A 
BRANCH  19  21
ATOM     21  C   UNL     1      45.335   5.017  12.165  0.00  0.00    +0.000 A 
ATOM     22  C   UNL     1      44.815   4.101  13.079  0.00  0.00    +0.000 A 
ATOM     23  N   UNL     1      43.850   3.196  12.769  0.00  0.00    +0.000 NA
ATOM     24  C   UNL     1      43.413   3.242  11.492  0.00  0.00    +0.000 A 
ATOM     25  C   UNL     1      43.898   4.157  10.578  0.00  0.00    +0.000 A 
ATOM     26  N   UNL     1      44.855   5.060  10.892  0.00  0.00    +0.000 NA
ENDBRANCH  19  21
ENDBRANCH  14  15
ENDBRANCH   1  14
TORSDOF 5
ENDMDL
MODEL 9
REMARK VINA RESULT:    -6.432      2.716      4.016
REMARK INTER + INTRA:          -8.891
REMARK INTER:                  -8.324
REMARK INTRA:                  -0.567
REMARK UNBOUND:                -0.579
REMARK  Name = 
REMARK  5 active torsions:
REMARK  status: ('A' for Active; 'I' for Inactive)
REMARK    1  A    between atoms: C_2  and  C_4
REMARK    2  A    between atoms: C_7  and  N_8
REMARK    3  A    between atoms: N_8  and  C_9
REMARK    4  A    between atoms: C_9  and  C_10
REMARK    5  A    between atoms: C_14  and  C_15
REMARK                            x       y       z     vdW  Elec       q    Type
REMARK                         _______ _______ _______ _____ _____    ______ ____
ROOT
ATOM      1  N   UNL     1      45.877   7.841  12.543  0.00  0.00    +0.000 N 
ATOM      2  H   UNL     1      45.302   8.643  12.306  0.00  0.00    +0.000 HD
ENDROOT
BRANCH   1   6
ATOM      3  C   UNL     1      44.333   4.210  11.410  0.00  0.00    +0.000 A 
ATOM      4  C   UNL     1      45.135   4.935  10.545  0.00  0.00    +0.000 A 
ATOM      5  N   UNL     1      45.630   6.161  10.866  0.00  0.00    +0.000 NA
ATOM      6  C   UNL     1      45.312   6.648  12.083  0.00  0.00    +0.000 A 
ATOM      7  C   UNL     1      44.493   5.897  12.939  0.00  0.00    +0.000 A 
ATOM      8  N   UNL     1      43.973   4.678  12.635  0.00  0.00    +0.000 NA
BRANCH   3  10
ATOM      9  N   UNL     1      44.510   2.278   9.965  0.00  0.00    +0.000 N 
ATOM     10  C   UNL     1      43.851   2.858  11.015  0.00  0.00    +0.000 C 
ATOM     11  O   UNL     1      42.925   2.299  11.587  0.00  0.00    +0.000 OA
ATOM     12  H   UNL     1      44.225   1.365   9.641  0.00  0.00    +0.000 HD
ATOM     13  H   UNL     1      45.268   2.772   9.507  0.00  0.00    +0.000 HD
ENDBRANCH   3  10
ENDBRANCH   1   6
BRANCH   1  14
ATOM     14  C   UNL     1      47.279   8.056  12.210  0.00  0.00    +0.000 C 
BRANCH  14  15
ATOM     15  C   UNL     1      48.137   7.720  13.410  0.00  0.00    +0.000 A 
ATOM     16  C   UNL     1      49.078   8.648  13.877  0.00  0.00    +0.000 A 
ATOM     17  C   UNL     1      49.800   8.407  15.040  0.00  0.00    +0.000 A 
ATOM     18  C   UNL     1      49.573   7.237  15.764  0.00  0.00    +0.000 A 
ATOM     19  C   UNL     1      48.633   6.282  15.340  0.00  0.00    +0.000 A 
ATOM     20  C   UNL     1      47.933   6.539  14.144  0.00  0.00    +0.000 A 
BRANCH  19  21
ATOM     21  C   UNL     1      48.343   5.098  16.168  0.00  0.00    +0.000 A 
ATOM     22  C   UNL     1      47.122   4.426  16.162  0.00  0.00    +0.000 A 
ATOM     23  N   UNL     1      46.832   3.386  16.986  0.00  0.00    +0.000 NA
ATOM     24  C   UNL     1      47.825   3.032  17.831  0.00  0.00    +0.000 A 
ATOM     25  C   UNL     1      49.051   3.670  17.837  0.00  0.00    +0.000 A 
ATOM     26  N   UNL     1      49.337   4.702  17.010  0.00  0.00    +0.000 NA
ENDBRANCH  19  21
ENDBRANCH  14  15
ENDBRANCH   1  14
TORSDOF 5
ENDMDL
