MODEL 1
REMARK VINA RESULT:    -8.280      0.000      0.000
REMARK INTER + INTRA:         -12.659
REMARK INTER:                 -11.668
REMARK INTRA:                  -0.990
REMARK UNBOUND:                -0.990
REMARK  Name = 
REMARK  8 active torsions:
REMARK  status: ('A' for Active; 'I' for Inactive)
REMARK    1  A    between atoms: C_1  and  O_2
REMARK    2  A    between atoms: O_2  and  C_3
REMARK    3  A    between atoms: C_5  and  C_6
REMARK    4  A    between atoms: C_6  and  N_7
REMARK    5  A    between atoms: C_8  and  C_10
REMARK    6  A    between atoms: C_17  and  C_18
REMARK    7  A    between atoms: C_18  and  N_19
REMARK    8  A    between atoms: C_20  and  C_22
REMARK                            x       y       z     vdW  Elec       q    Type
REMARK                         _______ _______ _______ _____ _____    ______ ____
ROOT
ATOM      1  C   UNL     1      45.278   7.865  12.137  0.00  0.00    +0.000 A 
ATOM      2  C   UNL     1      44.423   7.041  11.385  0.00  0.00    +0.000 A 
ATOM      3  C   UNL     1      44.707   5.687  11.151  0.00  0.00    +0.000 A 
ATOM      4  C   UNL     1      45.903   5.181  11.671  0.00  0.00    +0.000 A 
ATOM      5  C   UNL     1      46.749   5.986  12.451  0.00  0.00    +0.000 A 
ATOM      6  C   UNL     1      46.437   7.332  12.726  0.00  0.00    +0.000 A 
ENDROOT
BRANCH   1   8
ATOM      7  C   UNL     1      44.379   9.832  11.151  0.00  0.00    +0.000 C 
ATOM      8  O   UNL     1      45.063   9.220  12.245  0.00  0.00    +0.000 OA
ENDBRANCH   1   8
BRANCH   3   9
ATOM      9  C   UNL     1      43.786   4.803  10.334  0.00  0.00    +0.000 C 
BRANCH   9  10
ATOM     10  N   UNL     1      44.457   3.685   9.707  0.00  0.00    +0.000 N 
ATOM     11  C   UNL     1      45.328   3.847   8.652  0.00  0.00    +0.000 C 
ATOM     12  O   UNL     1      45.593   4.929   8.142  0.00  0.00    +0.000 OA
ATOM     13  H   UNL     1      44.513   2.810  10.201  0.00  0.00    +0.000 HD
BRANCH  11  14
ATOM     14  C   UNL     1      45.931   2.595   8.211  0.00  0.00    +0.000 A 
ATOM     15  C   UNL     1      46.991   2.354   7.281  0.00  0.00    +0.000 A 
ATOM     16  C   UNL     1      47.162   0.991   7.222  0.00  0.00    +0.000 A 
ATOM     17  O   UNL     1      46.286   0.370   8.049  0.00  0.00    +0.000 OA
ATOM     18  C   UNL     1      45.550   1.342   8.649  0.00  0.00    +0.000 A 
ENDBRANCH  11  14
ENDBRANCH   9  10
ENDBRANCH   3   9
BRANCH   6  19
ATOM     19  C   UNL     1      47.346   8.113  13.656  0.00  0.00    +0.000 C 
BRANCH  19  20
ATOM     20  N   UNL     1      47.736   7.350  14.827  0.00  0.00    +0.000 N 
ATOM     21  C   UNL     1      49.029   6.936  15.067  0.00  0.00    +0.000 C 
ATOM     22  O   UNL     1      49.937   7.063  14.273  0.00  0.00    +0.000 OA
ATOM     23  H   UNL     1      47.064   7.302  15.579  0.00  0.00    +0.000 HD
BRANCH  21  24
ATOM     24  C   UNL     1      49.218   6.277  16.374  0.00  0.00    +0.000 A 
ATOM     25  C   UNL     1      50.035   6.851  17.343  0.00  0.00    +0.000 A 
ATOM     26  S   UNL     1      50.064   5.976  18.809  0.00  0.00    +0.000 S 
ATOM     27  C   UNL     1      49.006   4.794  18.194  0.00  0.00    +0.000 A 
ATOM     28  N   UNL     1      48.616   3.735  18.955  0.00  0.00    +0.000 NA
ATOM     29  C   UNL     1      47.811   2.918  18.363  0.00  0.00    +0.000 A 
ATOM     30  N   UNL     1      47.362   3.063  17.075  0.00  0.00    +0.000 N 
ATOM     31  C   UNL     1      47.756   4.094  16.260  0.00  0.00    +0.000 A 
ATOM     32  O   UNL     1      47.404   4.136  15.080  0.00  0.00    +0.000 OA
ATOM     33  C   UNL     1      48.645   5.054  16.884  0.00  0.00    +0.000 A 
ATOM     34  H   UNL     1      46.748   2.377  16.663  0.00  0.00    +0.000 HD
ENDBRANCH  21  24
ENDBRANCH  19  20
ENDBRANCH   6  19
TORSDOF 7
ENDMDL
MODEL 2
REMARK VINA RESULT:    -8.216      1.567      2.362
REMARK INTER + INTRA:         -12.568
REMARK INTER:                 -11.230
REMARK INTRA:                  -1.338
REMARK UNBOUND:                -0.990
REMARK  Name = 
REMARK  8 active torsions:
REMARK  status: ('A' for Active; 'I' for Inactive)
REMARK    1  A    between atoms: C_1  and  O_2
REMARK    2  A    between atoms: O_2  and  C_3
REMARK    3  A    between atoms: C_5  and  C_6
REMARK    4  A    between atoms: C_6  and  N_7
REMARK    5  A    between atoms: C_8  and  C_10
REMARK    6  A    between atoms: C_17  and  C_18
REMARK    7  A    between atoms: C_18  and  N_19
REMARK    8  A    between atoms: C_20  and  C_22
REMARK                            x       y       z     vdW  Elec       q    Type
REMARK                         _______ _______ _______ _____ _____    ______ ____
ROOT
ATOM      1  C   UNL     1      46.869   5.714  13.076  0.00  0.00    +0.000 A 
ATOM      2  C   UNL     1      45.968   5.011  12.256  0.00  0.00    +0.000 A 
ATOM      3  C   UNL     1      45.056   5.668  11.417  0.00  0.00    +0.000 A 
ATOM      4  C   UNL     1      45.049   7.067  11.443  0.00  0.00    +0.000 A 
ATOM      5  C   UNL     1      45.965   7.779  12.233  0.00  0.00    +0.000 A 
ATOM      6  C   UNL     1      46.913   7.118  13.037  0.00  0.00    +0.000 A 
ENDROOT
BRANCH   1   8
ATOM      7  C   UNL     1      46.982   4.208  14.911  0.00  0.00    +0.000 C 
ATOM      8  O   UNL     1      47.662   5.067  13.996  0.00  0.00    +0.000 OA
ENDBRANCH   1   8
BRANCH   3   9
ATOM      9  C   UNL     1      44.082   4.908  10.538  0.00  0.00    +0.000 C 
BRANCH   9  10
ATOM     10  N   UNL     1      44.682   3.797   9.831  0.00  0.00    +0.000 N 
ATOM     11  C   UNL     1      45.497   3.976   8.734  0.00  0.00    +0.000 C 
ATOM     12  O   UNL     1      45.766   5.070   8.252  0.00  0.00    +0.000 OA
ATOM     13  H   UNL     1      44.738   2.902  10.287  0.00  0.00    +0.000 HD
BRANCH  11  14
ATOM     14  C   UNL     1      46.035   2.727   8.212  0.00  0.00    +0.000 A 
ATOM     15  C   UNL     1      47.003   2.491   7.185  0.00  0.00    +0.000 A 
ATOM     16  C   UNL     1      47.143   1.128   7.078  0.00  0.00    +0.000 A 
ATOM     17  O   UNL     1      46.333   0.501   7.966  0.00  0.00    +0.000 OA
ATOM     18  C   UNL     1      45.671   1.469   8.653  0.00  0.00    +0.000 A 
ENDBRANCH  11  14
ENDBRANCH   9  10
ENDBRANCH   3   9
BRANCH   6  19
ATOM     19  C   UNL     1      47.935   7.950  13.789  0.00  0.00    +0.000 C 
BRANCH  19  20
ATOM     20  N   UNL     1      47.903   7.715  15.220  0.00  0.00    +0.000 N 
ATOM     21  C   UNL     1      49.024   7.425  15.967  0.00  0.00    +0.000 C 
ATOM     22  O   UNL     1      50.120   7.221  15.489  0.00  0.00    +0.000 OA
ATOM     23  H   UNL     1      47.053   7.974  15.701  0.00  0.00    +0.000 HD
BRANCH  21  24
ATOM     24  C   UNL     1      48.776   7.341  17.419  0.00  0.00    +0.000 A 
ATOM     25  C   UNL     1      48.339   8.456  18.128  0.00  0.00    +0.000 A 
ATOM     26  S   UNL     1      48.038   8.135  19.777  0.00  0.00    +0.000 S 
ATOM     27  C   UNL     1      48.500   6.506  19.607  0.00  0.00    +0.000 A 
ATOM     28  N   UNL     1      48.477   5.654  20.667  0.00  0.00    +0.000 NA
ATOM     29  C   UNL     1      48.849   4.449  20.394  0.00  0.00    +0.000 A 
ATOM     30  N   UNL     1      49.247   4.019  19.154  0.00  0.00    +0.000 N 
ATOM     31  C   UNL     1      49.321   4.850  18.066  0.00  0.00    +0.000 A 
ATOM     32  O   UNL     1      49.773   4.447  16.992  0.00  0.00    +0.000 OA
ATOM     33  C   UNL     1      48.891   6.213  18.313  0.00  0.00    +0.000 A 
ATOM     34  H   UNL     1      49.547   3.067  19.011  0.00  0.00    +0.000 HD
ENDBRANCH  21  24
ENDBRANCH  19  20
ENDBRANCH   6  19
TORSDOF 7
ENDMDL
MODEL 3
REMARK VINA RESULT:    -7.982      3.497      5.070
REMARK INTER + INTRA:         -12.239
REMARK INTER:                 -10.923
REMARK INTRA:                  -1.316
REMARK UNBOUND:                -0.990
REMARK  Name = 
REMARK  8 active torsions:
REMARK  status: ('A' for Active; 'I' for Inactive)
REMARK    1  A    between atoms: C_1  and  O_2
REMARK    2  A    between atoms: O_2  and  C_3
REMARK    3  A    between atoms: C_5  and  C_6
REMARK    4  A    between atoms: C_6  and  N_7
REMARK    5  A    between atoms: C_8  and  C_10
REMARK    6  A    between atoms: C_17  and  C_18
REMARK    7  A    between atoms: C_18  and  N_19
REMARK    8  A    between atoms: C_20  and  C_22
REMARK                            x       y       z     vdW  Elec       q    Type
REMARK                         _______ _______ _______ _____ _____    ______ ____
ROOT
ATOM      1  C   UNL     1      45.695   5.478  12.621  0.00  0.00    +0.000 A 
ATOM      2  C   UNL     1      45.474   4.233  12.005  0.00  0.00    +0.000 A 
ATOM      3  C   UNL     1      44.383   4.006  11.153  0.00  0.00    +0.000 A 
ATOM      4  C   UNL     1      43.490   5.064  10.954  0.00  0.00    +0.000 A 
ATOM      5  C   UNL     1      43.718   6.321  11.538  0.00  0.00    +0.000 A 
ATOM      6  C   UNL     1      44.841   6.560  12.354  0.00  0.00    +0.000 A 
ENDROOT
BRANCH   1   8
ATOM      7  C   UNL     1      46.812   4.612  14.532  0.00  0.00    +0.000 C 
ATOM      8  O   UNL     1      46.685   5.651  13.561  0.00  0.00    +0.000 OA
ENDBRANCH   1   8
BRANCH   3   9
ATOM      9  C   UNL     1      44.144   2.661  10.495  0.00  0.00    +0.000 C 
BRANCH   9  10
ATOM     10  N   UNL     1      45.132   2.319   9.494  0.00  0.00    +0.000 N 
ATOM     11  C   UNL     1      45.192   2.952   8.271  0.00  0.00    +0.000 C 
ATOM     12  O   UNL     1      44.414   3.830   7.916  0.00  0.00    +0.000 OA
ATOM     13  H   UNL     1      45.956   1.813   9.775  0.00  0.00    +0.000 HD
BRANCH  11  14
ATOM     14  C   UNL     1      46.296   2.489   7.442  0.00  0.00    +0.000 A 
ATOM     15  C   UNL     1      46.943   3.111   6.327  0.00  0.00    +0.000 A 
ATOM     16  C   UNL     1      47.918   2.242   5.901  0.00  0.00    +0.000 A 
ATOM     17  O   UNL     1      47.925   1.126   6.671  0.00  0.00    +0.000 OA
ATOM     18  C   UNL     1      46.950   1.282   7.604  0.00  0.00    +0.000 A 
ENDBRANCH  11  14
ENDBRANCH   9  10
ENDBRANCH   3   9
BRANCH   6  19
ATOM     19  C   UNL     1      45.076   7.967  12.871  0.00  0.00    +0.000 C 
BRANCH  19  20
ATOM     20  N   UNL     1      46.225   8.603  12.256  0.00  0.00    +0.000 N 
ATOM     21  C   UNL     1      47.344   8.994  12.960  0.00  0.00    +0.000 C 
ATOM     22  O   UNL     1      47.428   8.955  14.170  0.00  0.00    +0.000 OA
ATOM     23  H   UNL     1      46.275   8.569  11.247  0.00  0.00    +0.000 HD
BRANCH  21  24
ATOM     24  C   UNL     1      48.438   9.511  12.116  0.00  0.00    +0.000 A 
ATOM     25  C   UNL     1      48.398  10.814  11.628  0.00  0.00    +0.000 A 
ATOM     26  S   UNL     1      49.789  11.247  10.738  0.00  0.00    +0.000 S 
ATOM     27  C   UNL     1      50.481   9.707  10.956  0.00  0.00    +0.000 A 
ATOM     28  N   UNL     1      51.699   9.402  10.431  0.00  0.00    +0.000 NA
ATOM     29  C   UNL     1      52.102   8.201  10.676  0.00  0.00    +0.000 A 
ATOM     30  N   UNL     1      51.394   7.274  11.397  0.00  0.00    +0.000 N 
ATOM     31  C   UNL     1      50.149   7.525  11.914  0.00  0.00    +0.000 A 
ATOM     32  O   UNL     1      49.507   6.635  12.475  0.00  0.00    +0.000 OA
ATOM     33  C   UNL     1      49.657   8.870  11.686  0.00  0.00    +0.000 A 
ATOM     34  H   UNL     1      51.757   6.343  11.536  0.00  0.00    +0.000 HD
ENDBRANCH  21  24
ENDBRANCH  19  20
ENDBRANCH   6  19
TORSDOF 7
ENDMDL
MODEL 4
REMARK VINA RESULT:    -7.894      2.141      3.675
REMARK INTER + INTRA:         -12.115
REMARK INTER:                 -10.758
REMARK INTRA:                  -1.357
REMARK UNBOUND:                -0.990
REMARK  Name = 
REMARK  8 active torsions:
REMARK  status: ('A' for Active; 'I' for Inactive)
REMARK    1  A    between atoms: C_1  and  O_2
REMARK    2  A    between atoms: O_2  and  C_3
REMARK    3  A    between atoms: C_5  and  C_6
REMARK    4  A    between atoms: C_6  and  N_7
REMARK    5  A    between atoms: C_8  and  C_10
REMARK    6  A    between atoms: C_17  and  C_18
REMARK    7  A    between atoms: C_18  and  N_19
REMARK    8  A    between atoms: C_20  and  C_22
REMARK                            x       y       z     vdW  Elec       q    Type
REMARK                         _______ _______ _______ _____ _____    ______ ____
ROOT
ATOM      1  C   UNL     1      45.733   5.763  12.804  0.00  0.00    +0.000 A 
ATOM      2  C   UNL     1      45.160   5.564  11.535  0.00  0.00    +0.000 A 
ATOM      3  C   UNL     1      45.002   4.285  10.979  0.00  0.00    +0.000 A 
ATOM      4  C   UNL     1      45.467   3.197  11.726  0.00  0.00    +0.000 A 
ATOM      5  C   UNL     1      46.011   3.380  13.007  0.00  0.00    +0.000 A 
ATOM      6  C   UNL     1      46.123   4.661  13.583  0.00  0.00    +0.000 A 
ENDROOT
BRANCH   1   8
ATOM      7  C   UNL     1      45.922   8.083  12.328  0.00  0.00    +0.000 C 
ATOM      8  O   UNL     1      46.010   7.023  13.280  0.00  0.00    +0.000 OA
ENDBRANCH   1   8
BRANCH   3   9
ATOM      9  C   UNL     1      44.390   4.075   9.608  0.00  0.00    +0.000 C 
BRANCH   9  10
ATOM     10  N   UNL     1      45.355   3.732   8.586  0.00  0.00    +0.000 N 
ATOM     11  C   UNL     1      45.636   2.427   8.247  0.00  0.00    +0.000 C 
ATOM     12  O   UNL     1      45.122   1.454   8.784  0.00  0.00    +0.000 OA
ATOM     13  H   UNL     1      45.632   4.436   7.922  0.00  0.00    +0.000 HD
BRANCH  11  14
ATOM     14  C   UNL     1      46.597   2.314   7.157  0.00  0.00    +0.000 A 
ATOM     15  C   UNL     1      46.676   3.019   5.914  0.00  0.00    +0.000 A 
ATOM     16  C   UNL     1      47.769   2.521   5.246  0.00  0.00    +0.000 A 
ATOM     17  O   UNL     1      48.375   1.559   5.986  0.00  0.00    +0.000 OA
ATOM     18  C   UNL     1      47.669   1.443   7.141  0.00  0.00    +0.000 A 
ENDBRANCH  11  14
ENDBRANCH   9  10
ENDBRANCH   3   9
BRANCH   6  19
ATOM     19  C   UNL     1      46.629   4.774  15.009  0.00  0.00    +0.000 C 
BRANCH  19  20
ATOM     20  N   UNL     1      47.609   5.832  15.171  0.00  0.00    +0.000 N 
ATOM     21  C   UNL     1      48.759   5.694  15.918  0.00  0.00    +0.000 C 
ATOM     22  O   UNL     1      49.005   4.725  16.606  0.00  0.00    +0.000 OA
ATOM     23  H   UNL     1      47.529   6.621  14.545  0.00  0.00    +0.000 HD
BRANCH  21  24
ATOM     24  C   UNL     1      49.667   6.854  15.848  0.00  0.00    +0.000 A 
ATOM     25  C   UNL     1      50.153   7.442  17.013  0.00  0.00    +0.000 A 
ATOM     26  S   UNL     1      51.247   8.720  16.720  0.00  0.00    +0.000 S 
ATOM     27  C   UNL     1      51.091   8.547  15.034  0.00  0.00    +0.000 A 
ATOM     28  N   UNL     1      51.775   9.355  14.179  0.00  0.00    +0.000 NA
ATOM     29  C   UNL     1      51.565   9.110  12.929  0.00  0.00    +0.000 A 
ATOM     30  N   UNL     1      50.729   8.132  12.456  0.00  0.00    +0.000 N 
ATOM     31  C   UNL     1      49.992   7.319  13.281  0.00  0.00    +0.000 A 
ATOM     32  O   UNL     1      49.182   6.516  12.816  0.00  0.00    +0.000 OA
ATOM     33  C   UNL     1      50.208   7.537  14.698  0.00  0.00    +0.000 A 
ATOM     34  H   UNL     1      50.592   8.005  11.465  0.00  0.00    +0.000 HD
ENDBRANCH  21  24
ENDBRANCH  19  20
ENDBRANCH   6  19
TORSDOF 7
ENDMDL
MODEL 5
REMARK VINA RESULT:    -7.655      1.815      2.245
REMARK INTER + INTRA:         -11.779
REMARK INTER:                 -10.605
REMARK INTRA:                  -1.174
REMARK UNBOUND:                -0.990
REMARK  Name = 
REMARK  8 active torsions:
REMARK  status: ('A' for Active; 'I' for Inactive)
REMARK    1  A    between atoms: C_1  and  O_2
REMARK    2  A    between atoms: O_2  and  C_3
REMARK    3  A    between atoms: C_5  and  C_6
REMARK    4  A    between atoms: C_6  and  N_7
REMARK    5  A    between atoms: C_8  and  C_10
REMARK    6  A    between atoms: C_17  and  C_18
REMARK    7  A    between atoms: C_18  and  N_19
REMARK    8  A    between atoms: C_20  and  C_22
REMARK                            x       y       z     vdW  Elec       q    Type
REMARK                         _______ _______ _______ _____ _____    ______ ____
ROOT
ATOM      1  C   UNL     1      46.223   7.716  12.086  0.00  0.00    +0.000 A 
ATOM      2  C   UNL     1      45.301   7.007  11.295  0.00  0.00    +0.000 A 
ATOM      3  C   UNL     1      45.146   5.616  11.396  0.00  0.00    +0.000 A 
ATOM      4  C   UNL     1      45.972   4.940  12.301  0.00  0.00    +0.000 A 
ATOM      5  C   UNL     1      46.873   5.641  13.118  0.00  0.00    +0.000 A 
ATOM      6  C   UNL     1      46.992   7.043  13.050  0.00  0.00    +0.000 A 
ENDROOT
BRANCH   1   8
ATOM      7  C   UNL     1      45.354   9.928  12.076  0.00  0.00    +0.000 C 
ATOM      8  O   UNL     1      46.467   9.055  11.883  0.00  0.00    +0.000 OA
ENDBRANCH   1   8
BRANCH   3   9
ATOM      9  C   UNL     1      44.155   4.855  10.538  0.00  0.00    +0.000 C 
BRANCH   9  10
ATOM     10  N   UNL     1      44.740   3.741   9.822  0.00  0.00    +0.000 N 
ATOM     11  C   UNL     1      45.519   3.915   8.700  0.00  0.00    +0.000 C 
ATOM     12  O   UNL     1      45.766   5.005   8.199  0.00  0.00    +0.000 OA
ATOM     13  H   UNL     1      44.816   2.851  10.285  0.00  0.00    +0.000 HD
BRANCH  11  14
ATOM     14  C   UNL     1      46.048   2.664   8.173  0.00  0.00    +0.000 A 
ATOM     15  C   UNL     1      46.991   2.425   7.123  0.00  0.00    +0.000 A 
ATOM     16  C   UNL     1      47.134   1.061   7.023  0.00  0.00    +0.000 A 
ATOM     17  O   UNL     1      46.349   0.437   7.936  0.00  0.00    +0.000 OA
ATOM     18  C   UNL     1      45.702   1.407   8.632  0.00  0.00    +0.000 A 
ENDBRANCH  11  14
ENDBRANCH   9  10
ENDBRANCH   3   9
BRANCH   6  19
ATOM     19  C   UNL     1      47.914   7.742  14.031  0.00  0.00    +0.000 C 
BRANCH  19  20
ATOM     20  N   UNL     1      47.958   7.083  15.323  0.00  0.00    +0.000 N 
ATOM     21  C   UNL     1      49.125   6.657  15.920  0.00  0.00    +0.000 C 
ATOM     22  O   UNL     1      50.209   6.682  15.376  0.00  0.00    +0.000 OA
ATOM     23  H   UNL     1      47.116   7.126  15.880  0.00  0.00    +0.000 HD
BRANCH  21  24
ATOM     24  C   UNL     1      48.945   6.121  17.282  0.00  0.00    +0.000 A 
ATOM     25  C   UNL     1      49.317   4.813  17.581  0.00  0.00    +0.000 A 
ATOM     26  S   UNL     1      49.101   4.407  19.225  0.00  0.00    +0.000 S 
ATOM     27  C   UNL     1      48.486   5.952  19.588  0.00  0.00    +0.000 A 
ATOM     28  N   UNL     1      48.098   6.275  20.852  0.00  0.00    +0.000 NA
ATOM     29  C   UNL     1      47.655   7.480  20.984  0.00  0.00    +0.000 A 
ATOM     30  N   UNL     1      47.562   8.392  19.964  0.00  0.00    +0.000 N 
ATOM     31  C   UNL     1      47.908   8.099  18.669  0.00  0.00    +0.000 A 
ATOM     32  O   UNL     1      47.721   8.916  17.766  0.00  0.00    +0.000 OA
ATOM     33  C   UNL     1      48.434   6.763  18.469  0.00  0.00    +0.000 A 
ATOM     34  H   UNL     1      47.187   9.313  20.129  0.00  0.00    +0.000 HD
ENDBRANCH  21  24
ENDBRANCH  19  20
ENDBRANCH   6  19
TORSDOF 7
ENDMDL
MODEL 6
REMARK VINA RESULT:    -7.588      4.778      9.085
REMARK INTER + INTRA:         -11.684
REMARK INTER:                 -10.410
REMARK INTRA:                  -1.273
REMARK UNBOUND:                -0.990
REMARK  Name = 
REMARK  8 active torsions:
REMARK  status: ('A' for Active; 'I' for Inactive)
REMARK    1  A    between atoms: C_1  and  O_2
REMARK    2  A    between atoms: O_2  and  C_3
REMARK    3  A    between atoms: C_5  and  C_6
REMARK    4  A    between atoms: C_6  and  N_7
REMARK    5  A    between atoms: C_8  and  C_10
REMARK    6  A    between atoms: C_17  and  C_18
REMARK    7  A    between atoms: C_18  and  N_19
REMARK    8  A    between atoms: C_20  and  C_22
REMARK                            x       y       z     vdW  Elec       q    Type
REMARK                         _______ _______ _______ _____ _____    ______ ____
ROOT
ATOM      1  C   UNL     1      49.320   4.473  17.763  0.00  0.00    +0.000 A 
ATOM      2  C   UNL     1      50.711   4.387  17.953  0.00  0.00    +0.000 A 
ATOM      3  C   UNL     1      51.428   3.211  17.690  0.00  0.00    +0.000 A 
ATOM      4  C   UNL     1      50.702   2.097  17.256  0.00  0.00    +0.000 A 
ATOM      5  C   UNL     1      49.318   2.180  17.032  0.00  0.00    +0.000 A 
ATOM      6  C   UNL     1      48.608   3.377  17.249  0.00  0.00    +0.000 A 
ENDROOT
BRANCH   1   8
ATOM      7  C   UNL     1      48.973   6.812  17.528  0.00  0.00    +0.000 C 
ATOM      8  O   UNL     1      48.606   5.583  18.153  0.00  0.00    +0.000 OA
ENDBRANCH   1   8
BRANCH   3   9
ATOM      9  C   UNL     1      52.927   3.120  17.901  0.00  0.00    +0.000 C 
BRANCH   9  10
ATOM     10  N   UNL     1      53.506   1.877  17.439  0.00  0.00    +0.000 N 
ATOM     11  C   UNL     1      54.127   0.991  18.292  0.00  0.00    +0.000 C 
ATOM     12  O   UNL     1      54.264   1.180  19.494  0.00  0.00    +0.000 OA
ATOM     13  H   UNL     1      53.226   1.513  16.543  0.00  0.00    +0.000 HD
BRANCH  11  14
ATOM     14  C   UNL     1      54.588  -0.218  17.622  0.00  0.00    +0.000 A 
ATOM     15  C   UNL     1      54.853  -0.469  16.239  0.00  0.00    +0.000 A 
ATOM     16  C   UNL     1      55.256  -1.779  16.144  0.00  0.00    +0.000 A 
ATOM     17  O   UNL     1      55.262  -2.360  17.370  0.00  0.00    +0.000 OA
ATOM     18  C   UNL     1      54.865  -1.412  18.259  0.00  0.00    +0.000 A 
ENDBRANCH  11  14
ENDBRANCH   9  10
ENDBRANCH   3   9
BRANCH   6  19
ATOM     19  C   UNL     1      47.134   3.420  16.893  0.00  0.00    +0.000 C 
BRANCH  19  20
ATOM     20  N   UNL     1      46.834   4.410  15.875  0.00  0.00    +0.000 N 
ATOM     21  C   UNL     1      46.865   4.142  14.524  0.00  0.00    +0.000 C 
ATOM     22  O   UNL     1      47.260   3.096  14.052  0.00  0.00    +0.000 OA
ATOM     23  H   UNL     1      46.395   5.264  16.190  0.00  0.00    +0.000 HD
BRANCH  21  24
ATOM     24  C   UNL     1      46.413   5.261  13.676  0.00  0.00    +0.000 A 
ATOM     25  C   UNL     1      47.227   6.373  13.479  0.00  0.00    +0.000 A 
ATOM     26  S   UNL     1      46.557   7.522  12.408  0.00  0.00    +0.000 S 
ATOM     27  C   UNL     1      45.152   6.587  12.188  0.00  0.00    +0.000 A 
ATOM     28  N   UNL     1      44.147   7.008  11.374  0.00  0.00    +0.000 NA
ATOM     29  C   UNL     1      43.144   6.200  11.299  0.00  0.00    +0.000 A 
ATOM     30  N   UNL     1      43.054   5.007  11.969  0.00  0.00    +0.000 N 
ATOM     31  C   UNL     1      44.025   4.559  12.827  0.00  0.00    +0.000 A 
ATOM     32  O   UNL     1      43.863   3.527  13.481  0.00  0.00    +0.000 OA
ATOM     33  C   UNL     1      45.186   5.420  12.931  0.00  0.00    +0.000 A 
ATOM     34  H   UNL     1      42.231   4.429  11.883  0.00  0.00    +0.000 HD
ENDBRANCH  21  24
ENDBRANCH  19  20
ENDBRANCH   6  19
TORSDOF 7
ENDMDL
MODEL 7
REMARK VINA RESULT:    -7.518      2.338      3.345
REMARK INTER + INTRA:         -11.584
REMARK INTER:                 -10.264
REMARK INTRA:                  -1.320
REMARK UNBOUND:                -0.990
REMARK  Name = 
REMARK  8 active torsions:
REMARK  status: ('A' for Active; 'I' for Inactive)
REMARK    1  A    between atoms: C_1  and  O_2
REMARK    2  A    between atoms: O_2  and  C_3
REMARK    3  A    between atoms: C_5  and  C_6
REMARK    4  A    between atoms: C_6  and  N_7
REMARK    5  A    between atoms: C_8  and  C_10
REMARK    6  A    between atoms: C_17  and  C_18
REMARK    7  A    between atoms: C_18  and  N_19
REMARK    8  A    between atoms: C_20  and  C_22
REMARK                            x       y       z     vdW  Elec       q    Type
REMARK                         _______ _______ _______ _____ _____    ______ ____
ROOT
ATOM      1  C   UNL     1      46.529   5.917  12.876  0.00  0.00    +0.000 A 
ATOM      2  C   UNL     1      45.957   5.007  11.969  0.00  0.00    +0.000 A 
ATOM      3  C   UNL     1      45.038   5.409  10.989  0.00  0.00    +0.000 A 
ATOM      4  C   UNL     1      44.678   6.760  10.959  0.00  0.00    +0.000 A 
ATOM      5  C   UNL     1      45.267   7.684  11.838  0.00  0.00    +0.000 A 
ATOM      6  C   UNL     1      46.227   7.286  12.789  0.00  0.00    +0.000 A 
ENDROOT
BRANCH   1   8
ATOM      7  C   UNL     1      46.780   4.449  14.728  0.00  0.00    +0.000 C 
ATOM      8  O   UNL     1      47.320   5.494  13.920  0.00  0.00    +0.000 OA
ENDBRANCH   1   8
BRANCH   3   9
ATOM      9  C   UNL     1      44.419   4.424  10.017  0.00  0.00    +0.000 C 
BRANCH   9  10
ATOM     10  N   UNL     1      45.344   3.933   9.018  0.00  0.00    +0.000 N 
ATOM     11  C   UNL     1      45.355   2.618   8.607  0.00  0.00    +0.000 C 
ATOM     12  O   UNL     1      44.612   1.754   9.057  0.00  0.00    +0.000 OA
ATOM     13  H   UNL     1      45.803   4.593   8.413  0.00  0.00    +0.000 HD
BRANCH  11  14
ATOM     14  C   UNL     1      46.328   2.356   7.555  0.00  0.00    +0.000 A 
ATOM     15  C   UNL     1      46.693   3.138   6.413  0.00  0.00    +0.000 A 
ATOM     16  C   UNL     1      47.656   2.427   5.738  0.00  0.00    +0.000 A 
ATOM     17  O   UNL     1      47.917   1.261   6.380  0.00  0.00    +0.000 OA
ATOM     18  C   UNL     1      47.119   1.226   7.479  0.00  0.00    +0.000 A 
ENDBRANCH  11  14
ENDBRANCH   9  10
ENDBRANCH   3   9
BRANCH   6  19
ATOM     19  C   UNL     1      46.892   8.352  13.639  0.00  0.00    +0.000 C 
BRANCH  19  20
ATOM     20  N   UNL     1      48.305   8.098  13.849  0.00  0.00    +0.000 N 
ATOM     21  C   UNL     1      49.142   8.966  14.515  0.00  0.00    +0.000 C 
ATOM     22  O   UNL     1      48.811  10.074  14.883  0.00  0.00    +0.000 OA
ATOM     23  H   UNL     1      48.626   7.156  13.670  0.00  0.00    +0.000 HD
BRANCH  21  24
ATOM     24  C   UNL     1      50.511   8.452  14.714  0.00  0.00    +0.000 A 
ATOM     25  C   UNL     1      51.584   9.016  14.029  0.00  0.00    +0.000 A 
ATOM     26  S   UNL     1      53.090   8.334  14.453  0.00  0.00    +0.000 S 
ATOM     27  C   UNL     1      52.361   7.252  15.545  0.00  0.00    +0.000 A 
ATOM     28  N   UNL     1      53.106   6.363  16.257  0.00  0.00    +0.000 NA
ATOM     29  C   UNL     1      52.424   5.606  17.049  0.00  0.00    +0.000 A 
ATOM     30  N   UNL     1      51.061   5.655  17.191  0.00  0.00    +0.000 N 
ATOM     31  C   UNL     1      50.267   6.509  16.468  0.00  0.00    +0.000 A 
ATOM     32  O   UNL     1      49.039   6.456  16.556  0.00  0.00    +0.000 OA
ATOM     33  C   UNL     1      50.986   7.399  15.578  0.00  0.00    +0.000 A 
ATOM     34  H   UNL     1      50.584   5.020  17.813  0.00  0.00    +0.000 HD
ENDBRANCH  21  24
ENDBRANCH  19  20
ENDBRANCH   6  19
TORSDOF 7
ENDMDL
MODEL 8
REMARK VINA RESULT:    -7.420      2.348      2.979
REMARK INTER + INTRA:         -11.447
REMARK INTER:                 -10.303
REMARK INTRA:                  -1.144
REMARK UNBOUND:                -0.990
REMARK  Name = 
REMARK  8 active torsions:
REMARK  status: ('A' for Active; 'I' for Inactive)
REMARK    1  A    between atoms: C_1  and  O_2
REMARK    2  A    between atoms: O_2  and  C_3
REMARK    3  A    between atoms: C_5  and  C_6
REMARK    4  A    between atoms: C_6  and  N_7
REMARK    5  A    between atoms: C_8  and  C_10
REMARK    6  A    between atoms: C_17  and  C_18
REMARK    7  A    between atoms: C_18  and  N_19
REMARK    8  A    between atoms: C_20  and  C_22
REMARK                            x       y       z     vdW  Elec       q    Type
REMARK                         _______ _______ _______ _____ _____    ______ ____
ROOT
ATOM      1  C   UNL     1      46.827   6.022  13.079  0.00  0.00    +0.000 A 
ATOM      2  C   UNL     1      46.386   6.145  11.749  0.00  0.00    +0.000 A 
ATOM      3  C   UNL     1      45.626   5.148  11.120  0.00  0.00    +0.000 A 
ATOM      4  C   UNL     1      45.341   3.994  11.858  0.00  0.00    +0.000 A 
ATOM      5  C   UNL     1      45.747   3.874  13.197  0.00  0.00    +0.000 A 
ATOM      6  C   UNL     1      46.468   4.899  13.842  0.00  0.00    +0.000 A 
ENDROOT
BRANCH   1   8
ATOM      7  C   UNL     1      47.825   8.175  12.941  0.00  0.00    +0.000 C 
ATOM      8  O   UNL     1      47.685   6.939  13.641  0.00  0.00    +0.000 OA
ENDBRANCH   1   8
BRANCH   3   9
ATOM      9  C   UNL     1      45.158   5.281   9.685  0.00  0.00    +0.000 C 
BRANCH   9  10
ATOM     10  N   UNL     1      45.950   4.521   8.741  0.00  0.00    +0.000 N 
ATOM     11  C   UNL     1      45.502   3.343   8.185  0.00  0.00    +0.000 C 
ATOM     12  O   UNL     1      44.423   2.827   8.450  0.00  0.00    +0.000 OA
ATOM     13  H   UNL     1      46.714   4.976   8.269  0.00  0.00    +0.000 HD
BRANCH  11  14
ATOM     14  C   UNL     1      46.436   2.775   7.221  0.00  0.00    +0.000 A 
ATOM     15  C   UNL     1      46.787   3.209   5.904  0.00  0.00    +0.000 A 
ATOM     16  C   UNL     1      47.709   2.311   5.424  0.00  0.00    +0.000 A 
ATOM     17  O   UNL     1      47.957   1.351   6.349  0.00  0.00    +0.000 OA
ATOM     18  C   UNL     1      47.193   1.639   7.434  0.00  0.00    +0.000 A 
ENDBRANCH  11  14
ENDBRANCH   9  10
ENDBRANCH   3   9
BRANCH   6  19
ATOM     19  C   UNL     1      46.789   4.742  15.316  0.00  0.00    +0.000 C 
BRANCH  19  20
ATOM     20  N   UNL     1      48.182   5.017  15.616  0.00  0.00    +0.000 N 
ATOM     21  C   UNL     1      48.629   5.405  16.860  0.00  0.00    +0.000 C 
ATOM     22  O   UNL     1      47.895   5.670  17.789  0.00  0.00    +0.000 OA
ATOM     23  H   UNL     1      48.860   4.714  14.930  0.00  0.00    +0.000 HD
BRANCH  21  24
ATOM     24  C   UNL     1      50.096   5.515  16.968  0.00  0.00    +0.000 A 
ATOM     25  C   UNL     1      50.737   6.720  16.692  0.00  0.00    +0.000 A 
ATOM     26  S   UNL     1      52.424   6.664  16.947  0.00  0.00    +0.000 S 
ATOM     27  C   UNL     1      52.360   5.028  17.412  0.00  0.00    +0.000 A 
ATOM     28  N   UNL     1      53.487   4.352  17.764  0.00  0.00    +0.000 NA
ATOM     29  C   UNL     1      53.292   3.121  18.097  0.00  0.00    +0.000 A 
ATOM     30  N   UNL     1      52.068   2.501  18.106  0.00  0.00    +0.000 N 
ATOM     31  C   UNL     1      50.911   3.132  17.724  0.00  0.00    +0.000 A 
ATOM     32  O   UNL     1      49.847   2.513  17.657  0.00  0.00    +0.000 OA
ATOM     33  C   UNL     1      51.072   4.526  17.362  0.00  0.00    +0.000 A 
ATOM     34  H   UNL     1      51.985   1.528  18.357  0.00  0.00    +0.000 HD
ENDBRANCH  21  24
ENDBRANCH  19  20
ENDBRANCH   6  19
TORSDOF 7
ENDMDL
MODEL 9
REMARK VINA RESULT:    -7.359      2.247      3.540
REMARK INTER + INTRA:         -11.361
REMARK INTER:                 -10.095
REMARK INTRA:                  -1.266
REMARK UNBOUND:                -0.990
REMARK  Name = 
REMARK  8 active torsions:
REMARK  status: ('A' for Active; 'I' for Inactive)
REMARK    1  A    between atoms: C_1  and  O_2
REMARK    2  A    between atoms: O_2  and  C_3
REMARK    3  A    between atoms: C_5  and  C_6
REMARK    4  A    between atoms: C_6  and  N_7
REMARK    5  A    between atoms: C_8  and  C_10
REMARK    6  A    between atoms: C_17  and  C_18
REMARK    7  A    between atoms: C_18  and  N_19
REMARK    8  A    between atoms: C_20  and  C_22
REMARK                            x       y       z     vdW  Elec       q    Type
REMARK                         _______ _______ _______ _____ _____    ______ ____
ROOT
ATOM      1  C   UNL     1      46.997   5.463  13.313  0.00  0.00    +0.000 A 
ATOM      2  C   UNL     1      46.114   4.730  12.501  0.00  0.00    +0.000 A 
ATOM      3  C   UNL     1      45.330   5.340  11.510  0.00  0.00    +0.000 A 
ATOM      4  C   UNL     1      45.432   6.728  11.372  0.00  0.00    +0.000 A 
ATOM      5  C   UNL     1      46.334   7.467  12.155  0.00  0.00    +0.000 A 
ATOM      6  C   UNL     1      47.156   6.845  13.115  0.00  0.00    +0.000 A 
ENDROOT
BRANCH   1   8
ATOM      7  C   UNL     1      47.160   3.610  14.792  0.00  0.00    +0.000 C 
ATOM      8  O   UNL     1      47.656   4.881  14.371  0.00  0.00    +0.000 OA
ENDBRANCH   1   8
BRANCH   3   9
ATOM      9  C   UNL     1      44.375   4.546  10.640  0.00  0.00    +0.000 C 
BRANCH   9  10
ATOM     10  N   UNL     1      45.015   3.490   9.886  0.00  0.00    +0.000 N 
ATOM     11  C   UNL     1      45.556   3.702   8.636  0.00  0.00    +0.000 C 
ATOM     12  O   UNL     1      45.525   4.776   8.050  0.00  0.00    +0.000 OA
ATOM     13  H   UNL     1      45.319   2.662  10.369  0.00  0.00    +0.000 HD
BRANCH  11  14
ATOM     14  C   UNL     1      46.197   2.516   8.084  0.00  0.00    +0.000 A 
ATOM     15  C   UNL     1      46.003   1.131   8.385  0.00  0.00    +0.000 A 
ATOM     16  C   UNL     1      46.870   0.426   7.585  0.00  0.00    +0.000 A 
ATOM     17  O   UNL     1      47.588   1.275   6.807  0.00  0.00    +0.000 OA
ATOM     18  C   UNL     1      47.174   2.533   7.106  0.00  0.00    +0.000 A 
ENDBRANCH  11  14
ENDBRANCH   9  10
ENDBRANCH   3   9
BRANCH   6  19
ATOM     19  C   UNL     1      48.175   7.691  13.855  0.00  0.00    +0.000 C 
BRANCH  19  20
ATOM     20  N   UNL     1      48.054   7.577  15.297  0.00  0.00    +0.000 N 
ATOM     21  C   UNL     1      49.063   7.108  16.109  0.00  0.00    +0.000 C 
ATOM     22  O   UNL     1      50.100   6.634  15.693  0.00  0.00    +0.000 OA
ATOM     23  H   UNL     1      47.269   8.050  15.723  0.00  0.00    +0.000 HD
BRANCH  21  24
ATOM     24  C   UNL     1      48.764   7.188  17.552  0.00  0.00    +0.000 A 
ATOM     25  C   UNL     1      48.916   6.072  18.369  0.00  0.00    +0.000 A 
ATOM     26  S   UNL     1      48.594   6.388  20.015  0.00  0.00    +0.000 S 
ATOM     27  C   UNL     1      48.220   8.016  19.691  0.00  0.00    +0.000 A 
ATOM     28  N   UNL     1      47.852   8.866  20.689  0.00  0.00    +0.000 NA
ATOM     29  C   UNL     1      47.601  10.071  20.301  0.00  0.00    +0.000 A 
ATOM     30  N   UNL     1      47.681  10.503  19.002  0.00  0.00    +0.000 N 
ATOM     31  C   UNL     1      48.012   9.675  17.960  0.00  0.00    +0.000 A 
ATOM     32  O   UNL     1      47.981  10.080  16.796  0.00  0.00    +0.000 OA
ATOM     33  C   UNL     1      48.327   8.313  18.344  0.00  0.00    +0.000 A 
ATOM     34  H   UNL     1      47.451  11.455  18.761  0.00  0.00    +0.000 HD
ENDBRANCH  21  24
ENDBRANCH  19  20
ENDBRANCH   6  19
TORSDOF 7
ENDMDL
