MODEL 1
REMARK VINA RESULT:    -8.260      0.000      0.000
REMARK INTER + INTRA:         -11.174
REMARK INTER:                 -10.675
REMARK INTRA:                  -0.499
REMARK UNBOUND:                -0.499
REMARK  Name = 
REMARK  6 active torsions:
REMARK  status: ('A' for Active; 'I' for Inactive)
REMARK    1  A    between atoms: C_1  and  C_2
REMARK    2  A    between atoms: C_2  and  N_3
REMARK    3  A    between atoms: C_2  and  C_16
REMARK    4  A    between atoms: C_4  and  C_6
REMARK    5  A    between atoms: C_19  and  O_20
REMARK    6  A    between atoms: O_20  and  C_21
REMARK                            x       y       z     vdW  Elec       q    Type
REMARK                         _______ _______ _______ _____ _____    ______ ____
ROOT
ATOM      1  C   UNL     1      42.933   5.123  13.261  0.00  0.00    +0.000 C 
ATOM      2  C   UNL     1      44.279   4.486  12.915  0.00  0.00    +0.000 C 
ENDROOT
BRANCH   2   3
ATOM      3  C   UNL     1      44.562   4.383  11.427  0.00  0.00    +0.000 A 
ATOM      4  C   UNL     1      43.984   3.322  10.715  0.00  0.00    +0.000 A 
ATOM      5  C   UNL     1      44.221   3.161   9.350  0.00  0.00    +0.000 A 
ATOM      6  C   UNL     1      44.990   4.096   8.653  0.00  0.00    +0.000 A 
ATOM      7  C   UNL     1      45.610   5.129   9.355  0.00  0.00    +0.000 A 
ATOM      8  C   UNL     1      45.408   5.265  10.734  0.00  0.00    +0.000 A 
BRANCH   6   9
ATOM      9  O   UNL     1      45.219   4.048   7.293  0.00  0.00    +0.000 OA
BRANCH   9  10
ATOM     10  C   UNL     1      46.222   3.243   6.813  0.00  0.00    +0.000 A 
ATOM     11  C   UNL     1      46.862   3.423   5.586  0.00  0.00    +0.000 A 
ATOM     12  C   UNL     1      47.801   2.493   5.155  0.00  0.00    +0.000 A 
ATOM     13  C   UNL     1      48.130   1.452   6.007  0.00  0.00    +0.000 A 
ATOM     14  N   UNL     1      47.592   1.288   7.235  0.00  0.00    +0.000 NA
ATOM     15  C   UNL     1      46.650   2.190   7.610  0.00  0.00    +0.000 A 
ENDBRANCH   9  10
ENDBRANCH   6   9
ENDBRANCH   2   3
BRANCH   2  16
ATOM     16  N   UNL     1      45.370   5.185  13.567  0.00  0.00    +0.000 N 
ATOM     17  C   UNL     1      46.454   4.520  14.083  0.00  0.00    +0.000 C 
ATOM     18  O   UNL     1      46.588   3.304  13.978  0.00  0.00    +0.000 OA
ATOM     19  H   UNL     1      45.215   6.158  13.808  0.00  0.00    +0.000 HD
BRANCH  17  20
ATOM     20  C   UNL     1      47.485   5.345  14.721  0.00  0.00    +0.000 A 
ATOM     21  C   UNL     1      48.149   6.313  13.980  0.00  0.00    +0.000 A 
ATOM     22  S   UNL     1      49.318   7.174  14.874  0.00  0.00    +0.000 S 
ATOM     23  C   UNL     1      49.005   6.254  16.270  0.00  0.00    +0.000 A 
ATOM     24  N   UNL     1      49.713   6.457  17.414  0.00  0.00    +0.000 NA
ATOM     25  C   UNL     1      49.390   5.673  18.387  0.00  0.00    +0.000 A 
ATOM     26  N   UNL     1      48.419   4.706  18.322  0.00  0.00    +0.000 N 
ATOM     27  C   UNL     1      47.643   4.493  17.207  0.00  0.00    +0.000 A 
ATOM     28  O   UNL     1      46.723   3.687  17.206  0.00  0.00    +0.000 OA
ATOM     29  C   UNL     1      47.998   5.327  16.068  0.00  0.00    +0.000 A 
ATOM     30  H   UNL     1      48.198   4.141  19.129  0.00  0.00    +0.000 HD
ENDBRANCH  17  20
ENDBRANCH   2  16
TORSDOF 5
ENDMDL
MODEL 2
REMARK VINA RESULT:    -8.092      1.846      2.420
REMARK INTER + INTRA:         -10.957
REMARK INTER:                 -10.878
REMARK INTRA:                  -0.079
REMARK UNBOUND:                -0.499
REMARK  Name = 
REMARK  6 active torsions:
REMARK  status: ('A' for Active; 'I' for Inactive)
REMARK    1  A    between atoms: C_1  and  C_2
REMARK    2  A    between atoms: C_2  and  N_3
REMARK    3  A    between atoms: C_2  and  C_16
REMARK    4  A    between atoms: C_4  and  C_6
REMARK    5  A    between atoms: C_19  and  O_20
REMARK    6  A    between atoms: O_20  and  C_21
REMARK                            x       y       z     vdW  Elec       q    Type
REMARK                         _______ _______ _______ _____ _____    ______ ____
ROOT
ATOM      1  C   UNL     1      46.343   8.916  11.894  0.00  0.00    +0.000 C 
ATOM      2  C   UNL     1      45.618   7.754  12.574  0.00  0.00    +0.000 C 
ENDROOT
BRANCH   2   3
ATOM      3  C   UNL     1      45.280   6.597  11.649  0.00  0.00    +0.000 A 
ATOM      4  C   UNL     1      44.202   5.769  11.994  0.00  0.00    +0.000 A 
ATOM      5  C   UNL     1      43.854   4.678  11.196  0.00  0.00    +0.000 A 
ATOM      6  C   UNL     1      44.534   4.432  10.002  0.00  0.00    +0.000 A 
ATOM      7  C   UNL     1      45.637   5.218   9.670  0.00  0.00    +0.000 A 
ATOM      8  C   UNL     1      46.015   6.286  10.494  0.00  0.00    +0.000 A 
BRANCH   6   9
ATOM      9  O   UNL     1      44.212   3.417   9.125  0.00  0.00    +0.000 OA
BRANCH   9  10
ATOM     10  C   UNL     1      45.207   2.849   8.366  0.00  0.00    +0.000 A 
ATOM     11  C   UNL     1      45.817   3.465   7.273  0.00  0.00    +0.000 A 
ATOM     12  C   UNL     1      46.749   2.762   6.517  0.00  0.00    +0.000 A 
ATOM     13  C   UNL     1      47.100   1.489   6.931  0.00  0.00    +0.000 A 
ATOM     14  N   UNL     1      46.592   0.889   8.030  0.00  0.00    +0.000 NA
ATOM     15  C   UNL     1      45.657   1.585   8.723  0.00  0.00    +0.000 A 
ENDBRANCH   9  10
ENDBRANCH   6   9
ENDBRANCH   2   3
BRANCH   2  16
ATOM     16  N   UNL     1      46.374   7.260  13.709  0.00  0.00    +0.000 N 
ATOM     17  C   UNL     1      47.717   6.992  13.627  0.00  0.00    +0.000 C 
ATOM     18  O   UNL     1      48.367   7.204  12.606  0.00  0.00    +0.000 OA
ATOM     19  H   UNL     1      45.843   6.929  14.508  0.00  0.00    +0.000 HD
BRANCH  17  20
ATOM     20  C   UNL     1      48.362   6.494  14.846  0.00  0.00    +0.000 A 
ATOM     21  C   UNL     1      49.421   7.197  15.402  0.00  0.00    +0.000 A 
ATOM     22  S   UNL     1      50.055   6.476  16.811  0.00  0.00    +0.000 S 
ATOM     23  C   UNL     1      48.962   5.177  16.701  0.00  0.00    +0.000 A 
ATOM     24  N   UNL     1      48.997   4.155  17.599  0.00  0.00    +0.000 NA
ATOM     25  C   UNL     1      48.130   3.225  17.383  0.00  0.00    +0.000 A 
ATOM     26  N   UNL     1      47.224   3.225  16.351  0.00  0.00    +0.000 N 
ATOM     27  C   UNL     1      47.115   4.254  15.447  0.00  0.00    +0.000 A 
ATOM     28  O   UNL     1      46.239   4.272  14.593  0.00  0.00    +0.000 OA
ATOM     29  C   UNL     1      48.101   5.310  15.626  0.00  0.00    +0.000 A 
ATOM     30  H   UNL     1      46.554   2.476  16.252  0.00  0.00    +0.000 HD
ENDBRANCH  17  20
ENDBRANCH   2  16
TORSDOF 5
ENDMDL
MODEL 3
REMARK VINA RESULT:    -8.041      1.776      2.362
REMARK INTER + INTRA:         -10.891
REMARK INTER:                 -10.797
REMARK INTRA:                  -0.094
REMARK UNBOUND:                -0.499
REMARK  Name = 
REMARK  6 active torsions:
REMARK  status: ('A' for Active; 'I' for Inactive)
REMARK    1  A    between atoms: C_1  and  C_2
REMARK    2  A    between atoms: C_2  and  N_3
REMARK    3  A    between atoms: C_2  and  C_16
REMARK    4  A    between atoms: C_4  and  C_6
REMARK    5  A    between atoms: C_19  and  O_20
REMARK    6  A    between atoms: O_20  and  C_21
REMARK                            x       y       z     vdW  Elec       q    Type
REMARK                         _______ _______ _______ _____ _____    ______ ____
ROOT
ATOM      1  C   UNL     1      46.461   7.620  12.397  0.00  0.00    +0.000 C 
ATOM      2  C   UNL     1      45.576   6.443  12.808  0.00  0.00    +0.000 C 
ENDROOT
BRANCH   2   3
ATOM      3  C   UNL     1      45.380   5.396  11.726  0.00  0.00    +0.000 A 
ATOM      4  C   UNL     1      45.612   5.770  10.394  0.00  0.00    +0.000 A 
ATOM      5  C   UNL     1      45.430   4.859   9.353  0.00  0.00    +0.000 A 
ATOM      6  C   UNL     1      45.076   3.537   9.626  0.00  0.00    +0.000 A 
ATOM      7  C   UNL     1      44.796   3.162  10.939  0.00  0.00    +0.000 A 
ATOM      8  C   UNL     1      44.935   4.089  11.981  0.00  0.00    +0.000 A 
BRANCH   6   9
ATOM      9  O   UNL     1      44.940   2.558   8.663  0.00  0.00    +0.000 OA
BRANCH   9  10
ATOM     10  C   UNL     1      45.909   2.432   7.697  0.00  0.00    +0.000 A 
ATOM     11  C   UNL     1      46.070   3.304   6.619  0.00  0.00    +0.000 A 
ATOM     12  C   UNL     1      47.026   3.030   5.648  0.00  0.00    +0.000 A 
ATOM     13  C   UNL     1      47.848   1.931   5.830  0.00  0.00    +0.000 A 
ATOM     14  N   UNL     1      47.778   1.110   6.900  0.00  0.00    +0.000 NA
ATOM     15  C   UNL     1      46.809   1.381   7.810  0.00  0.00    +0.000 A 
ENDBRANCH   9  10
ENDBRANCH   6   9
ENDBRANCH   2   3
BRANCH   2  16
ATOM     16  N   UNL     1      46.079   5.807  14.010  0.00  0.00    +0.000 N 
ATOM     17  C   UNL     1      47.402   5.472  14.157  0.00  0.00    +0.000 C 
ATOM     18  O   UNL     1      48.243   5.738  13.302  0.00  0.00    +0.000 OA
ATOM     19  H   UNL     1      45.392   5.436  14.658  0.00  0.00    +0.000 HD
BRANCH  17  20
ATOM     20  C   UNL     1      47.779   4.830  15.420  0.00  0.00    +0.000 A 
ATOM     21  C   UNL     1      47.473   3.493  15.631  0.00  0.00    +0.000 A 
ATOM     22  S   UNL     1      47.978   2.909  17.151  0.00  0.00    +0.000 S 
ATOM     23  C   UNL     1      48.585   4.435  17.594  0.00  0.00    +0.000 A 
ATOM     24  N   UNL     1      49.130   4.641  18.824  0.00  0.00    +0.000 NA
ATOM     25  C   UNL     1      49.527   5.850  19.036  0.00  0.00    +0.000 A 
ATOM     26  N   UNL     1      49.434   6.873  18.127  0.00  0.00    +0.000 N 
ATOM     27  C   UNL     1      48.937   6.708  16.856  0.00  0.00    +0.000 A 
ATOM     28  O   UNL     1      48.950   7.615  16.036  0.00  0.00    +0.000 OA
ATOM     29  C   UNL     1      48.439   5.368  16.583  0.00  0.00    +0.000 A 
ATOM     30  H   UNL     1      49.787   7.794  18.347  0.00  0.00    +0.000 HD
ENDBRANCH  17  20
ENDBRANCH   2  16
TORSDOF 5
ENDMDL
MODEL 4
REMARK VINA RESULT:    -7.571      2.329      3.710
REMARK INTER + INTRA:         -10.283
REMARK INTER:                  -9.110
REMARK INTRA:                  -1.173
REMARK UNBOUND:                -0.499
REMARK  Name = 
REMARK  6 active torsions:
REMARK  status: ('A' for Active; 'I' for Inactive)
REMARK    1  A    between atoms: C_1  and  C_2
REMARK    2  A    between atoms: C_2  and  N_3
REMARK    3  A    between atoms: C_2  and  C_16
REMARK    4  A    between atoms: C_4  and  C_6
REMARK    5  A    between atoms: C_19  and  O_20
REMARK    6  A    between atoms: O_20  and  C_21
REMARK                            x       y       z     vdW  Elec       q    Type
REMARK                         _______ _______ _______ _____ _____    ______ ____
ROOT
ATOM      1  C   UNL     1      48.118   9.141  13.003  0.00  0.00    +0.000 C 
ATOM      2  C   UNL     1      47.369   8.080  13.811  0.00  0.00    +0.000 C 
ENDROOT
BRANCH   2   3
ATOM      3  C   UNL     1      46.493   7.159  12.981  0.00  0.00    +0.000 A 
ATOM      4  C   UNL     1      45.511   7.738  12.163  0.00  0.00    +0.000 A 
ATOM      5  C   UNL     1      44.662   6.945  11.392  0.00  0.00    +0.000 A 
ATOM      6  C   UNL     1      44.819   5.558  11.370  0.00  0.00    +0.000 A 
ATOM      7  C   UNL     1      45.758   4.964  12.212  0.00  0.00    +0.000 A 
ATOM      8  C   UNL     1      46.581   5.758  13.021  0.00  0.00    +0.000 A 
BRANCH   6   9
ATOM      9  O   UNL     1      44.066   4.707  10.587  0.00  0.00    +0.000 OA
BRANCH   9  10
ATOM     10  C   UNL     1      44.700   3.924   9.653  0.00  0.00    +0.000 A 
ATOM     11  C   UNL     1      44.696   2.528   9.658  0.00  0.00    +0.000 A 
ATOM     12  C   UNL     1      45.449   1.833   8.718  0.00  0.00    +0.000 A 
ATOM     13  C   UNL     1      46.118   2.561   7.749  0.00  0.00    +0.000 A 
ATOM     14  N   UNL     1      46.080   3.908   7.661  0.00  0.00    +0.000 NA
ATOM     15  C   UNL     1      45.370   4.559   8.616  0.00  0.00    +0.000 A 
ENDBRANCH   9  10
ENDBRANCH   6   9
ENDBRANCH   2   3
BRANCH   2  16
ATOM     16  N   UNL     1      48.286   7.287  14.606  0.00  0.00    +0.000 N 
ATOM     17  C   UNL     1      48.718   7.697  15.842  0.00  0.00    +0.000 C 
ATOM     18  O   UNL     1      48.315   8.732  16.368  0.00  0.00    +0.000 OA
ATOM     19  H   UNL     1      48.755   6.518  14.140  0.00  0.00    +0.000 HD
BRANCH  17  20
ATOM     20  C   UNL     1      49.649   6.805  16.541  0.00  0.00    +0.000 A 
ATOM     21  C   UNL     1      50.895   7.276  16.930  0.00  0.00    +0.000 A 
ATOM     22  S   UNL     1      51.849   6.107  17.724  0.00  0.00    +0.000 S 
ATOM     23  C   UNL     1      50.646   4.920  17.536  0.00  0.00    +0.000 A 
ATOM     24  N   UNL     1      50.846   3.646  17.968  0.00  0.00    +0.000 NA
ATOM     25  C   UNL     1      49.862   2.843  17.740  0.00  0.00    +0.000 A 
ATOM     26  N   UNL     1      48.691   3.201  17.121  0.00  0.00    +0.000 N 
ATOM     27  C   UNL     1      48.418   4.483  16.709  0.00  0.00    +0.000 A 
ATOM     28  O   UNL     1      47.331   4.794  16.243  0.00  0.00    +0.000 OA
ATOM     29  C   UNL     1      49.516   5.417  16.909  0.00  0.00    +0.000 A 
ATOM     30  H   UNL     1      47.948   2.528  16.994  0.00  0.00    +0.000 HD
ENDBRANCH  17  20
ENDBRANCH   2  16
TORSDOF 5
ENDMDL
MODEL 5
REMARK VINA RESULT:    -7.482      4.016      8.856
REMARK INTER + INTRA:         -10.169
REMARK INTER:                  -9.593
REMARK INTRA:                  -0.576
REMARK UNBOUND:                -0.499
REMARK  Name = 
REMARK  6 active torsions:
REMARK  status: ('A' for Active; 'I' for Inactive)
REMARK    1  A    between atoms: C_1  and  C_2
REMARK    2  A    between atoms: C_2  and  N_3
REMARK    3  A    between atoms: C_2  and  C_16
REMARK    4  A    between atoms: C_4  and  C_6
REMARK    5  A    between atoms: C_19  and  O_20
REMARK    6  A    between atoms: O_20  and  C_21
REMARK                            x       y       z     vdW  Elec       q    Type
REMARK                         _______ _______ _______ _____ _____    ______ ____
ROOT
ATOM      1  C   UNL     1      47.569   5.846  18.465  0.00  0.00    +0.000 C 
ATOM      2  C   UNL     1      48.443   5.624  17.230  0.00  0.00    +0.000 C 
ENDROOT
BRANCH   2   3
ATOM      3  C   UNL     1      49.270   4.351  17.266  0.00  0.00    +0.000 A 
ATOM      4  C   UNL     1      50.652   4.465  17.478  0.00  0.00    +0.000 A 
ATOM      5  C   UNL     1      51.469   3.335  17.502  0.00  0.00    +0.000 A 
ATOM      6  C   UNL     1      50.913   2.060  17.381  0.00  0.00    +0.000 A 
ATOM      7  C   UNL     1      49.549   1.932  17.123  0.00  0.00    +0.000 A 
ATOM      8  C   UNL     1      48.734   3.070  17.054  0.00  0.00    +0.000 A 
BRANCH   6   9
ATOM      9  O   UNL     1      51.639   0.890  17.459  0.00  0.00    +0.000 OA
BRANCH   9  10
ATOM     10  C   UNL     1      52.991   0.957  17.694  0.00  0.00    +0.000 A 
ATOM     11  C   UNL     1      53.582   1.716  18.706  0.00  0.00    +0.000 A 
ATOM     12  C   UNL     1      54.967   1.786  18.796  0.00  0.00    +0.000 A 
ATOM     13  C   UNL     1      55.719   1.026  17.916  0.00  0.00    +0.000 A 
ATOM     14  N   UNL     1      55.185   0.216  16.976  0.00  0.00    +0.000 NA
ATOM     15  C   UNL     1      53.831   0.200  16.888  0.00  0.00    +0.000 A 
ENDBRANCH   9  10
ENDBRANCH   6   9
ENDBRANCH   2   3
BRANCH   2  16
ATOM     16  N   UNL     1      47.648   5.649  16.018  0.00  0.00    +0.000 N 
ATOM     17  C   UNL     1      48.137   6.147  14.837  0.00  0.00    +0.000 C 
ATOM     18  O   UNL     1      49.292   6.553  14.726  0.00  0.00    +0.000 OA
ATOM     19  H   UNL     1      46.653   5.472  16.115  0.00  0.00    +0.000 HD
BRANCH  17  20
ATOM     20  C   UNL     1      47.229   6.119  13.686  0.00  0.00    +0.000 A 
ATOM     21  C   UNL     1      46.911   7.299  13.030  0.00  0.00    +0.000 A 
ATOM     22  S   UNL     1      45.840   7.085  11.721  0.00  0.00    +0.000 S 
ATOM     23  C   UNL     1      45.732   5.413  12.013  0.00  0.00    +0.000 A 
ATOM     24  N   UNL     1      44.925   4.621  11.257  0.00  0.00    +0.000 NA
ATOM     25  C   UNL     1      44.919   3.379  11.604  0.00  0.00    +0.000 A 
ATOM     26  N   UNL     1      45.654   2.853  12.637  0.00  0.00    +0.000 N 
ATOM     27  C   UNL     1      46.521   3.599  13.400  0.00  0.00    +0.000 A 
ATOM     28  O   UNL     1      47.231   3.088  14.255  0.00  0.00    +0.000 OA
ATOM     29  C   UNL     1      46.531   5.017  13.072  0.00  0.00    +0.000 A 
ATOM     30  H   UNL     1      45.623   1.865  12.842  0.00  0.00    +0.000 HD
ENDBRANCH  17  20
ENDBRANCH   2  16
TORSDOF 5
ENDMDL
MODEL 6
REMARK VINA RESULT:    -7.306      2.827      4.017
REMARK INTER + INTRA:          -9.940
REMARK INTER:                  -8.817
REMARK INTRA:                  -1.123
REMARK UNBOUND:                -0.499
REMARK  Name = 
REMARK  6 active torsions:
REMARK  status: ('A' for Active; 'I' for Inactive)
REMARK    1  A    between atoms: C_1  and  C_2
REMARK    2  A    between atoms: C_2  and  N_3
REMARK    3  A    between atoms: C_2  and  C_16
REMARK    4  A    between atoms: C_4  and  C_6
REMARK    5  A    between atoms: C_19  and  O_20
REMARK    6  A    between atoms: O_20  and  C_21
REMARK                            x       y       z     vdW  Elec       q    Type
REMARK                         _______ _______ _______ _____ _____    ______ ____
ROOT
ATOM      1  C   UNL     1      47.356   3.989  16.567  0.00  0.00    +0.000 C 
ATOM      2  C   UNL     1      47.759   4.825  15.352  0.00  0.00    +0.000 C 
ENDROOT
BRANCH   2   3
ATOM      3  C   UNL     1      46.876   4.629  14.133  0.00  0.00    +0.000 A 
ATOM      4  C   UNL     1      46.356   5.769  13.502  0.00  0.00    +0.000 A 
ATOM      5  C   UNL     1      45.522   5.655  12.390  0.00  0.00    +0.000 A 
ATOM      6  C   UNL     1      45.242   4.401  11.844  0.00  0.00    +0.000 A 
ATOM      7  C   UNL     1      45.712   3.256  12.487  0.00  0.00    +0.000 A 
ATOM      8  C   UNL     1      46.513   3.369  13.631  0.00  0.00    +0.000 A 
BRANCH   6   9
ATOM      9  O   UNL     1      44.482   4.204  10.709  0.00  0.00    +0.000 OA
BRANCH   9  10
ATOM     10  C   UNL     1      45.100   3.788   9.555  0.00  0.00    +0.000 A 
ATOM     11  C   UNL     1      45.175   2.460   9.133  0.00  0.00    +0.000 A 
ATOM     12  C   UNL     1      45.907   2.139   7.995  0.00  0.00    +0.000 A 
ATOM     13  C   UNL     1      46.474   3.172   7.269  0.00  0.00    +0.000 A 
ATOM     14  N   UNL     1      46.356   4.476   7.600  0.00  0.00    +0.000 NA
ATOM     15  C   UNL     1      45.670   4.754   8.737  0.00  0.00    +0.000 A 
ENDBRANCH   9  10
ENDBRANCH   6   9
ENDBRANCH   2   3
BRANCH   2  16
ATOM     16  N   UNL     1      47.817   6.235  15.685  0.00  0.00    +0.000 N 
ATOM     17  C   UNL     1      49.005   6.875  15.934  0.00  0.00    +0.000 C 
ATOM     18  O   UNL     1      50.089   6.306  15.839  0.00  0.00    +0.000 OA
ATOM     19  H   UNL     1      46.942   6.689  15.925  0.00  0.00    +0.000 HD
BRANCH  17  20
ATOM     20  C   UNL     1      48.924   8.302  16.265  0.00  0.00    +0.000 A 
ATOM     21  C   UNL     1      49.470   9.241  15.400  0.00  0.00    +0.000 A 
ATOM     22  S   UNL     1      49.292  10.849  15.940  0.00  0.00    +0.000 S 
ATOM     23  C   UNL     1      48.518  10.341  17.367  0.00  0.00    +0.000 A 
ATOM     24  N   UNL     1      48.133  11.240  18.312  0.00  0.00    +0.000 NA
ATOM     25  C   UNL     1      47.581  10.716  19.354  0.00  0.00    +0.000 A 
ATOM     26  N   UNL     1      47.375   9.372  19.535  0.00  0.00    +0.000 N 
ATOM     27  C   UNL     1      47.701   8.426  18.593  0.00  0.00    +0.000 A 
ATOM     28  O   UNL     1      47.423   7.245  18.741  0.00  0.00    +0.000 OA
ATOM     29  C   UNL     1      48.364   8.966  17.415  0.00  0.00    +0.000 A 
ATOM     30  H   UNL     1      46.914   9.028  20.366  0.00  0.00    +0.000 HD
ENDBRANCH  17  20
ENDBRANCH   2  16
TORSDOF 5
ENDMDL
MODEL 7
REMARK VINA RESULT:    -7.230      2.548      4.140
REMARK INTER + INTRA:          -9.843
REMARK INTER:                  -8.925
REMARK INTRA:                  -0.918
REMARK UNBOUND:                -0.499
REMARK  Name = 
REMARK  6 active torsions:
REMARK  status: ('A' for Active; 'I' for Inactive)
REMARK    1  A    between atoms: C_1  and  C_2
REMARK    2  A    between atoms: C_2  and  N_3
REMARK    3  A    between atoms: C_2  and  C_16
REMARK    4  A    between atoms: C_4  and  C_6
REMARK    5  A    between atoms: C_19  and  O_20
REMARK    6  A    between atoms: O_20  and  C_21
REMARK                            x       y       z     vdW  Elec       q    Type
REMARK                         _______ _______ _______ _____ _____    ______ ____
ROOT
ATOM      1  C   UNL     1      49.701   7.679  13.396  0.00  0.00    +0.000 C 
ATOM      2  C   UNL     1      48.258   7.843  13.877  0.00  0.00    +0.000 C 
ENDROOT
BRANCH   2   3
ATOM      3  C   UNL     1      47.236   7.050  13.082  0.00  0.00    +0.000 A 
ATOM      4  C   UNL     1      46.415   7.744  12.182  0.00  0.00    +0.000 A 
ATOM      5  C   UNL     1      45.443   7.076  11.437  0.00  0.00    +0.000 A 
ATOM      6  C   UNL     1      45.317   5.688  11.527  0.00  0.00    +0.000 A 
ATOM      7  C   UNL     1      46.093   4.990  12.451  0.00  0.00    +0.000 A 
ATOM      8  C   UNL     1      47.038   5.668  13.232  0.00  0.00    +0.000 A 
BRANCH   6   9
ATOM      9  O   UNL     1      44.429   4.943  10.778  0.00  0.00    +0.000 OA
BRANCH   9  10
ATOM     10  C   UNL     1      44.915   4.104   9.805  0.00  0.00    +0.000 A 
ATOM     11  C   UNL     1      44.767   2.716   9.811  0.00  0.00    +0.000 A 
ATOM     12  C   UNL     1      45.381   1.953   8.824  0.00  0.00    +0.000 A 
ATOM     13  C   UNL     1      46.058   2.614   7.813  0.00  0.00    +0.000 A 
ATOM     14  N   UNL     1      46.155   3.958   7.728  0.00  0.00    +0.000 NA
ATOM     15  C   UNL     1      45.579   4.673   8.727  0.00  0.00    +0.000 A 
ENDBRANCH   9  10
ENDBRANCH   6   9
ENDBRANCH   2   3
BRANCH   2  16
ATOM     16  N   UNL     1      48.137   7.514  15.284  0.00  0.00    +0.000 N 
ATOM     17  C   UNL     1      48.610   8.345  16.269  0.00  0.00    +0.000 C 
ATOM     18  O   UNL     1      49.115   9.436  16.018  0.00  0.00    +0.000 OA
ATOM     19  H   UNL     1      47.873   6.562  15.514  0.00  0.00    +0.000 HD
BRANCH  17  20
ATOM     20  C   UNL     1      48.428   7.892  17.651  0.00  0.00    +0.000 A 
ATOM     21  C   UNL     1      48.027   8.795  18.625  0.00  0.00    +0.000 A 
ATOM     22  S   UNL     1      47.870   8.103  20.175  0.00  0.00    +0.000 S 
ATOM     23  C   UNL     1      48.374   6.582  19.605  0.00  0.00    +0.000 A 
ATOM     24  N   UNL     1      48.503   5.526  20.453  0.00  0.00    +0.000 NA
ATOM     25  C   UNL     1      48.918   4.440  19.892  0.00  0.00    +0.000 A 
ATOM     26  N   UNL     1      49.210   4.312  18.557  0.00  0.00    +0.000 N 
ATOM     27  C   UNL     1      49.051   5.334  17.651  0.00  0.00    +0.000 A 
ATOM     28  O   UNL     1      49.232   5.167  16.453  0.00  0.00    +0.000 OA
ATOM     29  C   UNL     1      48.623   6.592  18.244  0.00  0.00    +0.000 A 
ATOM     30  H   UNL     1      49.508   3.426  18.176  0.00  0.00    +0.000 HD
ENDBRANCH  17  20
ENDBRANCH   2  16
TORSDOF 5
ENDMDL
MODEL 8
REMARK VINA RESULT:    -7.198      4.135      8.459
REMARK INTER + INTRA:          -9.802
REMARK INTER:                  -8.559
REMARK INTRA:                  -1.243
REMARK UNBOUND:                -0.499
REMARK  Name = 
REMARK  6 active torsions:
REMARK  status: ('A' for Active; 'I' for Inactive)
REMARK    1  A    between atoms: C_1  and  C_2
REMARK    2  A    between atoms: C_2  and  N_3
REMARK    3  A    between atoms: C_2  and  C_16
REMARK    4  A    between atoms: C_4  and  C_6
REMARK    5  A    between atoms: C_19  and  O_20
REMARK    6  A    between atoms: O_20  and  C_21
REMARK                            x       y       z     vdW  Elec       q    Type
REMARK                         _______ _______ _______ _____ _____    ______ ____
ROOT
ATOM      1  C   UNL     1      48.421   9.093  14.719  0.00  0.00    +0.000 C 
ATOM      2  C   UNL     1      48.567   7.620  14.337  0.00  0.00    +0.000 C 
ENDROOT
BRANCH   2   3
ATOM      3  C   UNL     1      49.070   6.726  15.457  0.00  0.00    +0.000 A 
ATOM      4  C   UNL     1      48.191   5.772  15.988  0.00  0.00    +0.000 A 
ATOM      5  C   UNL     1      48.587   4.935  17.032  0.00  0.00    +0.000 A 
ATOM      6  C   UNL     1      49.893   4.989  17.522  0.00  0.00    +0.000 A 
ATOM      7  C   UNL     1      50.765   5.963  17.036  0.00  0.00    +0.000 A 
ATOM      8  C   UNL     1      50.353   6.834  16.020  0.00  0.00    +0.000 A 
BRANCH   6   9
ATOM      9  O   UNL     1      50.385   4.154  18.504  0.00  0.00    +0.000 OA
BRANCH   9  10
ATOM     10  C   UNL     1      51.232   3.132  18.150  0.00  0.00    +0.000 A 
ATOM     11  C   UNL     1      52.591   3.086  18.464  0.00  0.00    +0.000 A 
ATOM     12  C   UNL     1      53.377   2.049  17.975  0.00  0.00    +0.000 A 
ATOM     13  C   UNL     1      52.757   1.044  17.251  0.00  0.00    +0.000 A 
ATOM     14  N   UNL     1      51.432   1.010  16.995  0.00  0.00    +0.000 NA
ATOM     15  C   UNL     1      50.699   2.057  17.452  0.00  0.00    +0.000 A 
ENDBRANCH   9  10
ENDBRANCH   6   9
ENDBRANCH   2   3
BRANCH   2  16
ATOM     16  N   UNL     1      47.320   7.090  13.820  0.00  0.00    +0.000 N 
ATOM     17  C   UNL     1      47.050   7.048  12.475  0.00  0.00    +0.000 C 
ATOM     18  O   UNL     1      47.867   7.407  11.631  0.00  0.00    +0.000 OA
ATOM     19  H   UNL     1      46.572   6.936  14.487  0.00  0.00    +0.000 HD
BRANCH  17  20
ATOM     20  C   UNL     1      45.751   6.492  12.084  0.00  0.00    +0.000 A 
ATOM     21  C   UNL     1      44.798   7.314  11.499  0.00  0.00    +0.000 A 
ATOM     22  S   UNL     1      43.346   6.508  11.113  0.00  0.00    +0.000 S 
ATOM     23  C   UNL     1      43.926   5.043  11.754  0.00  0.00    +0.000 A 
ATOM     24  N   UNL     1      43.143   3.931  11.779  0.00  0.00    +0.000 NA
ATOM     25  C   UNL     1      43.700   2.898  12.315  0.00  0.00    +0.000 A 
ATOM     26  N   UNL     1      44.973   2.874  12.827  0.00  0.00    +0.000 N 
ATOM     27  C   UNL     1      45.821   3.955  12.784  0.00  0.00    +0.000 A 
ATOM     28  O   UNL     1      46.981   3.880  13.164  0.00  0.00    +0.000 OA
ATOM     29  C   UNL     1      45.223   5.158  12.223  0.00  0.00    +0.000 A 
ATOM     30  H   UNL     1      45.358   2.024  13.213  0.00  0.00    +0.000 HD
ENDBRANCH  17  20
ENDBRANCH   2  16
TORSDOF 5
ENDMDL
MODEL 9
REMARK VINA RESULT:    -6.957      3.069      4.711
REMARK INTER + INTRA:          -9.490
REMARK INTER:                  -8.583
REMARK INTRA:                  -0.907
REMARK UNBOUND:                -0.499
REMARK  Name = 
REMARK  6 active torsions:
REMARK  status: ('A' for Active; 'I' for Inactive)
REMARK    1  A    between atoms: C_1  and  C_2
REMARK    2  A    between atoms: C_2  and  N_3
REMARK    3  A    between atoms: C_2  and  C_16
REMARK    4  A    between atoms: C_4  and  C_6
REMARK    5  A    between atoms: C_19  and  O_20
REMARK    6  A    between atoms: O_20  and  C_21
REMARK                            x       y       z     vdW  Elec       q    Type
REMARK                         _______ _______ _______ _____ _____    ______ ____
ROOT
ATOM      1  C   UNL     1      47.722   3.412  16.326  0.00  0.00    +0.000 C 
ATOM      2  C   UNL     1      47.951   4.770  15.662  0.00  0.00    +0.000 C 
ENDROOT
BRANCH   2   3
ATOM      3  C   UNL     1      47.139   4.997  14.399  0.00  0.00    +0.000 A 
ATOM      4  C   UNL     1      47.556   6.003  13.516  0.00  0.00    +0.000 A 
ATOM      5  C   UNL     1      46.841   6.274  12.349  0.00  0.00    +0.000 A 
ATOM      6  C   UNL     1      45.730   5.500  12.007  0.00  0.00    +0.000 A 
ATOM      7  C   UNL     1      45.276   4.527  12.897  0.00  0.00    +0.000 A 
ATOM      8  C   UNL     1      45.968   4.285  14.091  0.00  0.00    +0.000 A 
BRANCH   6   9
ATOM      9  O   UNL     1      45.008   5.658  10.842  0.00  0.00    +0.000 OA
BRANCH   9  10
ATOM     10  C   UNL     1      45.178   4.752   9.823  0.00  0.00    +0.000 A 
ATOM     11  C   UNL     1      44.577   3.494   9.773  0.00  0.00    +0.000 A 
ATOM     12  C   UNL     1      44.892   2.619   8.740  0.00  0.00    +0.000 A 
ATOM     13  C   UNL     1      45.741   3.065   7.741  0.00  0.00    +0.000 A 
ATOM     14  N   UNL     1      46.280   4.303   7.711  0.00  0.00    +0.000 NA
ATOM     15  C   UNL     1      45.984   5.120   8.754  0.00  0.00    +0.000 A 
ENDBRANCH   9  10
ENDBRANCH   6   9
ENDBRANCH   2   3
BRANCH   2  16
ATOM     16  N   UNL     1      47.709   5.853  16.594  0.00  0.00    +0.000 N 
ATOM     17  C   UNL     1      48.630   6.213  17.546  0.00  0.00    +0.000 C 
ATOM     18  O   UNL     1      49.730   5.674  17.630  0.00  0.00    +0.000 OA
ATOM     19  H   UNL     1      46.760   6.208  16.653  0.00  0.00    +0.000 HD
BRANCH  17  20
ATOM     20  C   UNL     1      48.259   7.324  18.429  0.00  0.00    +0.000 A 
ATOM     21  C   UNL     1      48.018   7.083  19.775  0.00  0.00    +0.000 A 
ATOM     22  S   UNL     1      47.595   8.481  20.653  0.00  0.00    +0.000 S 
ATOM     23  C   UNL     1      47.678   9.448  19.256  0.00  0.00    +0.000 A 
ATOM     24  N   UNL     1      47.380  10.775  19.305  0.00  0.00    +0.000 NA
ATOM     25  C   UNL     1      47.459  11.382  18.169  0.00  0.00    +0.000 A 
ATOM     26  N   UNL     1      47.815  10.783  16.987  0.00  0.00    +0.000 N 
ATOM     27  C   UNL     1      48.172   9.459  16.892  0.00  0.00    +0.000 A 
ATOM     28  O   UNL     1      48.573   8.973  15.843  0.00  0.00    +0.000 OA
ATOM     29  C   UNL     1      48.059   8.722  18.142  0.00  0.00    +0.000 A 
ATOM     30  H   UNL     1      47.882  11.321  16.135  0.00  0.00    +0.000 HD
ENDBRANCH  17  20
ENDBRANCH   2  16
TORSDOF 5
ENDMDL
