MODEL 1
REMARK VINA RESULT:    -7.844      0.000      0.000
REMARK INTER + INTRA:         -12.917
REMARK INTER:                 -11.742
REMARK INTRA:                  -1.174
REMARK UNBOUND:                -1.174
REMARK  Name = 
REMARK  10 active torsions:
REMARK  status: ('A' for Active; 'I' for Inactive)
REMARK    1  A    between atoms: C_1  and  O_2
REMARK    2  A    between atoms: O_2  and  C_3
REMARK    3  A    between atoms: C_10  and  C_11
REMARK    4  A    between atoms: N_13  and  C_14
REMARK    5  A    between atoms: C_14  and  C_15
REMARK    6  A    between atoms: C_18  and  O_19
REMARK    7  A    between atoms: O_19  and  C_20
REMARK    8  A    between atoms: C_20  and  C_21
REMARK    9  A    between atoms: C_21  and  O_22
REMARK   10  A    between atoms: C_21  and  C_23
REMARK                            x       y       z     vdW  Elec       q    Type
REMARK                         _______ _______ _______ _____ _____    ______ ____
ROOT
ATOM      1  C   UNL     1      47.908   6.613  14.263  0.00  0.00    +0.000 A 
ATOM      2  C   UNL     1      47.271   5.371  14.375  0.00  0.00    +0.000 A 
ATOM      3  C   UNL     1      46.493   4.865  13.326  0.00  0.00    +0.000 A 
ATOM      4  C   UNL     1      46.349   5.589  12.142  0.00  0.00    +0.000 A 
ATOM      5  C   UNL     1      47.039   6.794  11.999  0.00  0.00    +0.000 A 
ATOM      6  C   UNL     1      47.818   7.302  13.047  0.00  0.00    +0.000 A 
ENDROOT
BRANCH   1   7
ATOM      7  C   UNL     1      48.666   7.190  15.432  0.00  0.00    +0.000 C 
BRANCH   7  10
ATOM      8  C   UNL     1      49.789   6.058  17.301  0.00  0.00    +0.000 C 
ATOM      9  O   UNL     1      49.093   6.654  18.121  0.00  0.00    +0.000 OA
ATOM     10  N   UNL     1      49.632   6.261  15.956  0.00  0.00    +0.000 N 
ATOM     11  H   UNL     1      50.225   5.780  15.295  0.00  0.00    +0.000 HD
BRANCH   8  19
ATOM     12  C   UNL     1      50.169   2.660  16.957  0.00  0.00    +0.000 A 
ATOM     13  N   UNL     1      50.586   1.379  16.911  0.00  0.00    +0.000 NA
ATOM     14  C   UNL     1      51.764   1.086  17.469  0.00  0.00    +0.000 A 
ATOM     15  N   UNL     1      52.591   1.926  18.087  0.00  0.00    +0.000 NA
ATOM     16  C   UNL     1      52.143   3.193  18.096  0.00  0.00    +0.000 A 
ATOM     17  S   UNL     1      53.062   4.404  18.852  0.00  0.00    +0.000 S 
ATOM     18  C   UNL     1      51.921   5.594  18.445  0.00  0.00    +0.000 A 
ATOM     19  C   UNL     1      50.832   5.108  17.728  0.00  0.00    +0.000 A 
ATOM     20  C   UNL     1      50.957   3.666  17.543  0.00  0.00    +0.000 A 
BRANCH  12  22
ATOM     21  C   UNL     1      47.865   2.903  17.294  0.00  0.00    +0.000 C 
ATOM     22  O   UNL     1      48.956   2.969  16.382  0.00  0.00    +0.000 OA
ENDBRANCH  12  22
ENDBRANCH   8  19
ENDBRANCH   7  10
ENDBRANCH   1   7
BRANCH   4  23
ATOM     23  O   UNL     1      45.562   5.233  11.078  0.00  0.00    +0.000 OA
BRANCH  23  24
ATOM     24  C   UNL     1      44.970   3.925  11.126  0.00  0.00    +0.000 C 
BRANCH  24  25
ATOM     25  C   UNL     1      44.238   3.611   9.814  0.00  0.00    +0.000 C 
BRANCH  25  26
ATOM     26  C   UNL     1      45.263   3.153   8.785  0.00  0.00    +0.000 A 
ATOM     27  N   UNL     1      45.735   4.046   7.894  0.00  0.00    +0.000 NA
ATOM     28  C   UNL     1      46.632   3.584   6.999  0.00  0.00    +0.000 A 
ATOM     29  C   UNL     1      47.056   2.276   6.950  0.00  0.00    +0.000 A 
ATOM     30  C   UNL     1      46.504   1.440   7.889  0.00  0.00    +0.000 A 
ATOM     31  N   UNL     1      45.610   1.844   8.814  0.00  0.00    +0.000 NA
ENDBRANCH  25  26
BRANCH  25  32
ATOM     32  O   UNL     1      43.557   4.795   9.348  0.00  0.00    +0.000 OA
ATOM     33  H   UNL     1      43.240   4.572   8.450  0.00  0.00    +0.000 HD
ENDBRANCH  25  32
ENDBRANCH  24  25
ENDBRANCH  23  24
ENDBRANCH   4  23
TORSDOF 9
ENDMDL
MODEL 2
REMARK VINA RESULT:    -7.677      2.342      2.936
REMARK INTER + INTRA:         -12.667
REMARK INTER:                 -11.600
REMARK INTRA:                  -1.066
REMARK UNBOUND:                -1.174
REMARK  Name = 
REMARK  10 active torsions:
REMARK  status: ('A' for Active; 'I' for Inactive)
REMARK    1  A    between atoms: C_1  and  O_2
REMARK    2  A    between atoms: O_2  and  C_3
REMARK    3  A    between atoms: C_10  and  C_11
REMARK    4  A    between atoms: N_13  and  C_14
REMARK    5  A    between atoms: C_14  and  C_15
REMARK    6  A    between atoms: C_18  and  O_19
REMARK    7  A    between atoms: O_19  and  C_20
REMARK    8  A    between atoms: C_20  and  C_21
REMARK    9  A    between atoms: C_21  and  O_22
REMARK   10  A    between atoms: C_21  and  C_23
REMARK                            x       y       z     vdW  Elec       q    Type
REMARK                         _______ _______ _______ _____ _____    ______ ____
ROOT
ATOM      1  C   UNL     1      47.240   6.407  13.026  0.00  0.00    +0.000 A 
ATOM      2  C   UNL     1      46.697   6.850  11.813  0.00  0.00    +0.000 A 
ATOM      3  C   UNL     1      45.688   6.123  11.170  0.00  0.00    +0.000 A 
ATOM      4  C   UNL     1      45.197   4.945  11.734  0.00  0.00    +0.000 A 
ATOM      5  C   UNL     1      45.685   4.538  12.978  0.00  0.00    +0.000 A 
ATOM      6  C   UNL     1      46.694   5.264  13.623  0.00  0.00    +0.000 A 
ENDROOT
BRANCH   1   7
ATOM      7  C   UNL     1      48.388   7.148  13.662  0.00  0.00    +0.000 C 
BRANCH   7  10
ATOM      8  C   UNL     1      49.237   6.941  15.958  0.00  0.00    +0.000 C 
ATOM      9  O   UNL     1      50.333   6.556  15.553  0.00  0.00    +0.000 OA
ATOM     10  N   UNL     1      48.230   7.261  15.088  0.00  0.00    +0.000 N 
ATOM     11  H   UNL     1      47.329   7.555  15.436  0.00  0.00    +0.000 HD
BRANCH   8  19
ATOM     12  C   UNL     1      48.865   4.645  18.488  0.00  0.00    +0.000 A 
ATOM     13  N   UNL     1      48.736   3.975  19.651  0.00  0.00    +0.000 NA
ATOM     14  C   UNL     1      48.533   4.688  20.762  0.00  0.00    +0.000 A 
ATOM     15  N   UNL     1      48.433   6.011  20.861  0.00  0.00    +0.000 NA
ATOM     16  C   UNL     1      48.583   6.639  19.682  0.00  0.00    +0.000 A 
ATOM     17  S   UNL     1      48.474   8.331  19.611  0.00  0.00    +0.000 S 
ATOM     18  C   UNL     1      48.764   8.330  17.937  0.00  0.00    +0.000 A 
ATOM     19  C   UNL     1      48.955   7.061  17.400  0.00  0.00    +0.000 A 
ATOM     20  C   UNL     1      48.821   6.049  18.444  0.00  0.00    +0.000 A 
BRANCH  12  22
ATOM     21  C   UNL     1      47.870   3.510  16.697  0.00  0.00    +0.000 C 
ATOM     22  O   UNL     1      49.075   3.916  17.338  0.00  0.00    +0.000 OA
ENDBRANCH  12  22
ENDBRANCH   8  19
ENDBRANCH   7  10
ENDBRANCH   1   7
BRANCH   4  23
ATOM     23  O   UNL     1      44.265   4.114  11.168  0.00  0.00    +0.000 OA
BRANCH  23  24
ATOM     24  C   UNL     1      44.769   2.953  10.488  0.00  0.00    +0.000 C 
BRANCH  24  25
ATOM     25  C   UNL     1      44.394   2.991   9.001  0.00  0.00    +0.000 C 
BRANCH  25  26
ATOM     26  C   UNL     1      45.598   2.539   8.185  0.00  0.00    +0.000 A 
ATOM     27  N   UNL     1      46.161   3.406   7.321  0.00  0.00    +0.000 NA
ATOM     28  C   UNL     1      47.218   2.950   6.618  0.00  0.00    +0.000 A 
ATOM     29  C   UNL     1      47.715   1.672   6.729  0.00  0.00    +0.000 A 
ATOM     30  C   UNL     1      47.061   0.860   7.623  0.00  0.00    +0.000 A 
ATOM     31  N   UNL     1      46.006   1.259   8.361  0.00  0.00    +0.000 NA
ENDBRANCH  25  26
BRANCH  25  32
ATOM     32  O   UNL     1      44.017   4.335   8.633  0.00  0.00    +0.000 OA
ATOM     33  H   UNL     1      44.708   4.633   8.008  0.00  0.00    +0.000 HD
ENDBRANCH  25  32
ENDBRANCH  24  25
ENDBRANCH  23  24
ENDBRANCH   4  23
TORSDOF 9
ENDMDL
MODEL 3
REMARK VINA RESULT:    -7.187      2.348      2.966
REMARK INTER + INTRA:         -11.933
REMARK INTER:                 -10.809
REMARK INTRA:                  -1.124
REMARK UNBOUND:                -1.174
REMARK  Name = 
REMARK  10 active torsions:
REMARK  status: ('A' for Active; 'I' for Inactive)
REMARK    1  A    between atoms: C_1  and  O_2
REMARK    2  A    between atoms: O_2  and  C_3
REMARK    3  A    between atoms: C_10  and  C_11
REMARK    4  A    between atoms: N_13  and  C_14
REMARK    5  A    between atoms: C_14  and  C_15
REMARK    6  A    between atoms: C_18  and  O_19
REMARK    7  A    between atoms: O_19  and  C_20
REMARK    8  A    between atoms: C_20  and  C_21
REMARK    9  A    between atoms: C_21  and  O_22
REMARK   10  A    between atoms: C_21  and  C_23
REMARK                            x       y       z     vdW  Elec       q    Type
REMARK                         _______ _______ _______ _____ _____    ______ ____
ROOT
ATOM      1  C   UNL     1      47.173   8.063  13.413  0.00  0.00    +0.000 A 
ATOM      2  C   UNL     1      45.986   8.637  12.943  0.00  0.00    +0.000 A 
ATOM      3  C   UNL     1      45.120   7.916  12.111  0.00  0.00    +0.000 A 
ATOM      4  C   UNL     1      45.423   6.604  11.744  0.00  0.00    +0.000 A 
ATOM      5  C   UNL     1      46.570   6.004  12.268  0.00  0.00    +0.000 A 
ATOM      6  C   UNL     1      47.436   6.723  13.101  0.00  0.00    +0.000 A 
ENDROOT
BRANCH   1   7
ATOM      7  C   UNL     1      48.142   8.878  14.232  0.00  0.00    +0.000 C 
BRANCH   7  10
ATOM      8  C   UNL     1      49.177   7.975  16.269  0.00  0.00    +0.000 C 
ATOM      9  O   UNL     1      50.239   7.779  15.680  0.00  0.00    +0.000 OA
ATOM     10  N   UNL     1      48.099   8.522  15.626  0.00  0.00    +0.000 N 
ATOM     11  H   UNL     1      47.227   8.658  16.116  0.00  0.00    +0.000 HD
BRANCH   8  19
ATOM     12  C   UNL     1      48.785   4.985  17.916  0.00  0.00    +0.000 A 
ATOM     13  N   UNL     1      48.681   3.970  18.797  0.00  0.00    +0.000 NA
ATOM     14  C   UNL     1      48.625   4.275  20.096  0.00  0.00    +0.000 A 
ATOM     15  N   UNL     1      48.652   5.490  20.638  0.00  0.00    +0.000 NA
ATOM     16  C   UNL     1      48.771   6.469  19.726  0.00  0.00    +0.000 A 
ATOM     17  S   UNL     1      48.809   8.089  20.232  0.00  0.00    +0.000 S 
ATOM     18  C   UNL     1      48.976   8.638  18.633  0.00  0.00    +0.000 A 
ATOM     19  C   UNL     1      49.012   7.617  17.689  0.00  0.00    +0.000 A 
ATOM     20  C   UNL     1      48.864   6.321  18.345  0.00  0.00    +0.000 A 
BRANCH  12  22
ATOM     21  C   UNL     1      47.567   4.454  15.988  0.00  0.00    +0.000 C 
ATOM     22  O   UNL     1      48.845   4.677  16.574  0.00  0.00    +0.000 OA
ENDBRANCH  12  22
ENDBRANCH   8  19
ENDBRANCH   7  10
ENDBRANCH   1   7
BRANCH   4  23
ATOM     23  O   UNL     1      44.693   5.825  10.884  0.00  0.00    +0.000 OA
BRANCH  23  24
ATOM     24  C   UNL     1      45.071   4.442  10.793  0.00  0.00    +0.000 C 
BRANCH  24  25
ATOM     25  C   UNL     1      44.325   3.751   9.643  0.00  0.00    +0.000 C 
BRANCH  25  26
ATOM     26  C   UNL     1      45.352   3.186   8.669  0.00  0.00    +0.000 A 
ATOM     27  N   UNL     1      45.654   1.875   8.732  0.00  0.00    +0.000 NA
ATOM     28  C   UNL     1      46.576   1.430   7.854  0.00  0.00    +0.000 A 
ATOM     29  C   UNL     1      47.213   2.238   6.940  0.00  0.00    +0.000 A 
ATOM     30  C   UNL     1      46.849   3.562   6.968  0.00  0.00    +0.000 A 
ATOM     31  N   UNL     1      45.928   4.065   7.815  0.00  0.00    +0.000 NA
ENDBRANCH  25  26
BRANCH  25  32
ATOM     32  O   UNL     1      43.478   4.709   8.974  0.00  0.00    +0.000 OA
ATOM     33  H   UNL     1      42.686   4.204   8.701  0.00  0.00    +0.000 HD
ENDBRANCH  25  32
ENDBRANCH  24  25
ENDBRANCH  23  24
ENDBRANCH   4  23
TORSDOF 9
ENDMDL
MODEL 4
REMARK VINA RESULT:    -7.174      1.618      2.297
REMARK INTER + INTRA:         -11.914
REMARK INTER:                 -10.774
REMARK INTRA:                  -1.140
REMARK UNBOUND:                -1.174
REMARK  Name = 
REMARK  10 active torsions:
REMARK  status: ('A' for Active; 'I' for Inactive)
REMARK    1  A    between atoms: C_1  and  O_2
REMARK    2  A    between atoms: O_2  and  C_3
REMARK    3  A    between atoms: C_10  and  C_11
REMARK    4  A    between atoms: N_13  and  C_14
REMARK    5  A    between atoms: C_14  and  C_15
REMARK    6  A    between atoms: C_18  and  O_19
REMARK    7  A    between atoms: O_19  and  C_20
REMARK    8  A    between atoms: C_20  and  C_21
REMARK    9  A    between atoms: C_21  and  O_22
REMARK   10  A    between atoms: C_21  and  C_23
REMARK                            x       y       z     vdW  Elec       q    Type
REMARK                         _______ _______ _______ _____ _____    ______ ____
ROOT
ATOM      1  C   UNL     1      47.753   7.235  12.734  0.00  0.00    +0.000 A 
ATOM      2  C   UNL     1      46.747   7.743  11.903  0.00  0.00    +0.000 A 
ATOM      3  C   UNL     1      45.621   6.974  11.585  0.00  0.00    +0.000 A 
ATOM      4  C   UNL     1      45.476   5.686  12.102  0.00  0.00    +0.000 A 
ATOM      5  C   UNL     1      46.442   5.202  12.987  0.00  0.00    +0.000 A 
ATOM      6  C   UNL     1      47.569   5.970  13.307  0.00  0.00    +0.000 A 
ENDROOT
BRANCH   1   7
ATOM      7  C   UNL     1      49.003   8.035  12.994  0.00  0.00    +0.000 C 
BRANCH   7  10
ATOM      8  C   UNL     1      50.280   7.813  15.081  0.00  0.00    +0.000 C 
ATOM      9  O   UNL     1      49.815   8.865  15.516  0.00  0.00    +0.000 OA
ATOM     10  N   UNL     1      49.922   7.333  13.850  0.00  0.00    +0.000 N 
ATOM     11  H   UNL     1      50.329   6.478  13.498  0.00  0.00    +0.000 HD
BRANCH   8  19
ATOM     12  C   UNL     1      49.985   5.149  17.232  0.00  0.00    +0.000 A 
ATOM     13  N   UNL     1      50.155   4.091  18.049  0.00  0.00    +0.000 NA
ATOM     14  C   UNL     1      51.401   3.780  18.416  0.00  0.00    +0.000 A 
ATOM     15  N   UNL     1      52.522   4.410  18.071  0.00  0.00    +0.000 NA
ATOM     16  C   UNL     1      52.307   5.448  17.245  0.00  0.00    +0.000 A 
ATOM     17  S   UNL     1      53.621   6.380  16.709  0.00  0.00    +0.000 S 
ATOM     18  C   UNL     1      52.600   7.379  15.788  0.00  0.00    +0.000 A 
ATOM     19  C   UNL     1      51.256   7.029  15.860  0.00  0.00    +0.000 A 
ATOM     20  C   UNL     1      51.082   5.888  16.754  0.00  0.00    +0.000 A 
BRANCH  12  22
ATOM     21  C   UNL     1      47.825   4.355  16.802  0.00  0.00    +0.000 C 
ATOM     22  O   UNL     1      48.703   5.475  16.848  0.00  0.00    +0.000 OA
ENDBRANCH  12  22
ENDBRANCH   8  19
ENDBRANCH   7  10
ENDBRANCH   1   7
BRANCH   4  23
ATOM     23  O   UNL     1      44.459   4.816  11.809  0.00  0.00    +0.000 OA
BRANCH  23  24
ATOM     24  C   UNL     1      44.830   3.587  11.165  0.00  0.00    +0.000 C 
BRANCH  24  25
ATOM     25  C   UNL     1      44.154   3.468   9.793  0.00  0.00    +0.000 C 
BRANCH  25  26
ATOM     26  C   UNL     1      45.205   3.060   8.767  0.00  0.00    +0.000 A 
ATOM     27  N   UNL     1      45.632   1.783   8.746  0.00  0.00    +0.000 NA
ATOM     28  C   UNL     1      46.569   1.480   7.825  0.00  0.00    +0.000 A 
ATOM     29  C   UNL     1      47.102   2.397   6.949  0.00  0.00    +0.000 A 
ATOM     30  C   UNL     1      46.615   3.676   7.062  0.00  0.00    +0.000 A 
ATOM     31  N   UNL     1      45.672   4.038   7.955  0.00  0.00    +0.000 NA
ENDBRANCH  25  26
BRANCH  25  32
ATOM     32  O   UNL     1      43.570   4.737   9.432  0.00  0.00    +0.000 OA
ATOM     33  H   UNL     1      44.001   5.393  10.015  0.00  0.00    +0.000 HD
ENDBRANCH  25  32
ENDBRANCH  24  25
ENDBRANCH  23  24
ENDBRANCH   4  23
TORSDOF 9
ENDMDL
MODEL 5
REMARK VINA RESULT:    -7.013      2.237      2.732
REMARK INTER + INTRA:         -11.673
REMARK INTER:                 -10.665
REMARK INTRA:                  -1.007
REMARK UNBOUND:                -1.174
REMARK  Name = 
REMARK  10 active torsions:
REMARK  status: ('A' for Active; 'I' for Inactive)
REMARK    1  A    between atoms: C_1  and  O_2
REMARK    2  A    between atoms: O_2  and  C_3
REMARK    3  A    between atoms: C_10  and  C_11
REMARK    4  A    between atoms: N_13  and  C_14
REMARK    5  A    between atoms: C_14  and  C_15
REMARK    6  A    between atoms: C_18  and  O_19
REMARK    7  A    between atoms: O_19  and  C_20
REMARK    8  A    between atoms: C_20  and  C_21
REMARK    9  A    between atoms: C_21  and  O_22
REMARK   10  A    between atoms: C_21  and  C_23
REMARK                            x       y       z     vdW  Elec       q    Type
REMARK                         _______ _______ _______ _____ _____    ______ ____
ROOT
ATOM      1  C   UNL     1      47.442   6.609  13.127  0.00  0.00    +0.000 A 
ATOM      2  C   UNL     1      46.957   5.424  13.693  0.00  0.00    +0.000 A 
ATOM      3  C   UNL     1      45.985   4.660  13.037  0.00  0.00    +0.000 A 
ATOM      4  C   UNL     1      45.487   5.063  11.797  0.00  0.00    +0.000 A 
ATOM      5  C   UNL     1      46.019   6.207  11.197  0.00  0.00    +0.000 A 
ATOM      6  C   UNL     1      46.992   6.972  11.851  0.00  0.00    +0.000 A 
ENDROOT
BRANCH   1   7
ATOM      7  C   UNL     1      48.420   7.471  13.884  0.00  0.00    +0.000 C 
BRANCH   7  10
ATOM      8  C   UNL     1      49.517   7.399  16.081  0.00  0.00    +0.000 C 
ATOM      9  O   UNL     1      49.429   8.619  16.201  0.00  0.00    +0.000 OA
ATOM     10  N   UNL     1      49.035   6.757  14.972  0.00  0.00    +0.000 N 
ATOM     11  H   UNL     1      49.133   5.757  14.878  0.00  0.00    +0.000 HD
BRANCH   8  19
ATOM     12  C   UNL     1      48.597   6.477  19.261  0.00  0.00    +0.000 A 
ATOM     13  N   UNL     1      48.455   5.931  20.485  0.00  0.00    +0.000 NA
ATOM     14  C   UNL     1      49.430   5.131  20.929  0.00  0.00    +0.000 A 
ATOM     15  N   UNL     1      50.555   4.809  20.296  0.00  0.00    +0.000 NA
ATOM     16  C   UNL     1      50.647   5.363  19.074  0.00  0.00    +0.000 A 
ATOM     17  S   UNL     1      52.023   5.073  18.122  0.00  0.00    +0.000 S 
ATOM     18  C   UNL     1      51.408   6.024  16.856  0.00  0.00    +0.000 A 
ATOM     19  C   UNL     1      50.158   6.573  17.120  0.00  0.00    +0.000 A 
ATOM     20  C   UNL     1      49.717   6.195  18.459  0.00  0.00    +0.000 A 
BRANCH  12  22
ATOM     21  C   UNL     1      47.484   8.520  19.524  0.00  0.00    +0.000 C 
ATOM     22  O   UNL     1      47.595   7.301  18.797  0.00  0.00    +0.000 OA
ENDBRANCH  12  22
ENDBRANCH   8  19
ENDBRANCH   7  10
ENDBRANCH   1   7
BRANCH   4  23
ATOM     23  O   UNL     1      44.490   4.440  11.094  0.00  0.00    +0.000 OA
BRANCH  23  24
ATOM     24  C   UNL     1      44.796   3.144  10.555  0.00  0.00    +0.000 C 
BRANCH  24  25
ATOM     25  C   UNL     1      44.421   3.072   9.069  0.00  0.00    +0.000 C 
BRANCH  25  26
ATOM     26  C   UNL     1      45.634   2.585   8.285  0.00  0.00    +0.000 A 
ATOM     27  N   UNL     1      46.327   3.470   7.543  0.00  0.00    +0.000 NA
ATOM     28  C   UNL     1      47.385   2.983   6.863  0.00  0.00    +0.000 A 
ATOM     29  C   UNL     1      47.760   1.660   6.880  0.00  0.00    +0.000 A 
ATOM     30  C   UNL     1      46.979   0.835   7.652  0.00  0.00    +0.000 A 
ATOM     31  N   UNL     1      45.916   1.263   8.361  0.00  0.00    +0.000 NA
ENDBRANCH  25  26
BRANCH  25  32
ATOM     32  O   UNL     1      44.022   4.381   8.608  0.00  0.00    +0.000 OA
ATOM     33  H   UNL     1      44.217   4.386   7.650  0.00  0.00    +0.000 HD
ENDBRANCH  25  32
ENDBRANCH  24  25
ENDBRANCH  23  24
ENDBRANCH   4  23
TORSDOF 9
ENDMDL
MODEL 6
REMARK VINA RESULT:    -6.447      2.810      4.559
REMARK INTER + INTRA:         -10.825
REMARK INTER:                  -9.806
REMARK INTRA:                  -1.019
REMARK UNBOUND:                -1.174
REMARK  Name = 
REMARK  10 active torsions:
REMARK  status: ('A' for Active; 'I' for Inactive)
REMARK    1  A    between atoms: C_1  and  O_2
REMARK    2  A    between atoms: O_2  and  C_3
REMARK    3  A    between atoms: C_10  and  C_11
REMARK    4  A    between atoms: N_13  and  C_14
REMARK    5  A    between atoms: C_14  and  C_15
REMARK    6  A    between atoms: C_18  and  O_19
REMARK    7  A    between atoms: O_19  and  C_20
REMARK    8  A    between atoms: C_20  and  C_21
REMARK    9  A    between atoms: C_21  and  O_22
REMARK   10  A    between atoms: C_21  and  C_23
REMARK                            x       y       z     vdW  Elec       q    Type
REMARK                         _______ _______ _______ _____ _____    ______ ____
ROOT
ATOM      1  C   UNL     1      46.562   4.717  14.065  0.00  0.00    +0.000 A 
ATOM      2  C   UNL     1      46.396   3.470  13.450  0.00  0.00    +0.000 A 
ATOM      3  C   UNL     1      45.580   3.329  12.321  0.00  0.00    +0.000 A 
ATOM      4  C   UNL     1      44.925   4.436  11.780  0.00  0.00    +0.000 A 
ATOM      5  C   UNL     1      45.145   5.693  12.347  0.00  0.00    +0.000 A 
ATOM      6  C   UNL     1      45.961   5.837  13.476  0.00  0.00    +0.000 A 
ENDROOT
BRANCH   1   7
ATOM      7  C   UNL     1      47.368   4.841  15.333  0.00  0.00    +0.000 C 
BRANCH   7  10
ATOM      8  C   UNL     1      48.953   6.443  16.311  0.00  0.00    +0.000 C 
ATOM      9  O   UNL     1      48.588   6.157  17.450  0.00  0.00    +0.000 OA
ATOM     10  N   UNL     1      48.406   5.831  15.216  0.00  0.00    +0.000 N 
ATOM     11  H   UNL     1      48.701   6.091  14.285  0.00  0.00    +0.000 HD
BRANCH   8  19
ATOM     12  C   UNL     1      48.936   9.479  14.702  0.00  0.00    +0.000 A 
ATOM     13  N   UNL     1      49.186  10.704  14.197  0.00  0.00    +0.000 NA
ATOM     14  C   UNL     1      50.416  11.202  14.348  0.00  0.00    +0.000 A 
ATOM     15  N   UNL     1      51.452  10.617  14.943  0.00  0.00    +0.000 NA
ATOM     16  C   UNL     1      51.155   9.406  15.444  0.00  0.00    +0.000 A 
ATOM     17  S   UNL     1      52.360   8.503  16.229  0.00  0.00    +0.000 S 
ATOM     18  C   UNL     1      51.273   7.235  16.545  0.00  0.00    +0.000 A 
ATOM     19  C   UNL     1      49.986   7.467  16.073  0.00  0.00    +0.000 A 
ATOM     20  C   UNL     1      49.925   8.757  15.393  0.00  0.00    +0.000 A 
BRANCH  12  22
ATOM     21  C   UNL     1      47.204   8.983  13.206  0.00  0.00    +0.000 C 
ATOM     22  O   UNL     1      47.669   8.960  14.552  0.00  0.00    +0.000 OA
ENDBRANCH  12  22
ENDBRANCH   8  19
ENDBRANCH   7  10
ENDBRANCH   1   7
BRANCH   4  23
ATOM     23  O   UNL     1      44.050   4.412  10.725  0.00  0.00    +0.000 OA
BRANCH  23  24
ATOM     24  C   UNL     1      44.254   3.381   9.746  0.00  0.00    +0.000 C 
BRANCH  24  25
ATOM     25  C   UNL     1      44.812   3.972   8.444  0.00  0.00    +0.000 C 
BRANCH  25  26
ATOM     26  C   UNL     1      45.875   3.027   7.898  0.00  0.00    +0.000 A 
ATOM     27  N   UNL     1      45.827   1.725   8.242  0.00  0.00    +0.000 NA
ATOM     28  C   UNL     1      46.798   0.936   7.739  0.00  0.00    +0.000 A 
ATOM     29  C   UNL     1      47.812   1.395   6.930  0.00  0.00    +0.000 A 
ATOM     30  C   UNL     1      47.783   2.739   6.652  0.00  0.00    +0.000 A 
ATOM     31  N   UNL     1      46.835   3.577   7.117  0.00  0.00    +0.000 NA
ENDBRANCH  25  26
BRANCH  25  32
ATOM     32  O   UNL     1      45.387   5.269   8.711  0.00  0.00    +0.000 OA
ATOM     33  H   UNL     1      45.616   5.257   9.662  0.00  0.00    +0.000 HD
ENDBRANCH  25  32
ENDBRANCH  24  25
ENDBRANCH  23  24
ENDBRANCH   4  23
TORSDOF 9
ENDMDL
MODEL 7
REMARK VINA RESULT:    -6.394      5.055      6.919
REMARK INTER + INTRA:         -10.746
REMARK INTER:                  -9.436
REMARK INTRA:                  -1.310
REMARK UNBOUND:                -1.174
REMARK  Name = 
REMARK  10 active torsions:
REMARK  status: ('A' for Active; 'I' for Inactive)
REMARK    1  A    between atoms: C_1  and  O_2
REMARK    2  A    between atoms: O_2  and  C_3
REMARK    3  A    between atoms: C_10  and  C_11
REMARK    4  A    between atoms: N_13  and  C_14
REMARK    5  A    between atoms: C_14  and  C_15
REMARK    6  A    between atoms: C_18  and  O_19
REMARK    7  A    between atoms: O_19  and  C_20
REMARK    8  A    between atoms: C_20  and  C_21
REMARK    9  A    between atoms: C_21  and  O_22
REMARK   10  A    between atoms: C_21  and  C_23
REMARK                            x       y       z     vdW  Elec       q    Type
REMARK                         _______ _______ _______ _____ _____    ______ ____
ROOT
ATOM      1  C   UNL     1      48.678   7.095  12.550  0.00  0.00    +0.000 A 
ATOM      2  C   UNL     1      48.187   6.220  13.526  0.00  0.00    +0.000 A 
ATOM      3  C   UNL     1      46.949   5.585  13.364  0.00  0.00    +0.000 A 
ATOM      4  C   UNL     1      46.186   5.807  12.216  0.00  0.00    +0.000 A 
ATOM      5  C   UNL     1      46.704   6.624  11.209  0.00  0.00    +0.000 A 
ATOM      6  C   UNL     1      47.942   7.259  11.369  0.00  0.00    +0.000 A 
ENDROOT
BRANCH   1   7
ATOM      7  C   UNL     1      49.967   7.844  12.776  0.00  0.00    +0.000 C 
BRANCH   7  10
ATOM      8  C   UNL     1      51.676   9.074  11.511  0.00  0.00    +0.000 C 
ATOM      9  O   UNL     1      52.259   9.391  12.546  0.00  0.00    +0.000 OA
ATOM     10  N   UNL     1      50.544   8.305  11.541  0.00  0.00    +0.000 N 
ATOM     11  H   UNL     1      50.064   8.070  10.684  0.00  0.00    +0.000 HD
BRANCH   8  19
ATOM     12  C   UNL     1      52.763   7.405   8.711  0.00  0.00    +0.000 A 
ATOM     13  N   UNL     1      53.166   7.008   7.488  0.00  0.00    +0.000 NA
ATOM     14  C   UNL     1      53.437   7.953   6.583  0.00  0.00    +0.000 A 
ATOM     15  N   UNL     1      53.363   9.270   6.751  0.00  0.00    +0.000 NA
ATOM     16  C   UNL     1      52.942   9.621   7.978  0.00  0.00    +0.000 A 
ATOM     17  S   UNL     1      52.797  11.264   8.379  0.00  0.00    +0.000 S 
ATOM     18  C   UNL     1      52.251  10.885   9.943  0.00  0.00    +0.000 A 
ATOM     19  C   UNL     1      52.161   9.520  10.192  0.00  0.00    +0.000 A 
ATOM     20  C   UNL     1      52.599   8.766   9.022  0.00  0.00    +0.000 A 
BRANCH  12  22
ATOM     21  C   UNL     1      53.636   5.752  10.121  0.00  0.00    +0.000 C 
ATOM     22  O   UNL     1      52.480   6.436   9.649  0.00  0.00    +0.000 OA
ENDBRANCH  12  22
ENDBRANCH   8  19
ENDBRANCH   7  10
ENDBRANCH   1   7
BRANCH   4  23
ATOM     23  O   UNL     1      44.936   5.300  11.977  0.00  0.00    +0.000 OA
BRANCH  23  24
ATOM     24  C   UNL     1      44.869   3.936  11.532  0.00  0.00    +0.000 C 
BRANCH  24  25
ATOM     25  C   UNL     1      44.113   3.836  10.201  0.00  0.00    +0.000 C 
BRANCH  25  26
ATOM     26  C   UNL     1      45.096   3.415   9.115  0.00  0.00    +0.000 A 
ATOM     27  N   UNL     1      45.446   2.117   9.022  0.00  0.00    +0.000 NA
ATOM     28  C   UNL     1      46.326   1.803   8.050  0.00  0.00    +0.000 A 
ATOM     29  C   UNL     1      46.876   2.726   7.190  0.00  0.00    +0.000 A 
ATOM     30  C   UNL     1      46.469   4.024   7.377  0.00  0.00    +0.000 A 
ATOM     31  N   UNL     1      45.586   4.399   8.325  0.00  0.00    +0.000 NA
ENDBRANCH  25  26
BRANCH  25  32
ATOM     32  O   UNL     1      43.532   5.117   9.879  0.00  0.00    +0.000 OA
ATOM     33  H   UNL     1      44.043   5.446   9.113  0.00  0.00    +0.000 HD
ENDBRANCH  25  32
ENDBRANCH  24  25
ENDBRANCH  23  24
ENDBRANCH   4  23
TORSDOF 9
ENDMDL
MODEL 8
REMARK VINA RESULT:    -6.328      3.286      8.397
REMARK INTER + INTRA:         -10.647
REMARK INTER:                  -9.212
REMARK INTRA:                  -1.435
REMARK UNBOUND:                -1.174
REMARK  Name = 
REMARK  10 active torsions:
REMARK  status: ('A' for Active; 'I' for Inactive)
REMARK    1  A    between atoms: C_1  and  O_2
REMARK    2  A    between atoms: O_2  and  C_3
REMARK    3  A    between atoms: C_10  and  C_11
REMARK    4  A    between atoms: N_13  and  C_14
REMARK    5  A    between atoms: C_14  and  C_15
REMARK    6  A    between atoms: C_18  and  O_19
REMARK    7  A    between atoms: O_19  and  C_20
REMARK    8  A    between atoms: C_20  and  C_21
REMARK    9  A    between atoms: C_21  and  O_22
REMARK   10  A    between atoms: C_21  and  C_23
REMARK                            x       y       z     vdW  Elec       q    Type
REMARK                         _______ _______ _______ _____ _____    ______ ____
ROOT
ATOM      1  C   UNL     1      48.538   8.028  13.327  0.00  0.00    +0.000 A 
ATOM      2  C   UNL     1      48.361   9.143  14.156  0.00  0.00    +0.000 A 
ATOM      3  C   UNL     1      48.423   9.020  15.549  0.00  0.00    +0.000 A 
ATOM      4  C   UNL     1      48.677   7.780  16.138  0.00  0.00    +0.000 A 
ATOM      5  C   UNL     1      48.924   6.680  15.314  0.00  0.00    +0.000 A 
ATOM      6  C   UNL     1      48.862   6.802  13.920  0.00  0.00    +0.000 A 
ENDROOT
BRANCH   1   7
ATOM      7  C   UNL     1      48.377   8.155  11.834  0.00  0.00    +0.000 C 
BRANCH   7  10
ATOM      8  C   UNL     1      46.304   6.955  11.285  0.00  0.00    +0.000 C 
ATOM      9  O   UNL     1      45.618   7.855  11.765  0.00  0.00    +0.000 OA
ATOM     10  N   UNL     1      47.671   7.033  11.272  0.00  0.00    +0.000 N 
ATOM     11  H   UNL     1      48.222   6.277  10.894  0.00  0.00    +0.000 HD
BRANCH   8  19
ATOM     12  C   UNL     1      44.513   4.356  12.643  0.00  0.00    +0.000 A 
ATOM     13  N   UNL     1      43.752   3.274  12.901  0.00  0.00    +0.000 NA
ATOM     14  C   UNL     1      43.416   2.488  11.874  0.00  0.00    +0.000 A 
ATOM     15  N   UNL     1      43.758   2.644  10.597  0.00  0.00    +0.000 NA
ATOM     16  C   UNL     1      44.502   3.742  10.384  0.00  0.00    +0.000 A 
ATOM     17  S   UNL     1      45.043   4.098   8.814  0.00  0.00    +0.000 S 
ATOM     18  C   UNL     1      45.823   5.510   9.349  0.00  0.00    +0.000 A 
ATOM     19  C   UNL     1      45.687   5.745  10.713  0.00  0.00    +0.000 A 
ATOM     20  C   UNL     1      44.917   4.671  11.333  0.00  0.00    +0.000 A 
BRANCH  12  22
ATOM     21  C   UNL     1      46.070   4.780  14.338  0.00  0.00    +0.000 C 
ATOM     22  O   UNL     1      44.861   5.172  13.696  0.00  0.00    +0.000 OA
ENDBRANCH  12  22
ENDBRANCH   8  19
ENDBRANCH   7  10
ENDBRANCH   1   7
BRANCH   4  23
ATOM     23  O   UNL     1      48.693   7.522  17.483  0.00  0.00    +0.000 OA
BRANCH  23  24
ATOM     24  C   UNL     1      49.845   6.831  17.991  0.00  0.00    +0.000 C 
BRANCH  24  25
ATOM     25  C   UNL     1      49.425   5.693  18.931  0.00  0.00    +0.000 C 
BRANCH  25  26
ATOM     26  C   UNL     1      49.323   4.407  18.121  0.00  0.00    +0.000 A 
ATOM     27  N   UNL     1      48.129   4.055  17.606  0.00  0.00    +0.000 NA
ATOM     28  C   UNL     1      48.095   2.903  16.906  0.00  0.00    +0.000 A 
ATOM     29  C   UNL     1      49.189   2.090  16.719  0.00  0.00    +0.000 A 
ATOM     30  C   UNL     1      50.355   2.527  17.298  0.00  0.00    +0.000 A 
ATOM     31  N   UNL     1      50.455   3.673  18.001  0.00  0.00    +0.000 NA
ENDBRANCH  25  26
BRANCH  25  32
ATOM     32  O   UNL     1      48.150   6.008  19.529  0.00  0.00    +0.000 OA
ATOM     33  H   UNL     1      48.249   5.786  20.476  0.00  0.00    +0.000 HD
ENDBRANCH  25  32
ENDBRANCH  24  25
ENDBRANCH  23  24
ENDBRANCH   4  23
TORSDOF 9
ENDMDL
MODEL 9
REMARK VINA RESULT:    -6.297      1.854      3.117
REMARK INTER + INTRA:         -10.600
REMARK INTER:                  -9.574
REMARK INTRA:                  -1.026
REMARK UNBOUND:                -1.174
REMARK  Name = 
REMARK  10 active torsions:
REMARK  status: ('A' for Active; 'I' for Inactive)
REMARK    1  A    between atoms: C_1  and  O_2
REMARK    2  A    between atoms: O_2  and  C_3
REMARK    3  A    between atoms: C_10  and  C_11
REMARK    4  A    between atoms: N_13  and  C_14
REMARK    5  A    between atoms: C_14  and  C_15
REMARK    6  A    between atoms: C_18  and  O_19
REMARK    7  A    between atoms: O_19  and  C_20
REMARK    8  A    between atoms: C_20  and  C_21
REMARK    9  A    between atoms: C_21  and  O_22
REMARK   10  A    between atoms: C_21  and  C_23
REMARK                            x       y       z     vdW  Elec       q    Type
REMARK                         _______ _______ _______ _____ _____    ______ ____
ROOT
ATOM      1  C   UNL     1      48.239   5.554  15.763  0.00  0.00    +0.000 A 
ATOM      2  C   UNL     1      48.202   6.398  14.646  0.00  0.00    +0.000 A 
ATOM      3  C   UNL     1      47.454   6.056  13.512  0.00  0.00    +0.000 A 
ATOM      4  C   UNL     1      46.720   4.870  13.481  0.00  0.00    +0.000 A 
ATOM      5  C   UNL     1      46.697   4.061  14.619  0.00  0.00    +0.000 A 
ATOM      6  C   UNL     1      47.444   4.401  15.754  0.00  0.00    +0.000 A 
ENDROOT
BRANCH   1   7
ATOM      7  C   UNL     1      49.120   5.886  16.940  0.00  0.00    +0.000 C 
BRANCH   7  10
ATOM      8  C   UNL     1      50.292   3.904  17.796  0.00  0.00    +0.000 C 
ATOM      9  O   UNL     1      49.315   3.576  18.466  0.00  0.00    +0.000 OA
ATOM     10  N   UNL     1      50.270   5.024  17.010  0.00  0.00    +0.000 N 
ATOM     11  H   UNL     1      51.087   5.293  16.481  0.00  0.00    +0.000 HD
BRANCH   8  19
ATOM     12  C   UNL     1      53.580   4.695  18.407  0.00  0.00    +0.000 A 
ATOM     13  N   UNL     1      54.904   4.720  18.658  0.00  0.00    +0.000 NA
ATOM     14  C   UNL     1      55.576   3.568  18.577  0.00  0.00    +0.000 A 
ATOM     15  N   UNL     1      55.086   2.372  18.263  0.00  0.00    +0.000 NA
ATOM     16  C   UNL     1      53.761   2.391  18.036  0.00  0.00    +0.000 A 
ATOM     17  S   UNL     1      52.962   0.955  17.609  0.00  0.00    +0.000 S 
ATOM     18  C   UNL     1      51.466   1.755  17.522  0.00  0.00    +0.000 A 
ATOM     19  C   UNL     1      51.536   3.113  17.817  0.00  0.00    +0.000 A 
ATOM     20  C   UNL     1      52.916   3.494  18.100  0.00  0.00    +0.000 A 
BRANCH  12  22
ATOM     21  C   UNL     1      53.441   6.804  19.415  0.00  0.00    +0.000 C 
ATOM     22  O   UNL     1      52.880   5.878  18.489  0.00  0.00    +0.000 OA
ENDBRANCH  12  22
ENDBRANCH   8  19
ENDBRANCH   7  10
ENDBRANCH   1   7
BRANCH   4  23
ATOM     23  O   UNL     1      46.010   4.396  12.409  0.00  0.00    +0.000 OA
BRANCH  23  24
ATOM     24  C   UNL     1      45.271   5.366  11.649  0.00  0.00    +0.000 C 
BRANCH  24  25
ATOM     25  C   UNL     1      44.206   4.680  10.784  0.00  0.00    +0.000 C 
BRANCH  25  26
ATOM     26  C   UNL     1      44.904   3.936   9.653  0.00  0.00    +0.000 A 
ATOM     27  N   UNL     1      44.939   2.590   9.684  0.00  0.00    +0.000 NA
ATOM     28  C   UNL     1      45.578   1.983   8.664  0.00  0.00    +0.000 A 
ATOM     29  C   UNL     1      46.192   2.662   7.636  0.00  0.00    +0.000 A 
ATOM     30  C   UNL     1      46.116   4.031   7.705  0.00  0.00    +0.000 A 
ATOM     31  N   UNL     1      45.484   4.695   8.693  0.00  0.00    +0.000 NA
ENDBRANCH  25  26
BRANCH  25  32
ATOM     32  O   UNL     1      43.307   5.675  10.248  0.00  0.00    +0.000 OA
ATOM     33  H   UNL     1      42.717   5.186   9.640  0.00  0.00    +0.000 HD
ENDBRANCH  25  32
ENDBRANCH  24  25
ENDBRANCH  23  24
ENDBRANCH   4  23
TORSDOF 9
ENDMDL
