MODEL 1
REMARK VINA RESULT:    -7.639      0.000      0.000
REMARK INTER + INTRA:         -10.201
REMARK INTER:                  -9.648
REMARK INTRA:                  -0.553
REMARK UNBOUND:                -0.553
REMARK  Name = 
REMARK  5 active torsions:
REMARK  status: ('A' for Active; 'I' for Inactive)
REMARK    1  A    between atoms: N_1  and  C_2
REMARK    2  A    between atoms: C_2  and  C_3
REMARK    3  A    between atoms: C_6  and  C_7
REMARK    4  A    between atoms: C_7  and  N_8
REMARK    5  A    between atoms: C_13  and  C_14
REMARK                            x       y       z     vdW  Elec       q    Type
REMARK                         _______ _______ _______ _____ _____    ______ ____
ROOT
ATOM      1  N   UNL     1      44.417   4.751  10.249  0.00  0.00    +0.000 N 
ATOM      2  C   UNL     1      43.693   3.720  10.804  0.00  0.00    +0.000 A 
ATOM      3  C   UNL     1      44.157   2.539  10.274  0.00  0.00    +0.000 A 
ATOM      4  C   UNL     1      45.106   2.868   9.274  0.00  0.00    +0.000 A 
ATOM      5  C   UNL     1      45.881   2.122   8.372  0.00  0.00    +0.000 A 
ATOM      6  C   UNL     1      46.662   2.820   7.451  0.00  0.00    +0.000 A 
ATOM      7  C   UNL     1      46.679   4.218   7.524  0.00  0.00    +0.000 A 
ATOM      8  N   UNL     1      45.994   4.985   8.414  0.00  0.00    +0.000 NA
ATOM      9  C   UNL     1      45.220   4.258   9.247  0.00  0.00    +0.000 A 
ENDROOT
BRANCH   6  10
ATOM     10  C   UNL     1      47.463   2.156   6.396  0.00  0.00    +0.000 C 
ATOM     11  N   UNL     1      47.799   2.875   5.276  0.00  0.00    +0.000 N 
ATOM     12  O   UNL     1      47.837   0.996   6.510  0.00  0.00    +0.000 OA
ATOM     13  H   UNL     1      47.581   3.846   5.117  0.00  0.00    +0.000 HD
ATOM     14  H   UNL     1      48.379   2.404   4.593  0.00  0.00    +0.000 HD
ENDBRANCH   6  10
BRANCH   1  15
ATOM     15  C   UNL     1      44.396   6.127  10.739  0.00  0.00    +0.000 C 
BRANCH  15  19
ATOM     16  C   UNL     1      47.348   8.155  12.357  0.00  0.00    +0.000 C 
ATOM     17  C   UNL     1      47.469   6.782  11.671  0.00  0.00    +0.000 C 
ATOM     18  C   UNL     1      46.468   5.763  12.213  0.00  0.00    +0.000 C 
ATOM     19  C   UNL     1      45.009   6.248  12.157  0.00  0.00    +0.000 C 
ATOM     20  C   UNL     1      44.865   7.661  12.746  0.00  0.00    +0.000 C 
ATOM     21  C   UNL     1      45.900   8.658  12.231  0.00  0.00    +0.000 C 
BRANCH  16  22
ATOM     22  C   UNL     1      47.893   8.090  13.799  0.00  0.00    +0.000 C 
BRANCH  22  23
ATOM     23  N   UNL     1      47.211   9.006  14.707  0.00  0.00    +0.000 NA
ATOM     24  H   UNL     1      46.292   9.233  14.325  0.00  0.00    +0.000 HD
ATOM     25  H   UNL     1      47.719   9.889  14.743  0.00  0.00    +0.000 HD
ENDBRANCH  22  23
ENDBRANCH  16  22
ENDBRANCH  15  19
ENDBRANCH   1  15
TORSDOF 5
ENDMDL
MODEL 2
REMARK VINA RESULT:    -6.844      2.573      6.849
REMARK INTER + INTRA:          -9.197
REMARK INTER:                  -8.665
REMARK INTRA:                  -0.532
REMARK UNBOUND:                -0.553
REMARK  Name = 
REMARK  5 active torsions:
REMARK  status: ('A' for Active; 'I' for Inactive)
REMARK    1  A    between atoms: N_1  and  C_2
REMARK    2  A    between atoms: C_2  and  C_3
REMARK    3  A    between atoms: C_6  and  C_7
REMARK    4  A    between atoms: C_7  and  N_8
REMARK    5  A    between atoms: C_13  and  C_14
REMARK                            x       y       z     vdW  Elec       q    Type
REMARK                         _______ _______ _______ _____ _____    ______ ____
ROOT
ATOM      1  N   UNL     1      44.270   4.439  11.202  0.00  0.00    +0.000 N 
ATOM      2  C   UNL     1      42.982   4.918  11.107  0.00  0.00    +0.000 A 
ATOM      3  C   UNL     1      43.003   6.260  11.407  0.00  0.00    +0.000 A 
ATOM      4  C   UNL     1      44.320   6.581  11.819  0.00  0.00    +0.000 A 
ATOM      5  C   UNL     1      44.948   7.750  12.277  0.00  0.00    +0.000 A 
ATOM      6  C   UNL     1      46.280   7.659  12.682  0.00  0.00    +0.000 A 
ATOM      7  C   UNL     1      46.930   6.427  12.544  0.00  0.00    +0.000 A 
ATOM      8  N   UNL     1      46.385   5.282  12.052  0.00  0.00    +0.000 NA
ATOM      9  C   UNL     1      45.084   5.417  11.723  0.00  0.00    +0.000 A 
ENDROOT
BRANCH   6  10
ATOM     10  C   UNL     1      47.034   8.797  13.259  0.00  0.00    +0.000 C 
ATOM     11  N   UNL     1      47.188   8.858  14.621  0.00  0.00    +0.000 N 
ATOM     12  O   UNL     1      47.527   9.664  12.550  0.00  0.00    +0.000 OA
ATOM     13  H   UNL     1      46.863   8.167  15.279  0.00  0.00    +0.000 HD
ATOM     14  H   UNL     1      47.741   9.626  14.980  0.00  0.00    +0.000 HD
ENDBRANCH   6  10
BRANCH   1  15
ATOM     15  C   UNL     1      44.697   3.130  10.716  0.00  0.00    +0.000 C 
BRANCH  15  19
ATOM     16  C   UNL     1      46.804   2.731   7.424  0.00  0.00    +0.000 C 
ATOM     17  C   UNL     1      46.362   4.064   8.053  0.00  0.00    +0.000 C 
ATOM     18  C   UNL     1      44.863   4.107   8.346  0.00  0.00    +0.000 C 
ATOM     19  C   UNL     1      44.374   2.933   9.214  0.00  0.00    +0.000 C 
ATOM     20  C   UNL     1      44.881   1.588   8.670  0.00  0.00    +0.000 C 
ATOM     21  C   UNL     1      46.371   1.571   8.336  0.00  0.00    +0.000 C 
BRANCH  16  22
ATOM     22  C   UNL     1      46.313   2.631   5.964  0.00  0.00    +0.000 C 
BRANCH  22  23
ATOM     23  N   UNL     1      47.332   3.015   4.993  0.00  0.00    +0.000 NA
ATOM     24  H   UNL     1      47.947   3.713   5.412  0.00  0.00    +0.000 HD
ATOM     25  H   UNL     1      46.888   3.479   4.201  0.00  0.00    +0.000 HD
ENDBRANCH  22  23
ENDBRANCH  16  22
ENDBRANCH  15  19
ENDBRANCH   1  15
TORSDOF 5
ENDMDL
MODEL 3
REMARK VINA RESULT:    -5.973      4.450      6.267
REMARK INTER + INTRA:          -8.097
REMARK INTER:                  -7.691
REMARK INTRA:                  -0.407
REMARK UNBOUND:                -0.553
REMARK  Name = 
REMARK  5 active torsions:
REMARK  status: ('A' for Active; 'I' for Inactive)
REMARK    1  A    between atoms: N_1  and  C_2
REMARK    2  A    between atoms: C_2  and  C_3
REMARK    3  A    between atoms: C_6  and  C_7
REMARK    4  A    between atoms: C_7  and  N_8
REMARK    5  A    between atoms: C_13  and  C_14
REMARK                            x       y       z     vdW  Elec       q    Type
REMARK                         _______ _______ _______ _____ _____    ______ ____
ROOT
ATOM      1  N   UNL     1      47.377   5.271  14.627  0.00  0.00    +0.000 N 
ATOM      2  C   UNL     1      47.986   6.441  14.230  0.00  0.00    +0.000 A 
ATOM      3  C   UNL     1      47.451   6.809  13.018  0.00  0.00    +0.000 A 
ATOM      4  C   UNL     1      46.582   5.768  12.604  0.00  0.00    +0.000 A 
ATOM      5  C   UNL     1      45.792   5.542  11.466  0.00  0.00    +0.000 A 
ATOM      6  C   UNL     1      45.117   4.325  11.373  0.00  0.00    +0.000 A 
ATOM      7  C   UNL     1      45.213   3.431  12.446  0.00  0.00    +0.000 A 
ATOM      8  N   UNL     1      45.916   3.627  13.594  0.00  0.00    +0.000 NA
ATOM      9  C   UNL     1      46.586   4.798  13.607  0.00  0.00    +0.000 A 
ENDROOT
BRANCH   6  10
ATOM     10  C   UNL     1      44.316   3.929  10.191  0.00  0.00    +0.000 C 
ATOM     11  N   UNL     1      44.297   4.763   9.101  0.00  0.00    +0.000 N 
ATOM     12  O   UNL     1      43.690   2.877  10.164  0.00  0.00    +0.000 OA
ATOM     13  H   UNL     1      44.820   5.621   9.011  0.00  0.00    +0.000 HD
ATOM     14  H   UNL     1      43.773   4.445   8.296  0.00  0.00    +0.000 HD
ENDBRANCH   6  10
BRANCH   1  15
ATOM     15  C   UNL     1      47.489   4.701  15.968  0.00  0.00    +0.000 C 
BRANCH  15  19
ATOM     16  C   UNL     1      48.672   4.703  19.715  0.00  0.00    +0.000 C 
ATOM     17  C   UNL     1      47.718   5.725  19.072  0.00  0.00    +0.000 C 
ATOM     18  C   UNL     1      48.282   6.330  17.788  0.00  0.00    +0.000 C 
ATOM     19  C   UNL     1      48.698   5.278  16.745  0.00  0.00    +0.000 C 
ATOM     20  C   UNL     1      49.574   4.183  17.375  0.00  0.00    +0.000 C 
ATOM     21  C   UNL     1      49.023   3.618  18.682  0.00  0.00    +0.000 C 
BRANCH  16  22
ATOM     22  C   UNL     1      49.884   5.417  20.348  0.00  0.00    +0.000 C 
BRANCH  22  23
ATOM     23  N   UNL     1      50.929   4.493  20.778  0.00  0.00    +0.000 NA
ATOM     24  H   UNL     1      51.352   4.843  21.638  0.00  0.00    +0.000 HD
ATOM     25  H   UNL     1      51.679   4.484  20.087  0.00  0.00    +0.000 HD
ENDBRANCH  22  23
ENDBRANCH  16  22
ENDBRANCH  15  19
ENDBRANCH   1  15
TORSDOF 5
ENDMDL
MODEL 4
REMARK VINA RESULT:    -5.854      4.641      8.347
REMARK INTER + INTRA:          -7.947
REMARK INTER:                  -7.475
REMARK INTRA:                  -0.472
REMARK UNBOUND:                -0.553
REMARK  Name = 
REMARK  5 active torsions:
REMARK  status: ('A' for Active; 'I' for Inactive)
REMARK    1  A    between atoms: N_1  and  C_2
REMARK    2  A    between atoms: C_2  and  C_3
REMARK    3  A    between atoms: C_6  and  C_7
REMARK    4  A    between atoms: C_7  and  N_8
REMARK    5  A    between atoms: C_13  and  C_14
REMARK                            x       y       z     vdW  Elec       q    Type
REMARK                         _______ _______ _______ _____ _____    ______ ____
ROOT
ATOM      1  N   UNL     1      48.069   6.610  14.297  0.00  0.00    +0.000 N 
ATOM      2  C   UNL     1      48.470   7.920  14.442  0.00  0.00    +0.000 A 
ATOM      3  C   UNL     1      49.080   8.045  15.668  0.00  0.00    +0.000 A 
ATOM      4  C   UNL     1      48.935   6.807  16.342  0.00  0.00    +0.000 A 
ATOM      5  C   UNL     1      49.300   6.331  17.611  0.00  0.00    +0.000 A 
ATOM      6  C   UNL     1      48.901   5.042  17.963  0.00  0.00    +0.000 A 
ATOM      7  C   UNL     1      48.220   4.277  17.009  0.00  0.00    +0.000 A 
ATOM      8  N   UNL     1      47.894   4.669  15.748  0.00  0.00    +0.000 NA
ATOM      9  C   UNL     1      48.262   5.939  15.482  0.00  0.00    +0.000 A 
ENDROOT
BRANCH   6  10
ATOM     10  C   UNL     1      49.152   4.450  19.298  0.00  0.00    +0.000 C 
ATOM     11  N   UNL     1      48.470   3.312  19.651  0.00  0.00    +0.000 N 
ATOM     12  O   UNL     1      49.958   4.943  20.077  0.00  0.00    +0.000 OA
ATOM     13  H   UNL     1      47.828   2.808  19.060  0.00  0.00    +0.000 HD
ATOM     14  H   UNL     1      48.693   2.912  20.553  0.00  0.00    +0.000 HD
ENDBRANCH   6  10
BRANCH   1  15
ATOM     15  C   UNL     1      47.614   6.025  13.038  0.00  0.00    +0.000 C 
BRANCH  15  19
ATOM     16  C   UNL     1      44.960   4.185  10.800  0.00  0.00    +0.000 C 
ATOM     17  C   UNL     1      45.692   5.490  10.439  0.00  0.00    +0.000 C 
ATOM     18  C   UNL     1      45.593   6.544  11.541  0.00  0.00    +0.000 C 
ATOM     19  C   UNL     1      46.070   6.041  12.915  0.00  0.00    +0.000 C 
ATOM     20  C   UNL     1      45.434   4.687  13.266  0.00  0.00    +0.000 C 
ATOM     21  C   UNL     1      45.497   3.657  12.141  0.00  0.00    +0.000 C 
BRANCH  16  22
ATOM     22  C   UNL     1      43.431   4.388  10.745  0.00  0.00    +0.000 C 
BRANCH  22  23
ATOM     23  N   UNL     1      42.692   3.336  11.435  0.00  0.00    +0.000 NA
ATOM     24  H   UNL     1      43.253   2.484  11.444  0.00  0.00    +0.000 HD
ATOM     25  H   UNL     1      41.853   3.106  10.903  0.00  0.00    +0.000 HD
ENDBRANCH  22  23
ENDBRANCH  16  22
ENDBRANCH  15  19
ENDBRANCH   1  15
TORSDOF 5
ENDMDL
MODEL 5
REMARK VINA RESULT:    -5.685      4.284      6.454
REMARK INTER + INTRA:          -7.733
REMARK INTER:                  -7.264
REMARK INTRA:                  -0.469
REMARK UNBOUND:                -0.553
REMARK  Name = 
REMARK  5 active torsions:
REMARK  status: ('A' for Active; 'I' for Inactive)
REMARK    1  A    between atoms: N_1  and  C_2
REMARK    2  A    between atoms: C_2  and  C_3
REMARK    3  A    between atoms: C_6  and  C_7
REMARK    4  A    between atoms: C_7  and  N_8
REMARK    5  A    between atoms: C_13  and  C_14
REMARK                            x       y       z     vdW  Elec       q    Type
REMARK                         _______ _______ _______ _____ _____    ______ ____
ROOT
ATOM      1  N   UNL     1      48.172   6.678  14.319  0.00  0.00    +0.000 N 
ATOM      2  C   UNL     1      47.767   7.895  13.819  0.00  0.00    +0.000 A 
ATOM      3  C   UNL     1      46.606   7.701  13.109  0.00  0.00    +0.000 A 
ATOM      4  C   UNL     1      46.363   6.305  13.069  0.00  0.00    +0.000 A 
ATOM      5  C   UNL     1      45.381   5.495  12.477  0.00  0.00    +0.000 A 
ATOM      6  C   UNL     1      45.522   4.112  12.587  0.00  0.00    +0.000 A 
ATOM      7  C   UNL     1      46.595   3.615  13.337  0.00  0.00    +0.000 A 
ATOM      8  N   UNL     1      47.539   4.356  13.978  0.00  0.00    +0.000 NA
ATOM      9  C   UNL     1      47.379   5.683  13.796  0.00  0.00    +0.000 A 
ENDROOT
BRANCH   6  10
ATOM     10  C   UNL     1      44.602   3.147  11.942  0.00  0.00    +0.000 C 
ATOM     11  N   UNL     1      44.857   2.760  10.650  0.00  0.00    +0.000 N 
ATOM     12  O   UNL     1      43.638   2.684  12.538  0.00  0.00    +0.000 OA
ATOM     13  H   UNL     1      45.651   3.047  10.099  0.00  0.00    +0.000 HD
ATOM     14  H   UNL     1      44.232   2.070  10.252  0.00  0.00    +0.000 HD
ENDBRANCH   6  10
BRANCH   1  15
ATOM     15  C   UNL     1      49.214   6.509  15.328  0.00  0.00    +0.000 C 
BRANCH  15  19
ATOM     16  C   UNL     1      49.983   4.705  18.733  0.00  0.00    +0.000 C 
ATOM     17  C   UNL     1      49.029   4.193  17.639  0.00  0.00    +0.000 C 
ATOM     18  C   UNL     1      48.007   5.244  17.211  0.00  0.00    +0.000 C 
ATOM     19  C   UNL     1      48.643   6.573  16.768  0.00  0.00    +0.000 C 
ATOM     20  C   UNL     1      49.678   7.067  17.792  0.00  0.00    +0.000 C 
ATOM     21  C   UNL     1      50.665   5.996  18.248  0.00  0.00    +0.000 C 
BRANCH  16  22
ATOM     22  C   UNL     1      49.245   4.826  20.083  0.00  0.00    +0.000 C 
BRANCH  22  23
ATOM     23  N   UNL     1      48.502   3.620  20.435  0.00  0.00    +0.000 NA
ATOM     24  H   UNL     1      48.485   3.522  21.451  0.00  0.00    +0.000 HD
ATOM     25  H   UNL     1      49.001   2.801  20.089  0.00  0.00    +0.000 HD
ENDBRANCH  22  23
ENDBRANCH  16  22
ENDBRANCH  15  19
ENDBRANCH   1  15
TORSDOF 5
ENDMDL
MODEL 6
REMARK VINA RESULT:    -5.282      3.171      5.092
REMARK INTER + INTRA:          -7.224
REMARK INTER:                  -6.659
REMARK INTRA:                  -0.565
REMARK UNBOUND:                -0.553
REMARK  Name = 
REMARK  5 active torsions:
REMARK  status: ('A' for Active; 'I' for Inactive)
REMARK    1  A    between atoms: N_1  and  C_2
REMARK    2  A    between atoms: C_2  and  C_3
REMARK    3  A    between atoms: C_6  and  C_7
REMARK    4  A    between atoms: C_7  and  N_8
REMARK    5  A    between atoms: C_13  and  C_14
REMARK                            x       y       z     vdW  Elec       q    Type
REMARK                         _______ _______ _______ _____ _____    ______ ____
ROOT
ATOM      1  N   UNL     1      47.490   6.370  14.025  0.00  0.00    +0.000 N 
ATOM      2  C   UNL     1      47.673   5.390  14.976  0.00  0.00    +0.000 A 
ATOM      3  C   UNL     1      47.022   4.256  14.551  0.00  0.00    +0.000 A 
ATOM      4  C   UNL     1      46.318   4.591  13.367  0.00  0.00    +0.000 A 
ATOM      5  C   UNL     1      45.459   3.892  12.504  0.00  0.00    +0.000 A 
ATOM      6  C   UNL     1      44.871   4.599  11.455  0.00  0.00    +0.000 A 
ATOM      7  C   UNL     1      45.223   5.944  11.286  0.00  0.00    +0.000 A 
ATOM      8  N   UNL     1      46.092   6.650  12.057  0.00  0.00    +0.000 NA
ATOM      9  C   UNL     1      46.591   5.929  13.082  0.00  0.00    +0.000 A 
ENDROOT
BRANCH   6  10
ATOM     10  C   UNL     1      43.887   4.002  10.523  0.00  0.00    +0.000 C 
ATOM     11  N   UNL     1      43.909   4.390   9.207  0.00  0.00    +0.000 N 
ATOM     12  O   UNL     1      43.074   3.167  10.899  0.00  0.00    +0.000 OA
ATOM     13  H   UNL     1      44.571   5.030   8.797  0.00  0.00    +0.000 HD
ATOM     14  H   UNL     1      43.250   3.934   8.590  0.00  0.00    +0.000 HD
ENDBRANCH   6  10
BRANCH   1  15
ATOM     15  C   UNL     1      48.230   7.629  13.990  0.00  0.00    +0.000 C 
BRANCH  15  19
ATOM     16  C   UNL     1      50.631  10.089  12.086  0.00  0.00    +0.000 C 
ATOM     17  C   UNL     1      49.414   9.368  11.478  0.00  0.00    +0.000 C 
ATOM     18  C   UNL     1      49.435   7.862  11.733  0.00  0.00    +0.000 C 
ATOM     19  C   UNL     1      49.569   7.494  13.221  0.00  0.00    +0.000 C 
ATOM     20  C   UNL     1      50.715   8.271  13.888  0.00  0.00    +0.000 C 
ATOM     21  C   UNL     1      50.712   9.768  13.588  0.00  0.00    +0.000 C 
BRANCH  16  22
ATOM     22  C   UNL     1      51.908   9.768  11.282  0.00  0.00    +0.000 C 
BRANCH  22  23
ATOM     23  N   UNL     1      53.124  10.251  11.928  0.00  0.00    +0.000 NA
ATOM     24  H   UNL     1      53.066  10.068  12.930  0.00  0.00    +0.000 HD
ATOM     25  H   UNL     1      53.177  11.265  11.837  0.00  0.00    +0.000 HD
ENDBRANCH  22  23
ENDBRANCH  16  22
ENDBRANCH  15  19
ENDBRANCH   1  15
TORSDOF 5
ENDMDL
MODEL 7
REMARK VINA RESULT:    -5.127      4.409      6.419
REMARK INTER + INTRA:          -7.029
REMARK INTER:                  -6.381
REMARK INTRA:                  -0.647
REMARK UNBOUND:                -0.553
REMARK  Name = 
REMARK  5 active torsions:
REMARK  status: ('A' for Active; 'I' for Inactive)
REMARK    1  A    between atoms: N_1  and  C_2
REMARK    2  A    between atoms: C_2  and  C_3
REMARK    3  A    between atoms: C_6  and  C_7
REMARK    4  A    between atoms: C_7  and  N_8
REMARK    5  A    between atoms: C_13  and  C_14
REMARK                            x       y       z     vdW  Elec       q    Type
REMARK                         _______ _______ _______ _____ _____    ______ ____
ROOT
ATOM      1  N   UNL     1      48.263   7.541  13.190  0.00  0.00    +0.000 N 
ATOM      2  C   UNL     1      47.737   8.731  12.736  0.00  0.00    +0.000 A 
ATOM      3  C   UNL     1      46.380   8.568  12.589  0.00  0.00    +0.000 A 
ATOM      4  C   UNL     1      46.086   7.205  12.840  0.00  0.00    +0.000 A 
ATOM      5  C   UNL     1      44.916   6.430  12.811  0.00  0.00    +0.000 A 
ATOM      6  C   UNL     1      45.036   5.059  13.041  0.00  0.00    +0.000 A 
ATOM      7  C   UNL     1      46.301   4.550  13.353  0.00  0.00    +0.000 A 
ATOM      8  N   UNL     1      47.454   5.265  13.452  0.00  0.00    +0.000 NA
ATOM      9  C   UNL     1      47.286   6.574  13.172  0.00  0.00    +0.000 A 
ENDROOT
BRANCH   6  10
ATOM     10  C   UNL     1      43.893   4.119  12.960  0.00  0.00    +0.000 C 
ATOM     11  N   UNL     1      44.146   2.802  12.667  0.00  0.00    +0.000 N 
ATOM     12  O   UNL     1      42.744   4.489  13.161  0.00  0.00    +0.000 OA
ATOM     13  H   UNL     1      45.060   2.397  12.536  0.00  0.00    +0.000 HD
ATOM     14  H   UNL     1      43.349   2.180  12.657  0.00  0.00    +0.000 HD
ENDBRANCH   6  10
BRANCH   1  15
ATOM     15  C   UNL     1      49.621   7.387  13.705  0.00  0.00    +0.000 C 
BRANCH  15  19
ATOM     16  C   UNL     1      50.639   6.055  17.259  0.00  0.00    +0.000 C 
ATOM     17  C   UNL     1      49.218   6.048  16.669  0.00  0.00    +0.000 C 
ATOM     18  C   UNL     1      48.795   7.417  16.138  0.00  0.00    +0.000 C 
ATOM     19  C   UNL     1      49.781   8.009  15.115  0.00  0.00    +0.000 C 
ATOM     20  C   UNL     1      51.228   7.942  15.630  0.00  0.00    +0.000 C 
ATOM     21  C   UNL     1      51.624   6.583  16.202  0.00  0.00    +0.000 C 
BRANCH  16  22
ATOM     22  C   UNL     1      50.664   6.808  18.606  0.00  0.00    +0.000 C 
BRANCH  22  23
ATOM     23  N   UNL     1      49.673   6.309  19.554  0.00  0.00    +0.000 NA
ATOM     24  H   UNL     1      49.370   5.378  19.263  0.00  0.00    +0.000 HD
ATOM     25  H   UNL     1      48.839   6.894  19.513  0.00  0.00    +0.000 HD
ENDBRANCH  22  23
ENDBRANCH  16  22
ENDBRANCH  15  19
ENDBRANCH   1  15
TORSDOF 5
ENDMDL
MODEL 8
REMARK VINA RESULT:    -5.083      4.214      7.640
REMARK INTER + INTRA:          -6.973
REMARK INTER:                  -6.440
REMARK INTRA:                  -0.533
REMARK UNBOUND:                -0.553
REMARK  Name = 
REMARK  5 active torsions:
REMARK  status: ('A' for Active; 'I' for Inactive)
REMARK    1  A    between atoms: N_1  and  C_2
REMARK    2  A    between atoms: C_2  and  C_3
REMARK    3  A    between atoms: C_6  and  C_7
REMARK    4  A    between atoms: C_7  and  N_8
REMARK    5  A    between atoms: C_13  and  C_14
REMARK                            x       y       z     vdW  Elec       q    Type
REMARK                         _______ _______ _______ _____ _____    ______ ____
ROOT
ATOM      1  N   UNL     1      47.242   7.828  12.956  0.00  0.00    +0.000 N 
ATOM      2  C   UNL     1      47.602   8.781  12.029  0.00  0.00    +0.000 A 
ATOM      3  C   UNL     1      48.948   9.023  12.166  0.00  0.00    +0.000 A 
ATOM      4  C   UNL     1      49.398   8.290  13.293  0.00  0.00    +0.000 A 
ATOM      5  C   UNL     1      50.631   8.157  13.950  0.00  0.00    +0.000 A 
ATOM      6  C   UNL     1      50.671   7.387  15.113  0.00  0.00    +0.000 A 
ATOM      7  C   UNL     1      49.497   6.739  15.516  0.00  0.00    +0.000 A 
ATOM      8  N   UNL     1      48.294   6.787  14.884  0.00  0.00    +0.000 NA
ATOM      9  C   UNL     1      48.304   7.584  13.795  0.00  0.00    +0.000 A 
ENDROOT
BRANCH   6  10
ATOM     10  C   UNL     1      51.887   7.233  15.944  0.00  0.00    +0.000 C 
ATOM     11  N   UNL     1      51.814   6.468  17.081  0.00  0.00    +0.000 N 
ATOM     12  O   UNL     1      52.948   7.758  15.631  0.00  0.00    +0.000 OA
ATOM     13  H   UNL     1      51.001   5.957  17.391  0.00  0.00    +0.000 HD
ATOM     14  H   UNL     1      52.672   6.351  17.604  0.00  0.00    +0.000 HD
ENDBRANCH   6  10
BRANCH   1  15
ATOM     15  C   UNL     1      45.962   7.125  12.958  0.00  0.00    +0.000 C 
BRANCH  15  19
ATOM     16  C   UNL     1      43.417   4.479  11.558  0.00  0.00    +0.000 C 
ATOM     17  C   UNL     1      43.875   4.600  13.022  0.00  0.00    +0.000 C 
ATOM     18  C   UNL     1      45.396   4.628  13.162  0.00  0.00    +0.000 C 
ATOM     19  C   UNL     1      46.070   5.721  12.313  0.00  0.00    +0.000 C 
ATOM     20  C   UNL     1      45.561   5.695  10.862  0.00  0.00    +0.000 C 
ATOM     21  C   UNL     1      44.042   5.620  10.736  0.00  0.00    +0.000 C 
BRANCH  16  22
ATOM     22  C   UNL     1      43.692   3.060  11.018  0.00  0.00    +0.000 C 
BRANCH  22  23
ATOM     23  N   UNL     1      43.017   2.018  11.786  0.00  0.00    +0.000 NA
ATOM     24  H   UNL     1      43.178   2.179  12.781  0.00  0.00    +0.000 HD
ATOM     25  H   UNL     1      43.445   1.116  11.582  0.00  0.00    +0.000 HD
ENDBRANCH  22  23
ENDBRANCH  16  22
ENDBRANCH  15  19
ENDBRANCH   1  15
TORSDOF 5
ENDMDL
MODEL 9
REMARK VINA RESULT:    -4.729      4.494      6.586
REMARK INTER + INTRA:          -6.526
REMARK INTER:                  -6.063
REMARK INTRA:                  -0.464
REMARK UNBOUND:                -0.553
REMARK  Name = 
REMARK  5 active torsions:
REMARK  status: ('A' for Active; 'I' for Inactive)
REMARK    1  A    between atoms: N_1  and  C_2
REMARK    2  A    between atoms: C_2  and  C_3
REMARK    3  A    between atoms: C_6  and  C_7
REMARK    4  A    between atoms: C_7  and  N_8
REMARK    5  A    between atoms: C_13  and  C_14
REMARK                            x       y       z     vdW  Elec       q    Type
REMARK                         _______ _______ _______ _____ _____    ______ ____
ROOT
ATOM      1  N   UNL     1      46.670   5.078  13.561  0.00  0.00    +0.000 N 
ATOM      2  C   UNL     1      45.909   4.079  12.996  0.00  0.00    +0.000 A 
ATOM      3  C   UNL     1      45.102   4.648  12.038  0.00  0.00    +0.000 A 
ATOM      4  C   UNL     1      45.287   6.052  12.109  0.00  0.00    +0.000 A 
ATOM      5  C   UNL     1      44.730   7.150  11.435  0.00  0.00    +0.000 A 
ATOM      6  C   UNL     1      45.108   8.428  11.848  0.00  0.00    +0.000 A 
ATOM      7  C   UNL     1      46.068   8.538  12.861  0.00  0.00    +0.000 A 
ATOM      8  N   UNL     1      46.680   7.507  13.504  0.00  0.00    +0.000 NA
ATOM      9  C   UNL     1      46.239   6.299  13.098  0.00  0.00    +0.000 A 
ENDROOT
BRANCH   6  10
ATOM     10  C   UNL     1      44.536   9.669  11.275  0.00  0.00    +0.000 C 
ATOM     11  N   UNL     1      45.184  10.857  11.504  0.00  0.00    +0.000 N 
ATOM     12  O   UNL     1      43.517   9.652  10.598  0.00  0.00    +0.000 OA
ATOM     13  H   UNL     1      46.053  10.963  12.005  0.00  0.00    +0.000 HD
ATOM     14  H   UNL     1      44.789  11.680  11.067  0.00  0.00    +0.000 HD
ENDBRANCH   6  10
BRANCH   1  15
ATOM     15  C   UNL     1      47.819   4.842  14.432  0.00  0.00    +0.000 C 
BRANCH  15  19
ATOM     16  C   UNL     1      49.484   3.851  17.850  0.00  0.00    +0.000 C 
ATOM     17  C   UNL     1      48.544   2.962  17.016  0.00  0.00    +0.000 C 
ATOM     18  C   UNL     1      47.243   3.670  16.644  0.00  0.00    +0.000 C 
ATOM     19  C   UNL     1      47.459   5.016  15.929  0.00  0.00    +0.000 C 
ATOM     20  C   UNL     1      48.471   5.893  16.683  0.00  0.00    +0.000 C 
ATOM     21  C   UNL     1      49.748   5.162  17.091  0.00  0.00    +0.000 C 
BRANCH  16  22
ATOM     22  C   UNL     1      48.936   4.025  19.282  0.00  0.00    +0.000 C 
BRANCH  22  23
ATOM     23  N   UNL     1      49.965   4.412  20.242  0.00  0.00    +0.000 NA
ATOM     24  H   UNL     1      50.870   4.434  19.771  0.00  0.00    +0.000 HD
ATOM     25  H   UNL     1      50.047   3.692  20.959  0.00  0.00    +0.000 HD
ENDBRANCH  22  23
ENDBRANCH  16  22
ENDBRANCH  15  19
ENDBRANCH   1  15
TORSDOF 5
ENDMDL
