MODEL 1
REMARK VINA RESULT:    -7.483      0.000      0.000
REMARK INTER + INTRA:         -11.330
REMARK INTER:                 -10.545
REMARK INTRA:                  -0.785
REMARK UNBOUND:                -0.785
REMARK  Name = 
REMARK  8 active torsions:
REMARK  status: ('A' for Active; 'I' for Inactive)
REMARK    1  A    between atoms: C_1  and  S_2
REMARK    2  A    between atoms: S_2  and  C_3
REMARK    3  A    between atoms: C_5  and  C_6
REMARK    4  A    between atoms: C_11  and  N_12
REMARK    5  A    between atoms: N_12  and  C_13
REMARK    6  A    between atoms: C_13  and  C_14
REMARK    7  A    between atoms: C_17  and  O_18
REMARK    8  A    between atoms: O_18  and  C_19
REMARK                            x       y       z     vdW  Elec       q    Type
REMARK                         _______ _______ _______ _____ _____    ______ ____
ROOT
ATOM      1  N   UNL     1      44.824   6.067  12.085  0.00  0.00    +0.000 N 
ATOM      2  H   UNL     1      44.291   6.931  12.050  0.00  0.00    +0.000 HD
ENDROOT
BRANCH   1   8
ATOM      3  C   UNL     1      47.077   5.682  13.160  0.00  0.00    +0.000 A 
ATOM      4  C   UNL     1      48.342   6.271  13.358  0.00  0.00    +0.000 A 
ATOM      5  C   UNL     1      48.645   7.535  12.849  0.00  0.00    +0.000 A 
ATOM      6  C   UNL     1      47.649   8.169  12.139  0.00  0.00    +0.000 A 
ATOM      7  N   UNL     1      46.426   7.633  11.915  0.00  0.00    +0.000 NA
ATOM      8  C   UNL     1      46.130   6.398  12.410  0.00  0.00    +0.000 A 
BRANCH   5   9
ATOM      9  C   UNL     1      49.990   8.112  13.091  0.00  0.00    +0.000 C 
ATOM     10  N   UNL     1      50.774   7.582  14.074  0.00  0.00    +0.000 N 
ATOM     11  O   UNL     1      50.405   9.046  12.420  0.00  0.00    +0.000 OA
ATOM     12  H   UNL     1      50.541   6.816  14.683  0.00  0.00    +0.000 HD
ATOM     13  H   UNL     1      51.681   8.015  14.201  0.00  0.00    +0.000 HD
ENDBRANCH   5   9
BRANCH   3  15
ATOM     14  C   UNL     1      47.246   4.360  15.582  0.00  0.00    +0.000 C 
ATOM     15  S   UNL     1      46.906   4.039  13.838  0.00  0.00    +0.000 S 
ENDBRANCH   3  15
ENDBRANCH   1   8
BRANCH   1  16
ATOM     16  C   UNL     1      44.192   4.863  11.562  0.00  0.00    +0.000 C 
ATOM     17  C   UNL     1      42.660   4.886  11.672  0.00  0.00    +0.000 C 
ATOM     18  C   UNL     1      43.442   3.877  12.436  0.00  0.00    +0.000 C 
BRANCH  16  19
ATOM     19  C   UNL     1      44.776   4.358  10.239  0.00  0.00    +0.000 A 
ATOM     20  C   UNL     1      44.530   3.055   9.782  0.00  0.00    +0.000 A 
ATOM     21  C   UNL     1      45.002   2.578   8.557  0.00  0.00    +0.000 A 
ATOM     22  C   UNL     1      45.689   3.430   7.706  0.00  0.00    +0.000 A 
ATOM     23  C   UNL     1      45.998   4.717   8.151  0.00  0.00    +0.000 A 
ATOM     24  C   UNL     1      45.559   5.170   9.404  0.00  0.00    +0.000 A 
BRANCH  22  25
ATOM     25  O   UNL     1      46.115   3.122   6.452  0.00  0.00    +0.000 OA
BRANCH  25  26
ATOM     26  C   UNL     1      47.274   2.309   6.298  0.00  0.00    +0.000 C 
ATOM     27  F   UNL     1      48.248   2.546   7.202  0.00  0.00    +0.000 F 
ATOM     28  F   UNL     1      46.905   1.015   6.435  0.00  0.00    +0.000 F 
ATOM     29  F   UNL     1      47.781   2.472   5.057  0.00  0.00    +0.000 F 
ENDBRANCH  25  26
ENDBRANCH  22  25
ENDBRANCH  16  19
ENDBRANCH   1  16
TORSDOF 7
ENDMDL
MODEL 2
REMARK VINA RESULT:    -7.438      2.209      3.034
REMARK INTER + INTRA:         -11.268
REMARK INTER:                 -10.948
REMARK INTRA:                  -0.320
REMARK UNBOUND:                -0.785
REMARK  Name = 
REMARK  8 active torsions:
REMARK  status: ('A' for Active; 'I' for Inactive)
REMARK    1  A    between atoms: C_1  and  S_2
REMARK    2  A    between atoms: S_2  and  C_3
REMARK    3  A    between atoms: C_5  and  C_6
REMARK    4  A    between atoms: C_11  and  N_12
REMARK    5  A    between atoms: N_12  and  C_13
REMARK    6  A    between atoms: C_13  and  C_14
REMARK    7  A    between atoms: C_17  and  O_18
REMARK    8  A    between atoms: O_18  and  C_19
REMARK                            x       y       z     vdW  Elec       q    Type
REMARK                         _______ _______ _______ _____ _____    ______ ____
ROOT
ATOM      1  N   UNL     1      45.982   3.841  13.210  0.00  0.00    +0.000 N 
ATOM      2  H   UNL     1      46.237   2.860  13.283  0.00  0.00    +0.000 HD
ENDROOT
BRANCH   1   8
ATOM      3  C   UNL     1      47.518   5.716  13.922  0.00  0.00    +0.000 A 
ATOM      4  C   UNL     1      48.257   6.208  15.016  0.00  0.00    +0.000 A 
ATOM      5  C   UNL     1      48.270   5.544  16.245  0.00  0.00    +0.000 A 
ATOM      6  C   UNL     1      47.519   4.393  16.332  0.00  0.00    +0.000 A 
ATOM      7  N   UNL     1      46.786   3.894  15.308  0.00  0.00    +0.000 NA
ATOM      8  C   UNL     1      46.770   4.542  14.110  0.00  0.00    +0.000 A 
BRANCH   5   9
ATOM      9  C   UNL     1      49.069   6.102  17.363  0.00  0.00    +0.000 C 
ATOM     10  N   UNL     1      48.561   7.136  18.093  0.00  0.00    +0.000 N 
ATOM     11  O   UNL     1      50.168   5.644  17.641  0.00  0.00    +0.000 OA
ATOM     12  H   UNL     1      47.672   7.589  17.959  0.00  0.00    +0.000 HD
ATOM     13  H   UNL     1      49.148   7.482  18.842  0.00  0.00    +0.000 HD
ENDBRANCH   5   9
BRANCH   3  15
ATOM     14  C   UNL     1      46.683   8.197  13.030  0.00  0.00    +0.000 C 
ATOM     15  S   UNL     1      47.583   6.738  12.460  0.00  0.00    +0.000 S 
ENDBRANCH   3  15
ENDBRANCH   1   8
BRANCH   1  16
ATOM     16  C   UNL     1      44.782   4.172  12.455  0.00  0.00    +0.000 C 
ATOM     17  C   UNL     1      44.110   5.472  12.924  0.00  0.00    +0.000 C 
ATOM     18  C   UNL     1      43.394   4.175  13.065  0.00  0.00    +0.000 C 
BRANCH  16  19
ATOM     19  C   UNL     1      44.905   3.974  10.941  0.00  0.00    +0.000 A 
ATOM     20  C   UNL     1      45.440   4.972  10.114  0.00  0.00    +0.000 A 
ATOM     21  C   UNL     1      45.615   4.806   8.738  0.00  0.00    +0.000 A 
ATOM     22  C   UNL     1      45.318   3.587   8.149  0.00  0.00    +0.000 A 
ATOM     23  C   UNL     1      44.733   2.589   8.931  0.00  0.00    +0.000 A 
ATOM     24  C   UNL     1      44.518   2.784  10.304  0.00  0.00    +0.000 A 
BRANCH  22  25
ATOM     25  O   UNL     1      45.532   3.264   6.846  0.00  0.00    +0.000 OA
BRANCH  25  26
ATOM     26  C   UNL     1      46.789   2.710   6.472  0.00  0.00    +0.000 C 
ATOM     27  F   UNL     1      47.830   3.130   7.220  0.00  0.00    +0.000 F 
ATOM     28  F   UNL     1      46.716   1.366   6.601  0.00  0.00    +0.000 F 
ATOM     29  F   UNL     1      47.041   2.994   5.175  0.00  0.00    +0.000 F 
ENDBRANCH  25  26
ENDBRANCH  22  25
ENDBRANCH  16  19
ENDBRANCH   1  16
TORSDOF 7
ENDMDL
MODEL 3
REMARK VINA RESULT:    -7.173      1.797      2.623
REMARK INTER + INTRA:         -10.894
REMARK INTER:                 -10.442
REMARK INTRA:                  -0.452
REMARK UNBOUND:                -0.785
REMARK  Name = 
REMARK  8 active torsions:
REMARK  status: ('A' for Active; 'I' for Inactive)
REMARK    1  A    between atoms: C_1  and  S_2
REMARK    2  A    between atoms: S_2  and  C_3
REMARK    3  A    between atoms: C_5  and  C_6
REMARK    4  A    between atoms: C_11  and  N_12
REMARK    5  A    between atoms: N_12  and  C_13
REMARK    6  A    between atoms: C_13  and  C_14
REMARK    7  A    between atoms: C_17  and  O_18
REMARK    8  A    between atoms: O_18  and  C_19
REMARK                            x       y       z     vdW  Elec       q    Type
REMARK                         _______ _______ _______ _____ _____    ______ ____
ROOT
ATOM      1  N   UNL     1      44.720   6.373  11.587  0.00  0.00    +0.000 N 
ATOM      2  H   UNL     1      44.545   7.083  10.881  0.00  0.00    +0.000 HD
ENDROOT
BRANCH   1   8
ATOM      3  C   UNL     1      46.155   8.136  12.688  0.00  0.00    +0.000 A 
ATOM      4  C   UNL     1      47.285   8.312  13.511  0.00  0.00    +0.000 A 
ATOM      5  C   UNL     1      48.012   7.221  13.992  0.00  0.00    +0.000 A 
ATOM      6  C   UNL     1      47.564   5.971  13.626  0.00  0.00    +0.000 A 
ATOM      7  N   UNL     1      46.477   5.760  12.847  0.00  0.00    +0.000 NA
ATOM      8  C   UNL     1      45.764   6.823  12.379  0.00  0.00    +0.000 A 
BRANCH   5   9
ATOM      9  C   UNL     1      49.197   7.461  14.851  0.00  0.00    +0.000 C 
ATOM     10  N   UNL     1      50.443   7.396  14.299  0.00  0.00    +0.000 N 
ATOM     11  O   UNL     1      49.072   7.721  16.039  0.00  0.00    +0.000 OA
ATOM     12  H   UNL     1      50.667   7.195  13.339  0.00  0.00    +0.000 HD
ATOM     13  H   UNL     1      51.218   7.564  14.930  0.00  0.00    +0.000 HD
ENDBRANCH   5   9
BRANCH   3  15
ATOM     14  C   UNL     1      46.746  10.724  11.913  0.00  0.00    +0.000 C 
ATOM     15  S   UNL     1      45.328   9.650  12.226  0.00  0.00    +0.000 S 
ENDBRANCH   3  15
ENDBRANCH   1   8
BRANCH   1  16
ATOM     16  C   UNL     1      44.072   5.079  11.418  0.00  0.00    +0.000 C 
ATOM     17  C   UNL     1      42.545   5.141  11.576  0.00  0.00    +0.000 C 
ATOM     18  C   UNL     1      43.359   4.357  12.544  0.00  0.00    +0.000 C 
BRANCH  16  19
ATOM     19  C   UNL     1      44.605   4.246  10.248  0.00  0.00    +0.000 A 
ATOM     20  C   UNL     1      45.271   4.845   9.169  0.00  0.00    +0.000 A 
ATOM     21  C   UNL     1      45.815   4.111   8.112  0.00  0.00    +0.000 A 
ATOM     22  C   UNL     1      45.768   2.726   8.139  0.00  0.00    +0.000 A 
ATOM     23  C   UNL     1      45.066   2.099   9.171  0.00  0.00    +0.000 A 
ATOM     24  C   UNL     1      44.483   2.848  10.203  0.00  0.00    +0.000 A 
BRANCH  22  25
ATOM     25  O   UNL     1      46.342   1.896   7.228  0.00  0.00    +0.000 OA
BRANCH  25  26
ATOM     26  C   UNL     1      47.329   2.418   6.345  0.00  0.00    +0.000 C 
ATOM     27  F   UNL     1      46.839   3.196   5.355  0.00  0.00    +0.000 F 
ATOM     28  F   UNL     1      48.185   3.177   7.066  0.00  0.00    +0.000 F 
ATOM     29  F   UNL     1      48.029   1.403   5.795  0.00  0.00    +0.000 F 
ENDBRANCH  25  26
ENDBRANCH  22  25
ENDBRANCH  16  19
ENDBRANCH   1  16
TORSDOF 7
ENDMDL
MODEL 4
REMARK VINA RESULT:    -6.675      4.389      6.818
REMARK INTER + INTRA:         -10.192
REMARK INTER:                  -9.632
REMARK INTRA:                  -0.560
REMARK UNBOUND:                -0.785
REMARK  Name = 
REMARK  8 active torsions:
REMARK  status: ('A' for Active; 'I' for Inactive)
REMARK    1  A    between atoms: C_1  and  S_2
REMARK    2  A    between atoms: S_2  and  C_3
REMARK    3  A    between atoms: C_5  and  C_6
REMARK    4  A    between atoms: C_11  and  N_12
REMARK    5  A    between atoms: N_12  and  C_13
REMARK    6  A    between atoms: C_13  and  C_14
REMARK    7  A    between atoms: C_17  and  O_18
REMARK    8  A    between atoms: O_18  and  C_19
REMARK                            x       y       z     vdW  Elec       q    Type
REMARK                         _______ _______ _______ _____ _____    ______ ____
ROOT
ATOM      1  N   UNL     1      43.801   5.126   9.832  0.00  0.00    +0.000 N 
ATOM      2  H   UNL     1      42.896   5.074   9.374  0.00  0.00    +0.000 HD
ENDROOT
BRANCH   1   8
ATOM      3  C   UNL     1      44.685   2.786   9.481  0.00  0.00    +0.000 A 
ATOM      4  C   UNL     1      45.635   2.041   8.754  0.00  0.00    +0.000 A 
ATOM      5  C   UNL     1      46.499   2.653   7.844  0.00  0.00    +0.000 A 
ATOM      6  C   UNL     1      46.369   4.016   7.691  0.00  0.00    +0.000 A 
ATOM      7  N   UNL     1      45.462   4.765   8.362  0.00  0.00    +0.000 NA
ATOM      8  C   UNL     1      44.616   4.168   9.248  0.00  0.00    +0.000 A 
BRANCH   5   9
ATOM      9  C   UNL     1      47.484   1.824   7.108  0.00  0.00    +0.000 C 
ATOM     10  N   UNL     1      48.538   2.433   6.492  0.00  0.00    +0.000 N 
ATOM     11  O   UNL     1      47.368   0.608   7.053  0.00  0.00    +0.000 OA
ATOM     12  H   UNL     1      48.737   3.419   6.473  0.00  0.00    +0.000 HD
ATOM     13  H   UNL     1      49.179   1.821   6.000  0.00  0.00    +0.000 HD
ENDBRANCH   5   9
BRANCH   3  15
ATOM     14  C   UNL     1      44.061   2.507  12.161  0.00  0.00    +0.000 C 
ATOM     15  S   UNL     1      43.635   1.813  10.549  0.00  0.00    +0.000 S 
ENDBRANCH   3  15
ENDBRANCH   1   8
BRANCH   1  16
ATOM     16  C   UNL     1      43.900   5.925  11.045  0.00  0.00    +0.000 C 
ATOM     17  C   UNL     1      42.733   5.695  12.018  0.00  0.00    +0.000 C 
ATOM     18  C   UNL     1      42.922   7.031  11.390  0.00  0.00    +0.000 C 
BRANCH  16  19
ATOM     19  C   UNL     1      45.302   5.982  11.661  0.00  0.00    +0.000 A 
ATOM     20  C   UNL     1      46.261   6.899  11.207  0.00  0.00    +0.000 A 
ATOM     21  C   UNL     1      47.531   7.014  11.779  0.00  0.00    +0.000 A 
ATOM     22  C   UNL     1      47.859   6.249  12.887  0.00  0.00    +0.000 A 
ATOM     23  C   UNL     1      46.948   5.287  13.331  0.00  0.00    +0.000 A 
ATOM     24  C   UNL     1      45.693   5.148  12.720  0.00  0.00    +0.000 A 
BRANCH  22  25
ATOM     25  O   UNL     1      49.017   6.333  13.594  0.00  0.00    +0.000 OA
BRANCH  25  26
ATOM     26  C   UNL     1      49.013   7.016  14.843  0.00  0.00    +0.000 C 
ATOM     27  F   UNL     1      48.656   6.253  15.897  0.00  0.00    +0.000 F 
ATOM     28  F   UNL     1      50.264   7.471  15.082  0.00  0.00    +0.000 F 
ATOM     29  F   UNL     1      48.185   8.081  14.775  0.00  0.00    +0.000 F 
ENDBRANCH  25  26
ENDBRANCH  22  25
ENDBRANCH  16  19
ENDBRANCH   1  16
TORSDOF 7
ENDMDL
MODEL 5
REMARK VINA RESULT:    -6.499      3.495      4.832
REMARK INTER + INTRA:          -9.944
REMARK INTER:                  -9.354
REMARK INTRA:                  -0.589
REMARK UNBOUND:                -0.785
REMARK  Name = 
REMARK  8 active torsions:
REMARK  status: ('A' for Active; 'I' for Inactive)
REMARK    1  A    between atoms: C_1  and  S_2
REMARK    2  A    between atoms: S_2  and  C_3
REMARK    3  A    between atoms: C_5  and  C_6
REMARK    4  A    between atoms: C_11  and  N_12
REMARK    5  A    between atoms: N_12  and  C_13
REMARK    6  A    between atoms: C_13  and  C_14
REMARK    7  A    between atoms: C_17  and  O_18
REMARK    8  A    between atoms: O_18  and  C_19
REMARK                            x       y       z     vdW  Elec       q    Type
REMARK                         _______ _______ _______ _____ _____    ______ ____
ROOT
ATOM      1  N   UNL     1      48.133   6.278  13.802  0.00  0.00    +0.000 N 
ATOM      2  H   UNL     1      48.840   5.735  13.315  0.00  0.00    +0.000 HD
ENDROOT
BRANCH   1   8
ATOM      3  C   UNL     1      48.799   6.882  16.162  0.00  0.00    +0.000 A 
ATOM      4  C   UNL     1      48.868   6.374  17.474  0.00  0.00    +0.000 A 
ATOM      5  C   UNL     1      48.465   5.071  17.773  0.00  0.00    +0.000 A 
ATOM      6  C   UNL     1      47.992   4.315  16.723  0.00  0.00    +0.000 A 
ATOM      7  N   UNL     1      47.899   4.770  15.451  0.00  0.00    +0.000 NA
ATOM      8  C   UNL     1      48.289   6.042  15.159  0.00  0.00    +0.000 A 
BRANCH   5   9
ATOM      9  C   UNL     1      48.563   4.583  19.171  0.00  0.00    +0.000 C 
ATOM     10  N   UNL     1      48.360   3.259  19.429  0.00  0.00    +0.000 N 
ATOM     11  O   UNL     1      48.828   5.347  20.088  0.00  0.00    +0.000 OA
ATOM     12  H   UNL     1      48.141   2.540  18.759  0.00  0.00    +0.000 HD
ATOM     13  H   UNL     1      48.435   2.979  20.400  0.00  0.00    +0.000 HD
ENDBRANCH   5   9
BRANCH   3  15
ATOM     14  C   UNL     1      49.397   9.078  17.732  0.00  0.00    +0.000 C 
ATOM     15  S   UNL     1      49.304   8.587  15.996  0.00  0.00    +0.000 S 
ENDBRANCH   3  15
ENDBRANCH   1   8
BRANCH   1  16
ATOM     16  C   UNL     1      47.074   6.878  13.001  0.00  0.00    +0.000 C 
ATOM     17  C   UNL     1      47.532   8.125  12.229  0.00  0.00    +0.000 C 
ATOM     18  C   UNL     1      46.496   8.250  13.290  0.00  0.00    +0.000 C 
BRANCH  16  19
ATOM     19  C   UNL     1      46.209   5.876  12.230  0.00  0.00    +0.000 A 
ATOM     20  C   UNL     1      45.967   6.026  10.857  0.00  0.00    +0.000 A 
ATOM     21  C   UNL     1      45.227   5.104  10.113  0.00  0.00    +0.000 A 
ATOM     22  C   UNL     1      44.757   3.949  10.717  0.00  0.00    +0.000 A 
ATOM     23  C   UNL     1      44.933   3.794  12.094  0.00  0.00    +0.000 A 
ATOM     24  C   UNL     1      45.638   4.749  12.842  0.00  0.00    +0.000 A 
BRANCH  22  25
ATOM     25  O   UNL     1      44.111   2.931  10.088  0.00  0.00    +0.000 OA
BRANCH  25  26
ATOM     26  C   UNL     1      44.752   2.279   8.997  0.00  0.00    +0.000 C 
ATOM     27  F   UNL     1      46.091   2.165   9.122  0.00  0.00    +0.000 F 
ATOM     28  F   UNL     1      44.249   1.027   8.896  0.00  0.00    +0.000 F 
ATOM     29  F   UNL     1      44.475   2.936   7.850  0.00  0.00    +0.000 F 
ENDBRANCH  25  26
ENDBRANCH  22  25
ENDBRANCH  16  19
ENDBRANCH   1  16
TORSDOF 7
ENDMDL
MODEL 6
REMARK VINA RESULT:    -6.225      4.487      7.360
REMARK INTER + INTRA:          -9.557
REMARK INTER:                  -9.056
REMARK INTRA:                  -0.501
REMARK UNBOUND:                -0.785
REMARK  Name = 
REMARK  8 active torsions:
REMARK  status: ('A' for Active; 'I' for Inactive)
REMARK    1  A    between atoms: C_1  and  S_2
REMARK    2  A    between atoms: S_2  and  C_3
REMARK    3  A    between atoms: C_5  and  C_6
REMARK    4  A    between atoms: C_11  and  N_12
REMARK    5  A    between atoms: N_12  and  C_13
REMARK    6  A    between atoms: C_13  and  C_14
REMARK    7  A    between atoms: C_17  and  O_18
REMARK    8  A    between atoms: O_18  and  C_19
REMARK                            x       y       z     vdW  Elec       q    Type
REMARK                         _______ _______ _______ _____ _____    ______ ____
ROOT
ATOM      1  N   UNL     1      44.982   6.159  11.009  0.00  0.00    +0.000 N 
ATOM      2  H   UNL     1      43.981   6.191  11.179  0.00  0.00    +0.000 HD
ENDROOT
BRANCH   1   8
ATOM      3  C   UNL     1      44.784   3.780  10.181  0.00  0.00    +0.000 A 
ATOM      4  C   UNL     1      45.197   2.911   9.152  0.00  0.00    +0.000 A 
ATOM      5  C   UNL     1      46.032   3.348   8.121  0.00  0.00    +0.000 A 
ATOM      6  C   UNL     1      46.421   4.669   8.160  0.00  0.00    +0.000 A 
ATOM      7  N   UNL     1      46.036   5.538   9.124  0.00  0.00    +0.000 NA
ATOM      8  C   UNL     1      45.219   5.114  10.129  0.00  0.00    +0.000 A 
BRANCH   5   9
ATOM      9  C   UNL     1      46.442   2.391   7.064  0.00  0.00    +0.000 C 
ATOM     10  N   UNL     1      46.873   1.148   7.424  0.00  0.00    +0.000 N 
ATOM     11  O   UNL     1      46.392   2.698   5.882  0.00  0.00    +0.000 OA
ATOM     12  H   UNL     1      46.952   0.784   8.359  0.00  0.00    +0.000 HD
ATOM     13  H   UNL     1      47.145   0.535   6.665  0.00  0.00    +0.000 HD
ENDBRANCH   5   9
BRANCH   3  15
ATOM     14  C   UNL     1      42.681   4.486  11.832  0.00  0.00    +0.000 C 
ATOM     15  S   UNL     1      43.673   3.048  11.372  0.00  0.00    +0.000 S 
ENDBRANCH   3  15
ENDBRANCH   1   8
BRANCH   1  16
ATOM     16  C   UNL     1      45.839   6.964  11.868  0.00  0.00    +0.000 C 
ATOM     17  C   UNL     1      45.277   8.367  12.140  0.00  0.00    +0.000 C 
ATOM     18  C   UNL     1      46.552   8.213  11.389  0.00  0.00    +0.000 C 
BRANCH  16  19
ATOM     19  C   UNL     1      46.421   6.216  13.071  0.00  0.00    +0.000 A 
ATOM     20  C   UNL     1      45.854   5.018  13.531  0.00  0.00    +0.000 A 
ATOM     21  C   UNL     1      46.390   4.283  14.591  0.00  0.00    +0.000 A 
ATOM     22  C   UNL     1      47.569   4.696  15.189  0.00  0.00    +0.000 A 
ATOM     23  C   UNL     1      48.132   5.912  14.794  0.00  0.00    +0.000 A 
ATOM     24  C   UNL     1      47.559   6.666  13.758  0.00  0.00    +0.000 A 
BRANCH  22  25
ATOM     25  O   UNL     1      48.244   4.024  16.160  0.00  0.00    +0.000 OA
BRANCH  25  26
ATOM     26  C   UNL     1      47.612   3.811  17.417  0.00  0.00    +0.000 C 
ATOM     27  F   UNL     1      46.793   2.738  17.458  0.00  0.00    +0.000 F 
ATOM     28  F   UNL     1      48.573   3.620  18.349  0.00  0.00    +0.000 F 
ATOM     29  F   UNL     1      46.906   4.911  17.762  0.00  0.00    +0.000 F 
ENDBRANCH  25  26
ENDBRANCH  22  25
ENDBRANCH  16  19
ENDBRANCH   1  16
TORSDOF 7
ENDMDL
MODEL 7
REMARK VINA RESULT:    -6.100      4.381      6.237
REMARK INTER + INTRA:          -9.381
REMARK INTER:                  -8.482
REMARK INTRA:                  -0.899
REMARK UNBOUND:                -0.785
REMARK  Name = 
REMARK  8 active torsions:
REMARK  status: ('A' for Active; 'I' for Inactive)
REMARK    1  A    between atoms: C_1  and  S_2
REMARK    2  A    between atoms: S_2  and  C_3
REMARK    3  A    between atoms: C_5  and  C_6
REMARK    4  A    between atoms: C_11  and  N_12
REMARK    5  A    between atoms: N_12  and  C_13
REMARK    6  A    between atoms: C_13  and  C_14
REMARK    7  A    between atoms: C_17  and  O_18
REMARK    8  A    between atoms: O_18  and  C_19
REMARK                            x       y       z     vdW  Elec       q    Type
REMARK                         _______ _______ _______ _____ _____    ______ ____
ROOT
ATOM      1  N   UNL     1      49.397   6.993  14.611  0.00  0.00    +0.000 N 
ATOM      2  H   UNL     1      50.366   6.751  14.421  0.00  0.00    +0.000 HD
ENDROOT
BRANCH   1   8
ATOM      3  C   UNL     1      48.726   7.636  16.959  0.00  0.00    +0.000 A 
ATOM      4  C   UNL     1      48.599   7.132  18.269  0.00  0.00    +0.000 A 
ATOM      5  C   UNL     1      48.923   5.809  18.575  0.00  0.00    +0.000 A 
ATOM      6  C   UNL     1      49.362   5.024  17.532  0.00  0.00    +0.000 A 
ATOM      7  N   UNL     1      49.486   5.467  16.258  0.00  0.00    +0.000 NA
ATOM      8  C   UNL     1      49.168   6.757  15.958  0.00  0.00    +0.000 A 
BRANCH   5   9
ATOM      9  C   UNL     1      48.776   5.330  19.972  0.00  0.00    +0.000 C 
ATOM     10  N   UNL     1      48.593   3.998  20.202  0.00  0.00    +0.000 N 
ATOM     11  O   UNL     1      48.826   6.108  20.913  0.00  0.00    +0.000 OA
ATOM     12  H   UNL     1      48.540   3.268  19.511  0.00  0.00    +0.000 HD
ATOM     13  H   UNL     1      48.495   3.725  21.173  0.00  0.00    +0.000 HD
ENDBRANCH   5   9
BRANCH   3  15
ATOM     14  C   UNL     1      47.789   9.757  18.466  0.00  0.00    +0.000 C 
ATOM     15  S   UNL     1      48.207   9.333  16.761  0.00  0.00    +0.000 S 
ENDBRANCH   3  15
ENDBRANCH   1   8
BRANCH   1  16
ATOM     16  C   UNL     1      48.525   7.232  13.470  0.00  0.00    +0.000 C 
ATOM     17  C   UNL     1      49.286   7.366  12.142  0.00  0.00    +0.000 C 
ATOM     18  C   UNL     1      48.529   8.527  12.682  0.00  0.00    +0.000 C 
BRANCH  16  19
ATOM     19  C   UNL     1      47.255   6.375  13.446  0.00  0.00    +0.000 A 
ATOM     20  C   UNL     1      46.024   6.905  13.032  0.00  0.00    +0.000 A 
ATOM     21  C   UNL     1      44.858   6.141  12.948  0.00  0.00    +0.000 A 
ATOM     22  C   UNL     1      44.905   4.781  13.215  0.00  0.00    +0.000 A 
ATOM     23  C   UNL     1      46.101   4.231  13.682  0.00  0.00    +0.000 A 
ATOM     24  C   UNL     1      47.255   5.019  13.807  0.00  0.00    +0.000 A 
BRANCH  22  25
ATOM     25  O   UNL     1      43.871   3.910  13.077  0.00  0.00    +0.000 OA
BRANCH  25  26
ATOM     26  C   UNL     1      43.522   3.456  11.774  0.00  0.00    +0.000 C 
ATOM     27  F   UNL     1      43.010   2.207  11.735  0.00  0.00    +0.000 F 
ATOM     28  F   UNL     1      42.584   4.290  11.270  0.00  0.00    +0.000 F 
ATOM     29  F   UNL     1      44.606   3.508  10.970  0.00  0.00    +0.000 F 
ENDBRANCH  25  26
ENDBRANCH  22  25
ENDBRANCH  16  19
ENDBRANCH   1  16
TORSDOF 7
ENDMDL
MODEL 8
REMARK VINA RESULT:    -6.003      6.031      9.023
REMARK INTER + INTRA:          -9.244
REMARK INTER:                  -8.430
REMARK INTRA:                  -0.814
REMARK UNBOUND:                -0.785
REMARK  Name = 
REMARK  8 active torsions:
REMARK  status: ('A' for Active; 'I' for Inactive)
REMARK    1  A    between atoms: C_1  and  S_2
REMARK    2  A    between atoms: S_2  and  C_3
REMARK    3  A    between atoms: C_5  and  C_6
REMARK    4  A    between atoms: C_11  and  N_12
REMARK    5  A    between atoms: N_12  and  C_13
REMARK    6  A    between atoms: C_13  and  C_14
REMARK    7  A    between atoms: C_17  and  O_18
REMARK    8  A    between atoms: O_18  and  C_19
REMARK                            x       y       z     vdW  Elec       q    Type
REMARK                         _______ _______ _______ _____ _____    ______ ____
ROOT
ATOM      1  N   UNL     1      47.779   3.262  15.261  0.00  0.00    +0.000 N 
ATOM      2  H   UNL     1      48.282   2.498  14.819  0.00  0.00    +0.000 HD
ENDROOT
BRANCH   1   8
ATOM      3  C   UNL     1      47.302   5.361  13.940  0.00  0.00    +0.000 A 
ATOM      4  C   UNL     1      46.545   5.863  12.862  0.00  0.00    +0.000 A 
ATOM      5  C   UNL     1      45.677   5.043  12.139  0.00  0.00    +0.000 A 
ATOM      6  C   UNL     1      45.606   3.724  12.528  0.00  0.00    +0.000 A 
ATOM      7  N   UNL     1      46.325   3.201  13.549  0.00  0.00    +0.000 NA
ATOM      8  C   UNL     1      47.175   3.999  14.254  0.00  0.00    +0.000 A 
BRANCH   5   9
ATOM      9  C   UNL     1      44.898   5.622  11.016  0.00  0.00    +0.000 C 
ATOM     10  N   UNL     1      45.412   5.568   9.754  0.00  0.00    +0.000 N 
ATOM     11  O   UNL     1      43.806   6.137  11.206  0.00  0.00    +0.000 OA
ATOM     12  H   UNL     1      46.294   5.169   9.477  0.00  0.00    +0.000 HD
ATOM     13  H   UNL     1      44.842   5.981   9.024  0.00  0.00    +0.000 HD
ENDBRANCH   5   9
BRANCH   3  15
ATOM     14  C   UNL     1      49.234   7.213  13.241  0.00  0.00    +0.000 C 
ATOM     15  S   UNL     1      48.397   6.552  14.698  0.00  0.00    +0.000 S 
ENDBRANCH   3  15
ENDBRANCH   1   8
BRANCH   1  16
ATOM     16  C   UNL     1      48.034   3.511  16.673  0.00  0.00    +0.000 C 
ATOM     17  C   UNL     1      46.998   2.857  17.601  0.00  0.00    +0.000 C 
ATOM     18  C   UNL     1      47.113   4.340  17.547  0.00  0.00    +0.000 C 
BRANCH  16  19
ATOM     19  C   UNL     1      49.503   3.381  17.090  0.00  0.00    +0.000 A 
ATOM     20  C   UNL     1      50.153   2.139  17.098  0.00  0.00    +0.000 A 
ATOM     21  C   UNL     1      51.503   1.991  17.422  0.00  0.00    +0.000 A 
ATOM     22  C   UNL     1      52.275   3.111  17.684  0.00  0.00    +0.000 A 
ATOM     23  C   UNL     1      51.650   4.359  17.738  0.00  0.00    +0.000 A 
ATOM     24  C   UNL     1      50.282   4.490  17.456  0.00  0.00    +0.000 A 
BRANCH  22  25
ATOM     25  O   UNL     1      53.615   3.115  17.916  0.00  0.00    +0.000 OA
BRANCH  25  26
ATOM     26  C   UNL     1      54.101   2.615  19.157  0.00  0.00    +0.000 C 
ATOM     27  F   UNL     1      55.337   3.045  19.489  0.00  0.00    +0.000 F 
ATOM     28  F   UNL     1      53.259   3.018  20.136  0.00  0.00    +0.000 F 
ATOM     29  F   UNL     1      54.101   1.264  19.133  0.00  0.00    +0.000 F 
ENDBRANCH  25  26
ENDBRANCH  22  25
ENDBRANCH  16  19
ENDBRANCH   1  16
TORSDOF 7
ENDMDL
MODEL 9
REMARK VINA RESULT:    -5.951      4.240      5.792
REMARK INTER + INTRA:          -9.171
REMARK INTER:                  -7.980
REMARK INTRA:                  -1.192
REMARK UNBOUND:                -0.785
REMARK  Name = 
REMARK  8 active torsions:
REMARK  status: ('A' for Active; 'I' for Inactive)
REMARK    1  A    between atoms: C_1  and  S_2
REMARK    2  A    between atoms: S_2  and  C_3
REMARK    3  A    between atoms: C_5  and  C_6
REMARK    4  A    between atoms: C_11  and  N_12
REMARK    5  A    between atoms: N_12  and  C_13
REMARK    6  A    between atoms: C_13  and  C_14
REMARK    7  A    between atoms: C_17  and  O_18
REMARK    8  A    between atoms: O_18  and  C_19
REMARK                            x       y       z     vdW  Elec       q    Type
REMARK                         _______ _______ _______ _____ _____    ______ ____
ROOT
ATOM      1  N   UNL     1      49.139   7.457  14.513  0.00  0.00    +0.000 N 
ATOM      2  H   UNL     1      50.031   6.971  14.531  0.00  0.00    +0.000 HD
ENDROOT
BRANCH   1   8
ATOM      3  C   UNL     1      48.829   6.984  16.975  0.00  0.00    +0.000 A 
ATOM      4  C   UNL     1      48.430   7.575  18.190  0.00  0.00    +0.000 A 
ATOM      5  C   UNL     1      48.015   8.907  18.251  0.00  0.00    +0.000 A 
ATOM      6  C   UNL     1      48.024   9.611  17.068  0.00  0.00    +0.000 A 
ATOM      7  N   UNL     1      48.411   9.084  15.882  0.00  0.00    +0.000 NA
ATOM      8  C   UNL     1      48.819   7.785  15.821  0.00  0.00    +0.000 A 
BRANCH   5   9
ATOM      9  C   UNL     1      47.600   9.479  19.556  0.00  0.00    +0.000 C 
ATOM     10  N   UNL     1      48.417   9.330  20.638  0.00  0.00    +0.000 N 
ATOM     11  O   UNL     1      46.544  10.085  19.671  0.00  0.00    +0.000 OA
ATOM     12  H   UNL     1      49.306   8.857  20.662  0.00  0.00    +0.000 HD
ATOM     13  H   UNL     1      48.085   9.735  21.505  0.00  0.00    +0.000 HD
ENDBRANCH   5   9
BRANCH   3  15
ATOM     14  C   UNL     1      47.795   4.429  17.196  0.00  0.00    +0.000 C 
ATOM     15  S   UNL     1      49.380   5.292  17.115  0.00  0.00    +0.000 S 
ENDBRANCH   3  15
ENDBRANCH   1   8
BRANCH   1  16
ATOM     16  C   UNL     1      48.382   7.433  13.269  0.00  0.00    +0.000 C 
ATOM     17  C   UNL     1      49.273   7.412  12.018  0.00  0.00    +0.000 C 
ATOM     18  C   UNL     1      48.385   8.578  12.276  0.00  0.00    +0.000 C 
BRANCH  16  19
ATOM     19  C   UNL     1      47.182   6.480  13.270  0.00  0.00    +0.000 A 
ATOM     20  C   UNL     1      45.911   6.907  12.858  0.00  0.00    +0.000 A 
ATOM     21  C   UNL     1      44.807   6.053  12.797  0.00  0.00    +0.000 A 
ATOM     22  C   UNL     1      44.961   4.706  13.085  0.00  0.00    +0.000 A 
ATOM     23  C   UNL     1      46.199   4.258  13.550  0.00  0.00    +0.000 A 
ATOM     24  C   UNL     1      47.290   5.134  13.653  0.00  0.00    +0.000 A 
BRANCH  22  25
ATOM     25  O   UNL     1      43.996   3.755  12.971  0.00  0.00    +0.000 OA
BRANCH  25  26
ATOM     26  C   UNL     1      43.597   3.332  11.671  0.00  0.00    +0.000 C 
ATOM     27  F   UNL     1      44.603   3.254  10.775  0.00  0.00    +0.000 F 
ATOM     28  F   UNL     1      43.054   2.098  11.775  0.00  0.00    +0.000 F 
ATOM     29  F   UNL     1      42.650   4.168  11.193  0.00  0.00    +0.000 F 
ENDBRANCH  25  26
ENDBRANCH  22  25
ENDBRANCH  16  19
ENDBRANCH   1  16
TORSDOF 7
ENDMDL
