MODEL 1
REMARK VINA RESULT:    -7.812      0.000      0.000
REMARK INTER + INTRA:         -11.529
REMARK INTER:                 -10.552
REMARK INTRA:                  -0.978
REMARK UNBOUND:                -0.978
REMARK  Name = 
REMARK  6 active torsions:
REMARK  status: ('A' for Active; 'I' for Inactive)
REMARK    1  A    between atoms: C_2  and  C_20
REMARK    2  A    between atoms: N_3  and  C_4
REMARK    3  A    between atoms: C_4  and  C_5
REMARK    4  A    between atoms: C_8  and  C_9
REMARK    5  A    between atoms: C_9  and  N_10
REMARK    6  A    between atoms: C_11  and  C_13
REMARK                            x       y       z     vdW  Elec       q    Type
REMARK                         _______ _______ _______ _____ _____    ______ ____
ROOT
ATOM      1  C   UNL     1      46.639   4.749  14.404  0.00  0.00    +0.000 A 
ATOM      2  C   UNL     1      45.750   4.060  13.566  0.00  0.00    +0.000 A 
ATOM      3  C   UNL     1      45.480   4.522  12.269  0.00  0.00    +0.000 A 
ATOM      4  C   UNL     1      46.115   5.667  11.770  0.00  0.00    +0.000 A 
ATOM      5  C   UNL     1      47.012   6.348  12.605  0.00  0.00    +0.000 A 
ATOM      6  C   UNL     1      47.283   5.885  13.899  0.00  0.00    +0.000 A 
ENDROOT
BRANCH   1   7
ATOM      7  C   UNL     1      46.871   4.303  15.826  0.00  0.00    +0.000 C 
BRANCH   7  10
ATOM      8  O   UNL     1      47.811   4.757  18.382  0.00  0.00    +0.000 OA
ATOM      9  C   UNL     1      48.623   4.441  17.516  0.00  0.00    +0.000 C 
ATOM     10  N   UNL     1      48.261   4.273  16.199  0.00  0.00    +0.000 N 
ATOM     11  H   UNL     1      48.898   3.804  15.565  0.00  0.00    +0.000 HD
BRANCH   9  12
ATOM     12  C   UNL     1      50.039   4.244  17.840  0.00  0.00    +0.000 A 
ATOM     13  C   UNL     1      50.755   5.224  18.512  0.00  0.00    +0.000 A 
ATOM     14  S   UNL     1      52.373   4.784  18.839  0.00  0.00    +0.000 S 
ATOM     15  C   UNL     1      52.162   3.255  18.124  0.00  0.00    +0.000 A 
ATOM     16  N   UNL     1      53.161   2.331  18.106  0.00  0.00    +0.000 NA
ATOM     17  C   UNL     1      52.836   1.201  17.569  0.00  0.00    +0.000 A 
ATOM     18  N   UNL     1      51.610   0.917  17.029  0.00  0.00    +0.000 N 
ATOM     19  C   UNL     1      50.595   1.834  16.965  0.00  0.00    +0.000 A 
ATOM     20  O   UNL     1      49.547   1.583  16.378  0.00  0.00    +0.000 OA
ATOM     21  C   UNL     1      50.885   3.102  17.607  0.00  0.00    +0.000 A 
ATOM     22  H   UNL     1      51.430   0.028  16.587  0.00  0.00    +0.000 HD
ENDBRANCH   9  12
ENDBRANCH   7  10
ENDBRANCH   1   7
BRANCH   4  23
ATOM     23  C   UNL     1      45.862   6.152  10.364  0.00  0.00    +0.000 C 
BRANCH  23  24
ATOM     24  N   UNL     1      45.275   5.142   9.515  0.00  0.00    +0.000 N 
ATOM     25  C   UNL     1      45.921   4.730   8.363  0.00  0.00    +0.000 C 
ATOM     26  O   UNL     1      47.013   5.174   8.024  0.00  0.00    +0.000 OA
ATOM     27  H   UNL     1      44.470   4.631   9.851  0.00  0.00    +0.000 HD
BRANCH  25  28
ATOM     28  C   UNL     1      45.159   3.650   7.555  0.00  0.00    +0.000 C 
ATOM     29  C   UNL     1      46.094   2.661   6.883  0.00  0.00    +0.000 C 
ATOM     30  C   UNL     1      46.421   1.679   7.994  0.00  0.00    +0.000 C 
ATOM     31  C   UNL     1      45.197   1.692   8.897  0.00  0.00    +0.000 C 
ATOM     32  N   UNL     1      44.340   2.787   8.433  0.00  0.00    +0.000 NA
ATOM     33  H   UNL     1      44.028   3.337   9.239  0.00  0.00    +0.000 HD
ENDBRANCH  25  28
ENDBRANCH  23  24
ENDBRANCH   4  23
TORSDOF 6
ENDMDL
MODEL 2
REMARK VINA RESULT:    -7.177      2.920      3.762
REMARK INTER + INTRA:         -10.672
REMARK INTER:                  -9.216
REMARK INTRA:                  -1.455
REMARK UNBOUND:                -0.978
REMARK  Name = 
REMARK  6 active torsions:
REMARK  status: ('A' for Active; 'I' for Inactive)
REMARK    1  A    between atoms: C_2  and  C_20
REMARK    2  A    between atoms: N_3  and  C_4
REMARK    3  A    between atoms: C_4  and  C_5
REMARK    4  A    between atoms: C_8  and  C_9
REMARK    5  A    between atoms: C_9  and  N_10
REMARK    6  A    between atoms: C_11  and  C_13
REMARK                            x       y       z     vdW  Elec       q    Type
REMARK                         _______ _______ _______ _____ _____    ______ ____
ROOT
ATOM      1  C   UNL     1      48.750   8.073  13.165  0.00  0.00    +0.000 A 
ATOM      2  C   UNL     1      48.333   7.017  12.340  0.00  0.00    +0.000 A 
ATOM      3  C   UNL     1      47.045   7.005  11.784  0.00  0.00    +0.000 A 
ATOM      4  C   UNL     1      46.154   8.061  12.016  0.00  0.00    +0.000 A 
ATOM      5  C   UNL     1      46.577   9.122  12.830  0.00  0.00    +0.000 A 
ATOM      6  C   UNL     1      47.864   9.135  13.383  0.00  0.00    +0.000 A 
ENDROOT
BRANCH   1   7
ATOM      7  C   UNL     1      50.103   8.052  13.830  0.00  0.00    +0.000 C 
BRANCH   7  10
ATOM      8  O   UNL     1      49.507   8.449  16.496  0.00  0.00    +0.000 OA
ATOM      9  C   UNL     1      49.833   7.319  16.140  0.00  0.00    +0.000 C 
ATOM     10  N   UNL     1      50.225   7.043  14.849  0.00  0.00    +0.000 N 
ATOM     11  H   UNL     1      50.272   6.079  14.540  0.00  0.00    +0.000 HD
BRANCH   9  12
ATOM     12  C   UNL     1      49.842   6.198  17.084  0.00  0.00    +0.000 A 
ATOM     13  C   UNL     1      50.715   6.188  18.163  0.00  0.00    +0.000 A 
ATOM     14  S   UNL     1      50.536   4.821  19.173  0.00  0.00    +0.000 S 
ATOM     15  C   UNL     1      49.261   4.215  18.222  0.00  0.00    +0.000 A 
ATOM     16  N   UNL     1      48.601   3.073  18.557  0.00  0.00    +0.000 NA
ATOM     17  C   UNL     1      47.628   2.764  17.765  0.00  0.00    +0.000 A 
ATOM     18  N   UNL     1      47.268   3.481  16.654  0.00  0.00    +0.000 N 
ATOM     19  C   UNL     1      47.942   4.599  16.240  0.00  0.00    +0.000 A 
ATOM     20  O   UNL     1      47.662   5.155  15.182  0.00  0.00    +0.000 OA
ATOM     21  C   UNL     1      49.007   5.025  17.127  0.00  0.00    +0.000 A 
ATOM     22  H   UNL     1      46.523   3.166  16.052  0.00  0.00    +0.000 HD
ENDBRANCH   9  12
ENDBRANCH   7  10
ENDBRANCH   1   7
BRANCH   4  23
ATOM     23  C   UNL     1      44.780   8.078  11.392  0.00  0.00    +0.000 C 
BRANCH  23  24
ATOM     24  N   UNL     1      44.429   6.825  10.767  0.00  0.00    +0.000 N 
ATOM     25  C   UNL     1      43.703   5.872  11.460  0.00  0.00    +0.000 C 
ATOM     26  O   UNL     1      43.307   6.050  12.608  0.00  0.00    +0.000 OA
ATOM     27  H   UNL     1      44.583   6.716   9.774  0.00  0.00    +0.000 HD
BRANCH  25  28
ATOM     28  C   UNL     1      43.417   4.579  10.659  0.00  0.00    +0.000 C 
ATOM     29  C   UNL     1      44.688   3.849  10.261  0.00  0.00    +0.000 C 
ATOM     30  C   UNL     1      45.046   3.063  11.510  0.00  0.00    +0.000 C 
ATOM     31  C   UNL     1      43.713   2.789  12.192  0.00  0.00    +0.000 C 
ATOM     32  N   UNL     1      42.702   3.575  11.477  0.00  0.00    +0.000 NA
ATOM     33  H   UNL     1      42.111   4.064  12.157  0.00  0.00    +0.000 HD
ENDBRANCH  25  28
ENDBRANCH  23  24
ENDBRANCH   4  23
TORSDOF 6
ENDMDL
MODEL 3
REMARK VINA RESULT:    -7.085      5.499      7.147
REMARK INTER + INTRA:         -10.547
REMARK INTER:                  -9.561
REMARK INTRA:                  -0.986
REMARK UNBOUND:                -0.978
REMARK  Name = 
REMARK  6 active torsions:
REMARK  status: ('A' for Active; 'I' for Inactive)
REMARK    1  A    between atoms: C_2  and  C_20
REMARK    2  A    between atoms: N_3  and  C_4
REMARK    3  A    between atoms: C_4  and  C_5
REMARK    4  A    between atoms: C_8  and  C_9
REMARK    5  A    between atoms: C_9  and  N_10
REMARK    6  A    between atoms: C_11  and  C_13
REMARK                            x       y       z     vdW  Elec       q    Type
REMARK                         _______ _______ _______ _____ _____    ______ ____
ROOT
ATOM      1  C   UNL     1      49.221   7.552  12.043  0.00  0.00    +0.000 A 
ATOM      2  C   UNL     1      48.089   7.363  11.236  0.00  0.00    +0.000 A 
ATOM      3  C   UNL     1      46.963   6.682  11.724  0.00  0.00    +0.000 A 
ATOM      4  C   UNL     1      46.933   6.199  13.039  0.00  0.00    +0.000 A 
ATOM      5  C   UNL     1      48.061   6.399  13.848  0.00  0.00    +0.000 A 
ATOM      6  C   UNL     1      49.183   7.082  13.360  0.00  0.00    +0.000 A 
ENDROOT
BRANCH   1   7
ATOM      7  C   UNL     1      50.463   8.212  11.497  0.00  0.00    +0.000 C 
BRANCH   7  10
ATOM      8  O   UNL     1      52.421   8.799   9.641  0.00  0.00    +0.000 OA
ATOM      9  C   UNL     1      52.436   7.687  10.164  0.00  0.00    +0.000 C 
ATOM     10  N   UNL     1      51.456   7.276  11.039  0.00  0.00    +0.000 N 
ATOM     11  H   UNL     1      51.614   6.455  11.611  0.00  0.00    +0.000 HD
BRANCH   9  12
ATOM     12  C   UNL     1      53.498   6.722   9.864  0.00  0.00    +0.000 A 
ATOM     13  C   UNL     1      54.489   6.447  10.796  0.00  0.00    +0.000 A 
ATOM     14  S   UNL     1      55.602   5.260  10.277  0.00  0.00    +0.000 S 
ATOM     15  C   UNL     1      54.777   5.047   8.804  0.00  0.00    +0.000 A 
ATOM     16  N   UNL     1      55.176   4.123   7.889  0.00  0.00    +0.000 NA
ATOM     17  C   UNL     1      54.424   4.047   6.840  0.00  0.00    +0.000 A 
ATOM     18  N   UNL     1      53.320   4.826   6.613  0.00  0.00    +0.000 N 
ATOM     19  C   UNL     1      52.917   5.814   7.473  0.00  0.00    +0.000 A 
ATOM     20  O   UNL     1      51.990   6.565   7.188  0.00  0.00    +0.000 OA
ATOM     21  C   UNL     1      53.691   5.902   8.696  0.00  0.00    +0.000 A 
ATOM     22  H   UNL     1      52.796   4.747   5.755  0.00  0.00    +0.000 HD
ENDBRANCH   9  12
ENDBRANCH   7  10
ENDBRANCH   1   7
BRANCH   4  23
ATOM     23  C   UNL     1      45.714   5.498  13.587  0.00  0.00    +0.000 C 
BRANCH  23  24
ATOM     24  N   UNL     1      44.831   5.011  12.554  0.00  0.00    +0.000 N 
ATOM     25  C   UNL     1      44.861   3.682  12.171  0.00  0.00    +0.000 C 
ATOM     26  O   UNL     1      45.607   2.861  12.697  0.00  0.00    +0.000 OA
ATOM     27  H   UNL     1      44.087   5.613  12.226  0.00  0.00    +0.000 HD
BRANCH  25  28
ATOM     28  C   UNL     1      43.864   3.318  11.044  0.00  0.00    +0.000 C 
ATOM     29  C   UNL     1      43.751   4.410   9.995  0.00  0.00    +0.000 C 
ATOM     30  C   UNL     1      44.947   4.155   9.095  0.00  0.00    +0.000 C 
ATOM     31  C   UNL     1      45.195   2.657   9.192  0.00  0.00    +0.000 C 
ATOM     32  N   UNL     1      44.326   2.152  10.260  0.00  0.00    +0.000 NA
ATOM     33  H   UNL     1      44.868   1.536  10.874  0.00  0.00    +0.000 HD
ENDBRANCH  25  28
ENDBRANCH  23  24
ENDBRANCH   4  23
TORSDOF 6
ENDMDL
MODEL 4
REMARK VINA RESULT:    -6.892      3.650      9.020
REMARK INTER + INTRA:         -10.287
REMARK INTER:                  -9.236
REMARK INTRA:                  -1.051
REMARK UNBOUND:                -0.978
REMARK  Name = 
REMARK  6 active torsions:
REMARK  status: ('A' for Active; 'I' for Inactive)
REMARK    1  A    between atoms: C_2  and  C_20
REMARK    2  A    between atoms: N_3  and  C_4
REMARK    3  A    between atoms: C_4  and  C_5
REMARK    4  A    between atoms: C_8  and  C_9
REMARK    5  A    between atoms: C_9  and  N_10
REMARK    6  A    between atoms: C_11  and  C_13
REMARK                            x       y       z     vdW  Elec       q    Type
REMARK                         _______ _______ _______ _____ _____    ______ ____
ROOT
ATOM      1  C   UNL     1      49.115   7.720  13.142  0.00  0.00    +0.000 A 
ATOM      2  C   UNL     1      50.442   8.149  13.296  0.00  0.00    +0.000 A 
ATOM      3  C   UNL     1      51.113   7.990  14.517  0.00  0.00    +0.000 A 
ATOM      4  C   UNL     1      50.482   7.373  15.605  0.00  0.00    +0.000 A 
ATOM      5  C   UNL     1      49.160   6.934  15.447  0.00  0.00    +0.000 A 
ATOM      6  C   UNL     1      48.492   7.091  14.226  0.00  0.00    +0.000 A 
ENDROOT
BRANCH   1   7
ATOM      7  C   UNL     1      48.364   7.962  11.857  0.00  0.00    +0.000 C 
BRANCH   7  10
ATOM      8  O   UNL     1      45.610   7.854  11.697  0.00  0.00    +0.000 OA
ATOM      9  C   UNL     1      46.250   6.887  11.291  0.00  0.00    +0.000 C 
ATOM     10  N   UNL     1      47.620   6.816  11.403  0.00  0.00    +0.000 N 
ATOM     11  H   UNL     1      48.127   6.121  10.869  0.00  0.00    +0.000 HD
BRANCH   9  12
ATOM     12  C   UNL     1      45.580   5.737  10.678  0.00  0.00    +0.000 A 
ATOM     13  C   UNL     1      45.723   5.472   9.323  0.00  0.00    +0.000 A 
ATOM     14  S   UNL     1      44.906   4.061   8.813  0.00  0.00    +0.000 S 
ATOM     15  C   UNL     1      44.362   3.736  10.393  0.00  0.00    +0.000 A 
ATOM     16  N   UNL     1      43.635   2.623  10.683  0.00  0.00    +0.000 NA
ATOM     17  C   UNL     1      43.334   2.490  11.933  0.00  0.00    +0.000 A 
ATOM     18  N   UNL     1      43.676   3.379  12.917  0.00  0.00    +0.000 N 
ATOM     19  C   UNL     1      44.351   4.544  12.665  0.00  0.00    +0.000 A 
ATOM     20  O   UNL     1      44.547   5.370  13.552  0.00  0.00    +0.000 OA
ATOM     21  C   UNL     1      44.766   4.715  11.286  0.00  0.00    +0.000 A 
ATOM     22  H   UNL     1      43.377   3.239  13.870  0.00  0.00    +0.000 HD
ENDBRANCH   9  12
ENDBRANCH   7  10
ENDBRANCH   1   7
BRANCH   4  23
ATOM     23  C   UNL     1      51.205   7.161  16.913  0.00  0.00    +0.000 C 
BRANCH  23  24
ATOM     24  N   UNL     1      50.411   6.453  17.889  0.00  0.00    +0.000 N 
ATOM     25  C   UNL     1      50.407   5.070  17.923  0.00  0.00    +0.000 C 
ATOM     26  O   UNL     1      51.083   4.389  17.158  0.00  0.00    +0.000 OA
ATOM     27  H   UNL     1      49.983   6.976  18.641  0.00  0.00    +0.000 HD
BRANCH  25  28
ATOM     28  C   UNL     1      49.496   4.460  19.016  0.00  0.00    +0.000 C 
ATOM     29  C   UNL     1      48.195   5.225  19.182  0.00  0.00    +0.000 C 
ATOM     30  C   UNL     1      47.322   4.674  18.068  0.00  0.00    +0.000 C 
ATOM     31  C   UNL     1      47.814   3.250  17.856  0.00  0.00    +0.000 C 
ATOM     32  N   UNL     1      49.037   3.102  18.651  0.00  0.00    +0.000 NA
ATOM     33  H   UNL     1      49.759   2.652  18.079  0.00  0.00    +0.000 HD
ENDBRANCH  25  28
ENDBRANCH  23  24
ENDBRANCH   4  23
TORSDOF 6
ENDMDL
MODEL 5
REMARK VINA RESULT:    -6.840      1.349      2.037
REMARK INTER + INTRA:         -10.217
REMARK INTER:                  -9.271
REMARK INTRA:                  -0.946
REMARK UNBOUND:                -0.978
REMARK  Name = 
REMARK  6 active torsions:
REMARK  status: ('A' for Active; 'I' for Inactive)
REMARK    1  A    between atoms: C_2  and  C_20
REMARK    2  A    between atoms: N_3  and  C_4
REMARK    3  A    between atoms: C_4  and  C_5
REMARK    4  A    between atoms: C_8  and  C_9
REMARK    5  A    between atoms: C_9  and  N_10
REMARK    6  A    between atoms: C_11  and  C_13
REMARK                            x       y       z     vdW  Elec       q    Type
REMARK                         _______ _______ _______ _____ _____    ______ ____
ROOT
ATOM      1  C   UNL     1      46.843   4.717  14.737  0.00  0.00    +0.000 A 
ATOM      2  C   UNL     1      45.972   4.016  13.890  0.00  0.00    +0.000 A 
ATOM      3  C   UNL     1      45.663   4.505  12.612  0.00  0.00    +0.000 A 
ATOM      4  C   UNL     1      46.241   5.692  12.141  0.00  0.00    +0.000 A 
ATOM      5  C   UNL     1      47.121   6.385  12.984  0.00  0.00    +0.000 A 
ATOM      6  C   UNL     1      47.430   5.895  14.259  0.00  0.00    +0.000 A 
ENDROOT
BRANCH   1   7
ATOM      7  C   UNL     1      47.115   4.238  16.142  0.00  0.00    +0.000 C 
BRANCH   7  10
ATOM      8  O   UNL     1      48.088   2.840  18.315  0.00  0.00    +0.000 OA
ATOM      9  C   UNL     1      48.896   3.260  17.489  0.00  0.00    +0.000 C 
ATOM     10  N   UNL     1      48.513   4.035  16.417  0.00  0.00    +0.000 N 
ATOM     11  H   UNL     1      49.159   4.174  15.650  0.00  0.00    +0.000 HD
BRANCH   9  12
ATOM     12  C   UNL     1      50.327   2.972  17.615  0.00  0.00    +0.000 A 
ATOM     13  C   UNL     1      50.807   1.680  17.459  0.00  0.00    +0.000 A 
ATOM     14  S   UNL     1      52.506   1.562  17.593  0.00  0.00    +0.000 S 
ATOM     15  C   UNL     1      52.662   3.240  17.829  0.00  0.00    +0.000 A 
ATOM     16  N   UNL     1      53.880   3.832  17.963  0.00  0.00    +0.000 NA
ATOM     17  C   UNL     1      53.839   5.118  18.090  0.00  0.00    +0.000 A 
ATOM     18  N   UNL     1      52.691   5.864  18.116  0.00  0.00    +0.000 N 
ATOM     19  C   UNL     1      51.441   5.308  18.049  0.00  0.00    +0.000 A 
ATOM     20  O   UNL     1      50.432   5.993  18.184  0.00  0.00    +0.000 OA
ATOM     21  C   UNL     1      51.429   3.872  17.846  0.00  0.00    +0.000 A 
ATOM     22  H   UNL     1      52.723   6.862  18.258  0.00  0.00    +0.000 HD
ENDBRANCH   9  12
ENDBRANCH   7  10
ENDBRANCH   1   7
BRANCH   4  23
ATOM     23  C   UNL     1      45.946   6.209  10.753  0.00  0.00    +0.000 C 
BRANCH  23  24
ATOM     24  N   UNL     1      45.240   5.253   9.934  0.00  0.00    +0.000 N 
ATOM     25  C   UNL     1      45.742   4.877   8.700  0.00  0.00    +0.000 C 
ATOM     26  O   UNL     1      46.803   5.308   8.261  0.00  0.00    +0.000 OA
ATOM     27  H   UNL     1      44.461   4.748  10.335  0.00  0.00    +0.000 HD
BRANCH  25  28
ATOM     28  C   UNL     1      44.864   3.856   7.937  0.00  0.00    +0.000 C 
ATOM     29  C   UNL     1      45.665   3.022   6.953  0.00  0.00    +0.000 C 
ATOM     30  C   UNL     1      46.269   1.936   7.825  0.00  0.00    +0.000 C 
ATOM     31  C   UNL     1      45.276   1.754   8.964  0.00  0.00    +0.000 C 
ATOM     32  N   UNL     1      44.294   2.837   8.846  0.00  0.00    +0.000 NA
ATOM     33  H   UNL     1      44.147   3.262   9.767  0.00  0.00    +0.000 HD
ENDBRANCH  25  28
ENDBRANCH  23  24
ENDBRANCH   4  23
TORSDOF 6
ENDMDL
MODEL 6
REMARK VINA RESULT:    -6.817      2.683      3.705
REMARK INTER + INTRA:         -10.185
REMARK INTER:                  -9.295
REMARK INTRA:                  -0.890
REMARK UNBOUND:                -0.978
REMARK  Name = 
REMARK  6 active torsions:
REMARK  status: ('A' for Active; 'I' for Inactive)
REMARK    1  A    between atoms: C_2  and  C_20
REMARK    2  A    between atoms: N_3  and  C_4
REMARK    3  A    between atoms: C_4  and  C_5
REMARK    4  A    between atoms: C_8  and  C_9
REMARK    5  A    between atoms: C_9  and  N_10
REMARK    6  A    between atoms: C_11  and  C_13
REMARK                            x       y       z     vdW  Elec       q    Type
REMARK                         _______ _______ _______ _____ _____    ______ ____
ROOT
ATOM      1  C   UNL     1      48.000   4.151  16.594  0.00  0.00    +0.000 A 
ATOM      2  C   UNL     1      47.243   3.750  15.483  0.00  0.00    +0.000 A 
ATOM      3  C   UNL     1      47.073   4.604  14.383  0.00  0.00    +0.000 A 
ATOM      4  C   UNL     1      47.679   5.867  14.357  0.00  0.00    +0.000 A 
ATOM      5  C   UNL     1      48.445   6.261  15.463  0.00  0.00    +0.000 A 
ATOM      6  C   UNL     1      48.617   5.407  16.559  0.00  0.00    +0.000 A 
ENDROOT
BRANCH   1   7
ATOM      7  C   UNL     1      48.119   3.269  17.813  0.00  0.00    +0.000 C 
BRANCH   7  10
ATOM      8  O   UNL     1      49.762   1.744  16.201  0.00  0.00    +0.000 OA
ATOM      9  C   UNL     1      50.239   2.214  17.231  0.00  0.00    +0.000 C 
ATOM     10  N   UNL     1      49.477   2.919  18.136  0.00  0.00    +0.000 N 
ATOM     11  H   UNL     1      49.939   3.472  18.849  0.00  0.00    +0.000 HD
BRANCH   9  12
ATOM     12  C   UNL     1      51.654   2.030  17.566  0.00  0.00    +0.000 A 
ATOM     13  C   UNL     1      52.194   0.757  17.682  0.00  0.00    +0.000 A 
ATOM     14  S   UNL     1      53.868   0.755  18.027  0.00  0.00    +0.000 S 
ATOM     15  C   UNL     1      53.934   2.455  17.997  0.00  0.00    +0.000 A 
ATOM     16  N   UNL     1      55.105   3.127  18.169  0.00  0.00    +0.000 NA
ATOM     17  C   UNL     1      55.005   4.412  18.075  0.00  0.00    +0.000 A 
ATOM     18  N   UNL     1      53.836   5.089  17.845  0.00  0.00    +0.000 N 
ATOM     19  C   UNL     1      52.624   4.462  17.730  0.00  0.00    +0.000 A 
ATOM     20  O   UNL     1      51.582   5.104  17.633  0.00  0.00    +0.000 OA
ATOM     21  C   UNL     1      52.687   3.014  17.768  0.00  0.00    +0.000 A 
ATOM     22  H   UNL     1      53.816   6.097  17.822  0.00  0.00    +0.000 HD
ENDBRANCH   9  12
ENDBRANCH   7  10
ENDBRANCH   1   7
BRANCH   4  23
ATOM     23  C   UNL     1      47.535   6.780  13.163  0.00  0.00    +0.000 C 
BRANCH  23  24
ATOM     24  N   UNL     1      46.696   6.225  12.127  0.00  0.00    +0.000 N 
ATOM     25  C   UNL     1      45.411   6.699  11.933  0.00  0.00    +0.000 C 
ATOM     26  O   UNL     1      44.937   7.614  12.600  0.00  0.00    +0.000 OA
ATOM     27  H   UNL     1      47.109   5.599  11.449  0.00  0.00    +0.000 HD
BRANCH  25  28
ATOM     28  C   UNL     1      44.635   5.995  10.793  0.00  0.00    +0.000 C 
ATOM     29  C   UNL     1      44.735   4.482  10.871  0.00  0.00    +0.000 C 
ATOM     30  C   UNL     1      43.676   4.114  11.896  0.00  0.00    +0.000 C 
ATOM     31  C   UNL     1      42.622   5.204  11.775  0.00  0.00    +0.000 C 
ATOM     32  N   UNL     1      43.178   6.235  10.893  0.00  0.00    +0.000 NA
ATOM     33  H   UNL     1      43.024   7.158  11.313  0.00  0.00    +0.000 HD
ENDBRANCH  25  28
ENDBRANCH  23  24
ENDBRANCH   4  23
TORSDOF 6
ENDMDL
MODEL 7
REMARK VINA RESULT:    -6.779      3.618      9.656
REMARK INTER + INTRA:         -10.134
REMARK INTER:                  -9.203
REMARK INTRA:                  -0.931
REMARK UNBOUND:                -0.978
REMARK  Name = 
REMARK  6 active torsions:
REMARK  status: ('A' for Active; 'I' for Inactive)
REMARK    1  A    between atoms: C_2  and  C_20
REMARK    2  A    between atoms: N_3  and  C_4
REMARK    3  A    between atoms: C_4  and  C_5
REMARK    4  A    between atoms: C_8  and  C_9
REMARK    5  A    between atoms: C_9  and  N_10
REMARK    6  A    between atoms: C_11  and  C_13
REMARK                            x       y       z     vdW  Elec       q    Type
REMARK                         _______ _______ _______ _____ _____    ______ ____
ROOT
ATOM      1  C   UNL     1      48.780   3.630  17.075  0.00  0.00    +0.000 A 
ATOM      2  C   UNL     1      49.712   2.586  17.169  0.00  0.00    +0.000 A 
ATOM      3  C   UNL     1      51.020   2.827  17.618  0.00  0.00    +0.000 A 
ATOM      4  C   UNL     1      51.416   4.112  18.011  0.00  0.00    +0.000 A 
ATOM      5  C   UNL     1      50.479   5.152  17.928  0.00  0.00    +0.000 A 
ATOM      6  C   UNL     1      49.174   4.910  17.482  0.00  0.00    +0.000 A 
ENDROOT
BRANCH   1   7
ATOM      7  C   UNL     1      47.399   3.392  16.516  0.00  0.00    +0.000 C 
BRANCH   7  10
ATOM      8  O   UNL     1      47.164   3.148  13.776  0.00  0.00    +0.000 OA
ATOM      9  C   UNL     1      46.793   4.198  14.297  0.00  0.00    +0.000 C 
ATOM     10  N   UNL     1      46.945   4.442  15.643  0.00  0.00    +0.000 N 
ATOM     11  H   UNL     1      46.436   5.207  16.069  0.00  0.00    +0.000 HD
BRANCH   9  12
ATOM     12  C   UNL     1      46.181   5.265  13.500  0.00  0.00    +0.000 A 
ATOM     13  C   UNL     1      46.883   6.427  13.214  0.00  0.00    +0.000 A 
ATOM     14  S   UNL     1      46.016   7.524  12.232  0.00  0.00    +0.000 S 
ATOM     15  C   UNL     1      44.686   6.467  12.126  0.00  0.00    +0.000 A 
ATOM     16  N   UNL     1      43.591   6.770  11.377  0.00  0.00    +0.000 NA
ATOM     17  C   UNL     1      42.684   5.850  11.358  0.00  0.00    +0.000 A 
ATOM     18  N   UNL     1      42.761   4.662  12.036  0.00  0.00    +0.000 N 
ATOM     19  C   UNL     1      43.812   4.340  12.854  0.00  0.00    +0.000 A 
ATOM     20  O   UNL     1      43.800   3.317  13.531  0.00  0.00    +0.000 OA
ATOM     21  C   UNL     1      44.888   5.312  12.865  0.00  0.00    +0.000 A 
ATOM     22  H   UNL     1      42.001   4.001  12.013  0.00  0.00    +0.000 HD
ENDBRANCH   9  12
ENDBRANCH   7  10
ENDBRANCH   1   7
BRANCH   4  23
ATOM     23  C   UNL     1      52.808   4.377  18.532  0.00  0.00    +0.000 C 
BRANCH  23  24
ATOM     24  N   UNL     1      53.588   3.173  18.695  0.00  0.00    +0.000 N 
ATOM     25  C   UNL     1      54.677   2.924  17.878  0.00  0.00    +0.000 C 
ATOM     26  O   UNL     1      55.043   3.710  17.009  0.00  0.00    +0.000 OA
ATOM     27  H   UNL     1      53.425   2.593  19.507  0.00  0.00    +0.000 HD
BRANCH  25  28
ATOM     28  C   UNL     1      55.401   1.587  18.169  0.00  0.00    +0.000 C 
ATOM     29  C   UNL     1      54.506   0.582  18.869  0.00  0.00    +0.000 C 
ATOM     30  C   UNL     1      53.711  -0.032  17.730  0.00  0.00    +0.000 C 
ATOM     31  C   UNL     1      54.629   0.062  16.520  0.00  0.00    +0.000 C 
ATOM     32  N   UNL     1      55.774   0.885  16.921  0.00  0.00    +0.000 NA
ATOM     33  H   UNL     1      55.961   1.582  16.193  0.00  0.00    +0.000 HD
ENDBRANCH  25  28
ENDBRANCH  23  24
ENDBRANCH   4  23
TORSDOF 6
ENDMDL
MODEL 8
REMARK VINA RESULT:    -6.669      3.612     10.004
REMARK INTER + INTRA:          -9.986
REMARK INTER:                  -8.942
REMARK INTRA:                  -1.045
REMARK UNBOUND:                -0.978
REMARK  Name = 
REMARK  6 active torsions:
REMARK  status: ('A' for Active; 'I' for Inactive)
REMARK    1  A    between atoms: C_2  and  C_20
REMARK    2  A    between atoms: N_3  and  C_4
REMARK    3  A    between atoms: C_4  and  C_5
REMARK    4  A    between atoms: C_8  and  C_9
REMARK    5  A    between atoms: C_9  and  N_10
REMARK    6  A    between atoms: C_11  and  C_13
REMARK                            x       y       z     vdW  Elec       q    Type
REMARK                         _______ _______ _______ _____ _____    ______ ____
ROOT
ATOM      1  C   UNL     1      48.721   3.310  17.077  0.00  0.00    +0.000 A 
ATOM      2  C   UNL     1      49.447   2.117  16.948  0.00  0.00    +0.000 A 
ATOM      3  C   UNL     1      50.829   2.086  17.190  0.00  0.00    +0.000 A 
ATOM      4  C   UNL     1      51.511   3.241  17.594  0.00  0.00    +0.000 A 
ATOM      5  C   UNL     1      50.781   4.430  17.734  0.00  0.00    +0.000 A 
ATOM      6  C   UNL     1      49.401   4.460  17.495  0.00  0.00    +0.000 A 
ENDROOT
BRANCH   1   7
ATOM      7  C   UNL     1      47.251   3.366  16.739  0.00  0.00    +0.000 C 
BRANCH   7  10
ATOM      8  O   UNL     1      47.214   3.131  13.989  0.00  0.00    +0.000 OA
ATOM      9  C   UNL     1      46.850   4.196  14.482  0.00  0.00    +0.000 C 
ATOM     10  N   UNL     1      46.911   4.434  15.837  0.00  0.00    +0.000 N 
ATOM     11  H   UNL     1      46.405   5.221  16.225  0.00  0.00    +0.000 HD
BRANCH   9  12
ATOM     12  C   UNL     1      46.348   5.288  13.644  0.00  0.00    +0.000 A 
ATOM     13  C   UNL     1      47.127   6.411  13.401  0.00  0.00    +0.000 A 
ATOM     14  S   UNL     1      46.383   7.545  12.362  0.00  0.00    +0.000 S 
ATOM     15  C   UNL     1      45.010   6.558  12.172  0.00  0.00    +0.000 A 
ATOM     16  N   UNL     1      43.983   6.912  11.353  0.00  0.00    +0.000 NA
ATOM     17  C   UNL     1      43.032   6.040  11.277  0.00  0.00    +0.000 A 
ATOM     18  N   UNL     1      43.004   4.854  11.963  0.00  0.00    +0.000 N 
ATOM     19  C   UNL     1      43.982   4.484  12.848  0.00  0.00    +0.000 A 
ATOM     20  O   UNL     1      43.872   3.467  13.526  0.00  0.00    +0.000 OA
ATOM     21  C   UNL     1      45.104   5.399  12.926  0.00  0.00    +0.000 A 
ATOM     22  H   UNL     1      42.213   4.233  11.892  0.00  0.00    +0.000 HD
ENDBRANCH   9  12
ENDBRANCH   7  10
ENDBRANCH   1   7
BRANCH   4  23
ATOM     23  C   UNL     1      52.989   3.213  17.894  0.00  0.00    +0.000 C 
BRANCH  23  24
ATOM     24  N   UNL     1      53.578   4.530  17.955  0.00  0.00    +0.000 N 
ATOM     25  C   UNL     1      54.081   5.021  19.147  0.00  0.00    +0.000 C 
ATOM     26  O   UNL     1      54.076   4.367  20.185  0.00  0.00    +0.000 OA
ATOM     27  H   UNL     1      53.758   5.024  17.091  0.00  0.00    +0.000 HD
BRANCH  25  28
ATOM     28  C   UNL     1      54.666   6.452  19.053  0.00  0.00    +0.000 C 
ATOM     29  C   UNL     1      53.865   7.346  18.123  0.00  0.00    +0.000 C 
ATOM     30  C   UNL     1      52.714   7.815  18.996  0.00  0.00    +0.000 C 
ATOM     31  C   UNL     1      53.272   7.812  20.411  0.00  0.00    +0.000 C 
ATOM     32  N   UNL     1      54.585   7.163  20.347  0.00  0.00    +0.000 NA
ATOM     33  H   UNL     1      54.660   6.477  21.106  0.00  0.00    +0.000 HD
ENDBRANCH  25  28
ENDBRANCH  23  24
ENDBRANCH   4  23
TORSDOF 6
ENDMDL
MODEL 9
REMARK VINA RESULT:    -6.532      5.530      8.535
REMARK INTER + INTRA:          -9.801
REMARK INTER:                  -9.120
REMARK INTRA:                  -0.681
REMARK UNBOUND:                -0.978
REMARK  Name = 
REMARK  6 active torsions:
REMARK  status: ('A' for Active; 'I' for Inactive)
REMARK    1  A    between atoms: C_2  and  C_20
REMARK    2  A    between atoms: N_3  and  C_4
REMARK    3  A    between atoms: C_4  and  C_5
REMARK    4  A    between atoms: C_8  and  C_9
REMARK    5  A    between atoms: C_9  and  N_10
REMARK    6  A    between atoms: C_11  and  C_13
REMARK                            x       y       z     vdW  Elec       q    Type
REMARK                         _______ _______ _______ _____ _____    ______ ____
ROOT
ATOM      1  C   UNL     1      47.924   8.360  12.282  0.00  0.00    +0.000 A 
ATOM      2  C   UNL     1      48.406   9.609  11.861  0.00  0.00    +0.000 A 
ATOM      3  C   UNL     1      49.737   9.763  11.445  0.00  0.00    +0.000 A 
ATOM      4  C   UNL     1      50.608   8.667  11.414  0.00  0.00    +0.000 A 
ATOM      5  C   UNL     1      50.122   7.417  11.823  0.00  0.00    +0.000 A 
ATOM      6  C   UNL     1      48.792   7.263  12.235  0.00  0.00    +0.000 A 
ENDROOT
BRANCH   1   7
ATOM      7  C   UNL     1      46.518   8.206  12.806  0.00  0.00    +0.000 C 
BRANCH   7  10
ATOM      8  O   UNL     1      44.246   7.598  11.361  0.00  0.00    +0.000 OA
ATOM      9  C   UNL     1      44.889   6.669  11.844  0.00  0.00    +0.000 C 
ATOM     10  N   UNL     1      45.988   6.878  12.646  0.00  0.00    +0.000 N 
ATOM     11  H   UNL     1      46.614   6.105  12.840  0.00  0.00    +0.000 HD
BRANCH   9  12
ATOM     12  C   UNL     1      44.503   5.275  11.606  0.00  0.00    +0.000 A 
ATOM     13  C   UNL     1      43.734   4.585  12.532  0.00  0.00    +0.000 A 
ATOM     14  S   UNL     1      43.349   2.992  12.049  0.00  0.00    +0.000 S 
ATOM     15  C   UNL     1      44.168   3.182  10.569  0.00  0.00    +0.000 A 
ATOM     16  N   UNL     1      44.189   2.195   9.633  0.00  0.00    +0.000 NA
ATOM     17  C   UNL     1      44.811   2.503   8.543  0.00  0.00    +0.000 A 
ATOM     18  N   UNL     1      45.433   3.702   8.311  0.00  0.00    +0.000 N 
ATOM     19  C   UNL     1      45.494   4.701   9.246  0.00  0.00    +0.000 A 
ATOM     20  O   UNL     1      46.151   5.719   9.047  0.00  0.00    +0.000 OA
ATOM     21  C   UNL     1      44.760   4.431  10.467  0.00  0.00    +0.000 A 
ATOM     22  H   UNL     1      45.938   3.868   7.454  0.00  0.00    +0.000 HD
ENDBRANCH   9  12
ENDBRANCH   7  10
ENDBRANCH   1   7
BRANCH   4  23
ATOM     23  C   UNL     1      52.031   8.812  10.932  0.00  0.00    +0.000 C 
BRANCH  23  24
ATOM     24  N   UNL     1      52.618   7.558  10.520  0.00  0.00    +0.000 N 
ATOM     25  C   UNL     1      52.914   7.324   9.189  0.00  0.00    +0.000 C 
ATOM     26  O   UNL     1      52.722   8.162   8.313  0.00  0.00    +0.000 OA
ATOM     27  H   UNL     1      52.951   6.919  11.230  0.00  0.00    +0.000 HD
BRANCH  25  28
ATOM     28  C   UNL     1      53.526   5.930   8.906  0.00  0.00    +0.000 C 
ATOM     29  C   UNL     1      54.951   6.016   8.388  0.00  0.00    +0.000 C 
ATOM     30  C   UNL     1      55.773   6.182   9.653  0.00  0.00    +0.000 C 
ATOM     31  C   UNL     1      54.971   5.474  10.735  0.00  0.00    +0.000 C 
ATOM     32  N   UNL     1      53.672   5.135  10.145  0.00  0.00    +0.000 NA
ATOM     33  H   UNL     1      52.925   5.399  10.796  0.00  0.00    +0.000 HD
ENDBRANCH  25  28
ENDBRANCH  23  24
ENDBRANCH   4  23
TORSDOF 6
ENDMDL
