MODEL 1
REMARK VINA RESULT:    -8.353      0.000      0.000
REMARK INTER + INTRA:         -12.213
REMARK INTER:                 -11.771
REMARK INTRA:                  -0.442
REMARK UNBOUND:                -0.442
REMARK  Name = 
REMARK  7 active torsions:
REMARK  status: ('A' for Active; 'I' for Inactive)
REMARK    1  A    between atoms: C_2  and  C_3
REMARK    2  A    between atoms: C_3  and  N_4
REMARK    3  A    between atoms: C_3  and  C_17
REMARK    4  A    between atoms: C_5  and  C_7
REMARK    5  A    between atoms: C_20  and  O_21
REMARK    6  A    between atoms: O_21  and  C_22
REMARK    7  A    between atoms: C_22  and  C_23
REMARK                            x       y       z     vdW  Elec       q    Type
REMARK                         _______ _______ _______ _____ _____    ______ ____
ROOT
ATOM      1  C   UNL     1      46.754   8.087  13.048  0.00  0.00    +0.000 C 
ENDROOT
BRANCH   1   2
ATOM      2  C   UNL     1      46.092   6.937  12.303  0.00  0.00    +0.000 A 
ATOM      3  C   UNL     1      45.080   6.160  12.890  0.00  0.00    +0.000 A 
ATOM      4  C   UNL     1      44.475   5.121  12.160  0.00  0.00    +0.000 A 
ATOM      5  C   UNL     1      44.878   4.862  10.844  0.00  0.00    +0.000 A 
ATOM      6  C   UNL     1      45.890   5.625  10.278  0.00  0.00    +0.000 A 
ATOM      7  C   UNL     1      46.493   6.641  10.993  0.00  0.00    +0.000 A 
BRANCH   5   8
ATOM      8  O   UNL     1      44.319   3.859  10.085  0.00  0.00    +0.000 OA
BRANCH   8   9
ATOM      9  C   UNL     1      44.460   4.049   8.646  0.00  0.00    +0.000 C 
BRANCH   9  10
ATOM     10  C   UNL     1      45.499   3.100   8.103  0.00  0.00    +0.000 A 
ATOM     11  C   UNL     1      46.421   3.567   7.169  0.00  0.00    +0.000 A 
ATOM     12  C   UNL     1      47.358   2.681   6.651  0.00  0.00    +0.000 A 
ATOM     13  C   UNL     1      47.363   1.360   7.081  0.00  0.00    +0.000 A 
ATOM     14  C   UNL     1      46.429   0.982   8.030  0.00  0.00    +0.000 A 
ATOM     15  N   UNL     1      45.504   1.819   8.554  0.00  0.00    +0.000 NA
ENDBRANCH   9  10
ENDBRANCH   8   9
ENDBRANCH   5   8
ENDBRANCH   1   2
BRANCH   1  16
ATOM     16  N   UNL     1      47.278   7.620  14.321  0.00  0.00    +0.000 N 
ATOM     17  C   UNL     1      48.315   6.731  14.410  0.00  0.00    +0.000 C 
ATOM     18  O   UNL     1      48.830   6.240  13.409  0.00  0.00    +0.000 OA
ATOM     19  H   UNL     1      46.928   8.072  15.162  0.00  0.00    +0.000 HD
BRANCH  17  20
ATOM     20  C   UNL     1      48.770   6.357  15.758  0.00  0.00    +0.000 A 
ATOM     21  C   UNL     1      49.683   7.173  16.415  0.00  0.00    +0.000 A 
ATOM     22  S   UNL     1      50.161   6.582  17.939  0.00  0.00    +0.000 S 
ATOM     23  C   UNL     1      49.181   5.202  17.771  0.00  0.00    +0.000 A 
ATOM     24  N   UNL     1      49.168   4.237  18.729  0.00  0.00    +0.000 NA
ATOM     25  C   UNL     1      48.406   3.229  18.461  0.00  0.00    +0.000 A 
ATOM     26  N   UNL     1      47.640   3.109  17.332  0.00  0.00    +0.000 N 
ATOM     27  C   UNL     1      47.567   4.092  16.375  0.00  0.00    +0.000 A 
ATOM     28  O   UNL     1      46.780   4.014  15.436  0.00  0.00    +0.000 OA
ATOM     29  C   UNL     1      48.462   5.214  16.589  0.00  0.00    +0.000 A 
ATOM     30  H   UNL     1      47.030   2.314  17.207  0.00  0.00    +0.000 HD
ENDBRANCH  17  20
ENDBRANCH   1  16
BRANCH   1  32
ATOM     31  N   UNL     1      48.621   9.245  11.561  0.00  0.00    +0.000 NA
ATOM     32  C   UNL     1      47.807   8.712  12.173  0.00  0.00    +0.000 C 
ENDBRANCH   1  32
TORSDOF 7
ENDMDL
MODEL 2
REMARK VINA RESULT:    -8.152      2.609      3.874
REMARK INTER + INTRA:         -11.930
REMARK INTER:                 -10.762
REMARK INTRA:                  -1.168
REMARK UNBOUND:                -0.442
REMARK  Name = 
REMARK  7 active torsions:
REMARK  status: ('A' for Active; 'I' for Inactive)
REMARK    1  A    between atoms: C_2  and  C_3
REMARK    2  A    between atoms: C_3  and  N_4
REMARK    3  A    between atoms: C_3  and  C_17
REMARK    4  A    between atoms: C_5  and  C_7
REMARK    5  A    between atoms: C_20  and  O_21
REMARK    6  A    between atoms: O_21  and  C_22
REMARK    7  A    between atoms: C_22  and  C_23
REMARK                            x       y       z     vdW  Elec       q    Type
REMARK                         _______ _______ _______ _____ _____    ______ ____
ROOT
ATOM      1  C   UNL     1      47.702   4.882  15.108  0.00  0.00    +0.000 C 
ENDROOT
BRANCH   1   2
ATOM      2  C   UNL     1      46.830   4.762  13.868  0.00  0.00    +0.000 A 
ATOM      3  C   UNL     1      46.462   5.886  13.109  0.00  0.00    +0.000 A 
ATOM      4  C   UNL     1      45.675   5.731  11.954  0.00  0.00    +0.000 A 
ATOM      5  C   UNL     1      45.259   4.455  11.555  0.00  0.00    +0.000 A 
ATOM      6  C   UNL     1      45.614   3.352  12.319  0.00  0.00    +0.000 A 
ATOM      7  C   UNL     1      46.380   3.499  13.459  0.00  0.00    +0.000 A 
BRANCH   5   8
ATOM      8  O   UNL     1      44.490   4.247  10.434  0.00  0.00    +0.000 OA
BRANCH   8   9
ATOM      9  C   UNL     1      44.431   2.856   9.997  0.00  0.00    +0.000 C 
BRANCH   9  10
ATOM     10  C   UNL     1      45.361   2.647   8.828  0.00  0.00    +0.000 A 
ATOM     11  C   UNL     1      45.610   3.709   7.962  0.00  0.00    +0.000 A 
ATOM     12  C   UNL     1      46.445   3.504   6.870  0.00  0.00    +0.000 A 
ATOM     13  C   UNL     1      47.018   2.254   6.672  0.00  0.00    +0.000 A 
ATOM     14  C   UNL     1      46.740   1.258   7.592  0.00  0.00    +0.000 A 
ATOM     15  N   UNL     1      45.932   1.426   8.665  0.00  0.00    +0.000 NA
ENDBRANCH   9  10
ENDBRANCH   8   9
ENDBRANCH   5   8
ENDBRANCH   1   2
BRANCH   1  16
ATOM     16  N   UNL     1      47.791   6.273  15.522  0.00  0.00    +0.000 N 
ATOM     17  C   UNL     1      48.988   6.903  15.737  0.00  0.00    +0.000 C 
ATOM     18  O   UNL     1      50.056   6.306  15.638  0.00  0.00    +0.000 OA
ATOM     19  H   UNL     1      46.929   6.813  15.531  0.00  0.00    +0.000 HD
BRANCH  17  20
ATOM     20  C   UNL     1      48.944   8.320  16.128  0.00  0.00    +0.000 A 
ATOM     21  C   UNL     1      49.449   9.279  15.258  0.00  0.00    +0.000 A 
ATOM     22  S   UNL     1      49.384  10.866  15.871  0.00  0.00    +0.000 S 
ATOM     23  C   UNL     1      48.698  10.331  17.332  0.00  0.00    +0.000 A 
ATOM     24  N   UNL     1      48.435  11.207  18.339  0.00  0.00    +0.000 NA
ATOM     25  C   UNL     1      47.944  10.665  19.403  0.00  0.00    +0.000 A 
ATOM     26  N   UNL     1      47.675   9.329  19.545  0.00  0.00    +0.000 N 
ATOM     27  C   UNL     1      47.857   8.422  18.529  0.00  0.00    +0.000 A 
ATOM     28  O   UNL     1      47.492   7.255  18.640  0.00  0.00    +0.000 OA
ATOM     29  C   UNL     1      48.476   8.965  17.335  0.00  0.00    +0.000 A 
ATOM     30  H   UNL     1      47.248   8.977  20.390  0.00  0.00    +0.000 HD
ENDBRANCH  17  20
ENDBRANCH   1  16
BRANCH   1  32
ATOM     31  N   UNL     1      46.773   3.351  17.066  0.00  0.00    +0.000 NA
ATOM     32  C   UNL     1      47.166   3.982  16.189  0.00  0.00    +0.000 C 
ENDBRANCH   1  32
TORSDOF 7
ENDMDL
MODEL 3
REMARK VINA RESULT:    -7.996      1.354      1.556
REMARK INTER + INTRA:         -11.710
REMARK INTER:                 -10.515
REMARK INTRA:                  -1.194
REMARK UNBOUND:                -0.442
REMARK  Name = 
REMARK  7 active torsions:
REMARK  status: ('A' for Active; 'I' for Inactive)
REMARK    1  A    between atoms: C_2  and  C_3
REMARK    2  A    between atoms: C_3  and  N_4
REMARK    3  A    between atoms: C_3  and  C_17
REMARK    4  A    between atoms: C_5  and  C_7
REMARK    5  A    between atoms: C_20  and  O_21
REMARK    6  A    between atoms: O_21  and  C_22
REMARK    7  A    between atoms: C_22  and  C_23
REMARK                            x       y       z     vdW  Elec       q    Type
REMARK                         _______ _______ _______ _____ _____    ______ ____
ROOT
ATOM      1  C   UNL     1      47.341   7.503  13.470  0.00  0.00    +0.000 C 
ENDROOT
BRANCH   1   2
ATOM      2  C   UNL     1      46.552   6.462  12.692  0.00  0.00    +0.000 A 
ATOM      3  C   UNL     1      46.400   5.146  13.159  0.00  0.00    +0.000 A 
ATOM      4  C   UNL     1      45.642   4.218  12.423  0.00  0.00    +0.000 A 
ATOM      5  C   UNL     1      45.034   4.606  11.222  0.00  0.00    +0.000 A 
ATOM      6  C   UNL     1      45.202   5.903  10.760  0.00  0.00    +0.000 A 
ATOM      7  C   UNL     1      45.952   6.816  11.476  0.00  0.00    +0.000 A 
BRANCH   5   8
ATOM      8  O   UNL     1      44.281   3.739  10.464  0.00  0.00    +0.000 OA
BRANCH   8   9
ATOM      9  C   UNL     1      44.263   4.051   9.039  0.00  0.00    +0.000 C 
BRANCH   9  10
ATOM     10  C   UNL     1      45.344   3.272   8.331  0.00  0.00    +0.000 A 
ATOM     11  C   UNL     1      45.505   1.919   8.621  0.00  0.00    +0.000 A 
ATOM     12  C   UNL     1      46.521   1.213   7.987  0.00  0.00    +0.000 A 
ATOM     13  C   UNL     1      47.341   1.864   7.074  0.00  0.00    +0.000 A 
ATOM     14  C   UNL     1      47.098   3.203   6.823  0.00  0.00    +0.000 A 
ATOM     15  N   UNL     1      46.119   3.918   7.423  0.00  0.00    +0.000 NA
ENDBRANCH   9  10
ENDBRANCH   8   9
ENDBRANCH   5   8
ENDBRANCH   1   2
BRANCH   1  16
ATOM     16  N   UNL     1      48.326   6.852  14.317  0.00  0.00    +0.000 N 
ATOM     17  C   UNL     1      48.787   7.414  15.478  0.00  0.00    +0.000 C 
ATOM     18  O   UNL     1      48.423   8.528  15.842  0.00  0.00    +0.000 OA
ATOM     19  H   UNL     1      48.581   5.896  14.085  0.00  0.00    +0.000 HD
BRANCH  17  20
ATOM     20  C   UNL     1      49.765   6.641  16.260  0.00  0.00    +0.000 A 
ATOM     21  C   UNL     1      51.013   7.195  16.519  0.00  0.00    +0.000 A 
ATOM     22  S   UNL     1      52.058   6.162  17.381  0.00  0.00    +0.000 S 
ATOM     23  C   UNL     1      50.890   4.927  17.422  0.00  0.00    +0.000 A 
ATOM     24  N   UNL     1      51.171   3.722  17.985  0.00  0.00    +0.000 NA
ATOM     25  C   UNL     1      50.207   2.864  17.921  0.00  0.00    +0.000 A 
ATOM     26  N   UNL     1      48.981   3.111  17.363  0.00  0.00    +0.000 N 
ATOM     27  C   UNL     1      48.630   4.335  16.850  0.00  0.00    +0.000 A 
ATOM     28  O   UNL     1      47.485   4.566  16.469  0.00  0.00    +0.000 OA
ATOM     29  C   UNL     1      49.701   5.314  16.829  0.00  0.00    +0.000 A 
ATOM     30  H   UNL     1      48.255   2.409  17.387  0.00  0.00    +0.000 HD
ENDBRANCH  17  20
ENDBRANCH   1  16
BRANCH   1  32
ATOM     31  N   UNL     1      48.354   9.291  11.791  0.00  0.00    +0.000 NA
ATOM     32  C   UNL     1      47.951   8.492  12.512  0.00  0.00    +0.000 C 
ENDBRANCH   1  32
TORSDOF 7
ENDMDL
MODEL 4
REMARK VINA RESULT:    -7.801      1.954      2.341
REMARK INTER + INTRA:         -11.435
REMARK INTER:                 -10.433
REMARK INTRA:                  -1.002
REMARK UNBOUND:                -0.442
REMARK  Name = 
REMARK  7 active torsions:
REMARK  status: ('A' for Active; 'I' for Inactive)
REMARK    1  A    between atoms: C_2  and  C_3
REMARK    2  A    between atoms: C_3  and  N_4
REMARK    3  A    between atoms: C_3  and  C_17
REMARK    4  A    between atoms: C_5  and  C_7
REMARK    5  A    between atoms: C_20  and  O_21
REMARK    6  A    between atoms: O_21  and  C_22
REMARK    7  A    between atoms: C_22  and  C_23
REMARK                            x       y       z     vdW  Elec       q    Type
REMARK                         _______ _______ _______ _____ _____    ______ ____
ROOT
ATOM      1  C   UNL     1      47.921   7.080  13.991  0.00  0.00    +0.000 C 
ENDROOT
BRANCH   1   2
ATOM      2  C   UNL     1      46.956   6.189  13.224  0.00  0.00    +0.000 A 
ATOM      3  C   UNL     1      46.741   4.849  13.582  0.00  0.00    +0.000 A 
ATOM      4  C   UNL     1      45.821   4.065  12.863  0.00  0.00    +0.000 A 
ATOM      5  C   UNL     1      45.114   4.621  11.790  0.00  0.00    +0.000 A 
ATOM      6  C   UNL     1      45.344   5.942  11.433  0.00  0.00    +0.000 A 
ATOM      7  C   UNL     1      46.252   6.714  12.131  0.00  0.00    +0.000 A 
BRANCH   5   8
ATOM      8  O   UNL     1      44.203   3.899  11.054  0.00  0.00    +0.000 OA
BRANCH   8   9
ATOM      9  C   UNL     1      44.082   4.326   9.665  0.00  0.00    +0.000 C 
BRANCH   9  10
ATOM     10  C   UNL     1      45.102   3.606   8.818  0.00  0.00    +0.000 A 
ATOM     11  C   UNL     1      45.226   2.224   8.934  0.00  0.00    +0.000 A 
ATOM     12  C   UNL     1      46.187   1.569   8.172  0.00  0.00    +0.000 A 
ATOM     13  C   UNL     1      46.991   2.301   7.308  0.00  0.00    +0.000 A 
ATOM     14  C   UNL     1      46.788   3.669   7.232  0.00  0.00    +0.000 A 
ATOM     15  N   UNL     1      45.861   4.335   7.960  0.00  0.00    +0.000 NA
ENDBRANCH   9  10
ENDBRANCH   8   9
ENDBRANCH   5   8
ENDBRANCH   1   2
BRANCH   1  16
ATOM     16  N   UNL     1      48.455   6.364  15.138  0.00  0.00    +0.000 N 
ATOM     17  C   UNL     1      48.886   7.002  16.270  0.00  0.00    +0.000 C 
ATOM     18  O   UNL     1      48.888   8.227  16.358  0.00  0.00    +0.000 OA
ATOM     19  H   UNL     1      48.388   5.349  15.126  0.00  0.00    +0.000 HD
BRANCH  17  20
ATOM     20  C   UNL     1      49.382   6.162  17.372  0.00  0.00    +0.000 A 
ATOM     21  C   UNL     1      50.558   5.442  17.198  0.00  0.00    +0.000 A 
ATOM     22  S   UNL     1      50.973   4.471  18.534  0.00  0.00    +0.000 S 
ATOM     23  C   UNL     1      49.586   4.959  19.388  0.00  0.00    +0.000 A 
ATOM     24  N   UNL     1      49.306   4.443  20.614  0.00  0.00    +0.000 NA
ATOM     25  C   UNL     1      48.207   4.875  21.138  0.00  0.00    +0.000 A 
ATOM     26  N   UNL     1      47.373   5.791  20.554  0.00  0.00    +0.000 N 
ATOM     27  C   UNL     1      47.654   6.391  19.351  0.00  0.00    +0.000 A 
ATOM     28  O   UNL     1      46.954   7.299  18.909  0.00  0.00    +0.000 OA
ATOM     29  C   UNL     1      48.840   5.887  18.683  0.00  0.00    +0.000 A 
ATOM     30  H   UNL     1      46.551   6.120  21.039  0.00  0.00    +0.000 HD
ENDBRANCH  17  20
ENDBRANCH   1  16
BRANCH   1  32
ATOM     31  N   UNL     1      49.794   7.901  12.300  0.00  0.00    +0.000 NA
ATOM     32  C   UNL     1      48.994   7.579  13.060  0.00  0.00    +0.000 C 
ENDBRANCH   1  32
TORSDOF 7
ENDMDL
MODEL 5
REMARK VINA RESULT:    -7.794      4.361      8.487
REMARK INTER + INTRA:         -11.425
REMARK INTER:                 -10.345
REMARK INTRA:                  -1.080
REMARK UNBOUND:                -0.442
REMARK  Name = 
REMARK  7 active torsions:
REMARK  status: ('A' for Active; 'I' for Inactive)
REMARK    1  A    between atoms: C_2  and  C_3
REMARK    2  A    between atoms: C_3  and  N_4
REMARK    3  A    between atoms: C_3  and  C_17
REMARK    4  A    between atoms: C_5  and  C_7
REMARK    5  A    between atoms: C_20  and  O_21
REMARK    6  A    between atoms: O_21  and  C_22
REMARK    7  A    between atoms: C_22  and  C_23
REMARK                            x       y       z     vdW  Elec       q    Type
REMARK                         _______ _______ _______ _____ _____    ______ ____
ROOT
ATOM      1  C   UNL     1      48.822   6.188  16.969  0.00  0.00    +0.000 C 
ENDROOT
BRANCH   1   2
ATOM      2  C   UNL     1      49.527   4.855  17.172  0.00  0.00    +0.000 A 
ATOM      3  C   UNL     1      48.838   3.634  17.097  0.00  0.00    +0.000 A 
ATOM      4  C   UNL     1      49.530   2.422  17.265  0.00  0.00    +0.000 A 
ATOM      5  C   UNL     1      50.910   2.429  17.504  0.00  0.00    +0.000 A 
ATOM      6  C   UNL     1      51.580   3.641  17.592  0.00  0.00    +0.000 A 
ATOM      7  C   UNL     1      50.904   4.835  17.435  0.00  0.00    +0.000 A 
BRANCH   5   8
ATOM      8  O   UNL     1      51.635   1.272  17.675  0.00  0.00    +0.000 OA
BRANCH   8   9
ATOM      9  C   UNL     1      53.076   1.478  17.768  0.00  0.00    +0.000 C 
BRANCH   9  10
ATOM     10  C   UNL     1      53.789   0.151  17.680  0.00  0.00    +0.000 A 
ATOM     11  C   UNL     1      54.480  -0.170  16.514  0.00  0.00    +0.000 A 
ATOM     12  C   UNL     1      55.111  -1.406  16.427  0.00  0.00    +0.000 A 
ATOM     13  C   UNL     1      55.050  -2.283  17.502  0.00  0.00    +0.000 A 
ATOM     14  C   UNL     1      54.364  -1.878  18.634  0.00  0.00    +0.000 A 
ATOM     15  N   UNL     1      53.740  -0.683  18.750  0.00  0.00    +0.000 NA
ENDBRANCH   9  10
ENDBRANCH   8   9
ENDBRANCH   5   8
ENDBRANCH   1   2
BRANCH   1  16
ATOM     16  N   UNL     1      47.889   6.094  15.859  0.00  0.00    +0.000 N 
ATOM     17  C   UNL     1      48.251   6.367  14.566  0.00  0.00    +0.000 C 
ATOM     18  O   UNL     1      49.380   6.754  14.282  0.00  0.00    +0.000 OA
ATOM     19  H   UNL     1      46.973   5.697  16.052  0.00  0.00    +0.000 HD
BRANCH  17  20
ATOM     20  C   UNL     1      47.219   6.210  13.529  0.00  0.00    +0.000 A 
ATOM     21  C   UNL     1      46.780   7.332  12.836  0.00  0.00    +0.000 A 
ATOM     22  S   UNL     1      45.544   7.004  11.711  0.00  0.00    +0.000 S 
ATOM     23  C   UNL     1      45.533   5.354  12.123  0.00  0.00    +0.000 A 
ATOM     24  N   UNL     1      44.645   4.499  11.547  0.00  0.00    +0.000 NA
ATOM     25  C   UNL     1      44.724   3.282  11.973  0.00  0.00    +0.000 A 
ATOM     26  N   UNL     1      45.623   2.839  12.906  0.00  0.00    +0.000 N 
ATOM     27  C   UNL     1      46.583   3.652  13.458  0.00  0.00    +0.000 A 
ATOM     28  O   UNL     1      47.454   3.202  14.199  0.00  0.00    +0.000 OA
ATOM     29  C   UNL     1      46.492   5.047  13.071  0.00  0.00    +0.000 A 
ATOM     30  H   UNL     1      45.660   1.863  13.161  0.00  0.00    +0.000 HD
ENDBRANCH  17  20
ENDBRANCH   1  16
BRANCH   1  32
ATOM     31  N   UNL     1      47.730   6.963  19.260  0.00  0.00    +0.000 NA
ATOM     32  C   UNL     1      48.164   6.609  18.256  0.00  0.00    +0.000 C 
ENDBRANCH   1  32
TORSDOF 7
ENDMDL
MODEL 6
REMARK VINA RESULT:    -7.774      1.816      2.482
REMARK INTER + INTRA:         -11.398
REMARK INTER:                 -10.472
REMARK INTRA:                  -0.926
REMARK UNBOUND:                -0.442
REMARK  Name = 
REMARK  7 active torsions:
REMARK  status: ('A' for Active; 'I' for Inactive)
REMARK    1  A    between atoms: C_2  and  C_3
REMARK    2  A    between atoms: C_3  and  N_4
REMARK    3  A    between atoms: C_3  and  C_17
REMARK    4  A    between atoms: C_5  and  C_7
REMARK    5  A    between atoms: C_20  and  O_21
REMARK    6  A    between atoms: O_21  and  C_22
REMARK    7  A    between atoms: C_22  and  C_23
REMARK                            x       y       z     vdW  Elec       q    Type
REMARK                         _______ _______ _______ _____ _____    ______ ____
ROOT
ATOM      1  C   UNL     1      47.612   6.900  13.603  0.00  0.00    +0.000 C 
ENDROOT
BRANCH   1   2
ATOM      2  C   UNL     1      46.721   6.023  12.737  0.00  0.00    +0.000 A 
ATOM      3  C   UNL     1      46.262   6.447  11.480  0.00  0.00    +0.000 A 
ATOM      4  C   UNL     1      45.460   5.597  10.698  0.00  0.00    +0.000 A 
ATOM      5  C   UNL     1      45.120   4.324  11.170  0.00  0.00    +0.000 A 
ATOM      6  C   UNL     1      45.565   3.919  12.420  0.00  0.00    +0.000 A 
ATOM      7  C   UNL     1      46.347   4.753  13.196  0.00  0.00    +0.000 A 
BRANCH   5   8
ATOM      8  O   UNL     1      44.339   3.452  10.445  0.00  0.00    +0.000 OA
BRANCH   8   9
ATOM      9  C   UNL     1      44.298   3.735   9.015  0.00  0.00    +0.000 C 
BRANCH   9  10
ATOM     10  C   UNL     1      45.412   2.997   8.314  0.00  0.00    +0.000 A 
ATOM     11  C   UNL     1      46.228   3.690   7.423  0.00  0.00    +0.000 A 
ATOM     12  C   UNL     1      47.235   2.999   6.759  0.00  0.00    +0.000 A 
ATOM     13  C   UNL     1      47.412   1.643   7.005  0.00  0.00    +0.000 A 
ATOM     14  C   UNL     1      46.575   1.034   7.924  0.00  0.00    +0.000 A 
ATOM     15  N   UNL     1      45.586   1.679   8.587  0.00  0.00    +0.000 NA
ENDBRANCH   9  10
ENDBRANCH   8   9
ENDBRANCH   5   8
ENDBRANCH   1   2
BRANCH   1  16
ATOM     16  N   UNL     1      48.093   6.145  14.749  0.00  0.00    +0.000 N 
ATOM     17  C   UNL     1      48.615   6.747  15.862  0.00  0.00    +0.000 C 
ATOM     18  O   UNL     1      48.749   7.965  15.932  0.00  0.00    +0.000 OA
ATOM     19  H   UNL     1      47.918   5.143  14.753  0.00  0.00    +0.000 HD
BRANCH  17  20
ATOM     20  C   UNL     1      49.043   5.871  16.965  0.00  0.00    +0.000 A 
ATOM     21  C   UNL     1      48.080   5.202  17.710  0.00  0.00    +0.000 A 
ATOM     22  S   UNL     1      48.721   4.275  18.987  0.00  0.00    +0.000 S 
ATOM     23  C   UNL     1      50.309   4.750  18.606  0.00  0.00    +0.000 A 
ATOM     24  N   UNL     1      51.359   4.339  19.365  0.00  0.00    +0.000 NA
ATOM     25  C   UNL     1      52.505   4.797  18.984  0.00  0.00    +0.000 A 
ATOM     26  N   UNL     1      52.697   5.613  17.901  0.00  0.00    +0.000 N 
ATOM     27  C   UNL     1      51.675   5.992  17.065  0.00  0.00    +0.000 A 
ATOM     28  O   UNL     1      51.892   6.621  16.033  0.00  0.00    +0.000 OA
ATOM     29  C   UNL     1      50.355   5.567  17.490  0.00  0.00    +0.000 A 
ATOM     30  H   UNL     1      53.627   5.899  17.631  0.00  0.00    +0.000 HD
ENDBRANCH  17  20
ENDBRANCH   1  16
BRANCH   1  32
ATOM     31  N   UNL     1      49.546   7.865  12.063  0.00  0.00    +0.000 NA
ATOM     32  C   UNL     1      48.726   7.468  12.765  0.00  0.00    +0.000 C 
ENDBRANCH   1  32
TORSDOF 7
ENDMDL
MODEL 7
REMARK VINA RESULT:    -7.700      1.944      2.436
REMARK INTER + INTRA:         -11.293
REMARK INTER:                 -10.188
REMARK INTRA:                  -1.105
REMARK UNBOUND:                -0.442
REMARK  Name = 
REMARK  7 active torsions:
REMARK  status: ('A' for Active; 'I' for Inactive)
REMARK    1  A    between atoms: C_2  and  C_3
REMARK    2  A    between atoms: C_3  and  N_4
REMARK    3  A    between atoms: C_3  and  C_17
REMARK    4  A    between atoms: C_5  and  C_7
REMARK    5  A    between atoms: C_20  and  O_21
REMARK    6  A    between atoms: O_21  and  C_22
REMARK    7  A    between atoms: C_22  and  C_23
REMARK                            x       y       z     vdW  Elec       q    Type
REMARK                         _______ _______ _______ _____ _____    ______ ____
ROOT
ATOM      1  C   UNL     1      48.045   7.770  13.770  0.00  0.00    +0.000 C 
ENDROOT
BRANCH   1   2
ATOM      2  C   UNL     1      47.092   6.805  13.082  0.00  0.00    +0.000 A 
ATOM      3  C   UNL     1      46.504   7.102  11.842  0.00  0.00    +0.000 A 
ATOM      4  C   UNL     1      45.647   6.172  11.226  0.00  0.00    +0.000 A 
ATOM      5  C   UNL     1      45.381   4.945  11.847  0.00  0.00    +0.000 A 
ATOM      6  C   UNL     1      45.954   4.667  13.080  0.00  0.00    +0.000 A 
ATOM      7  C   UNL     1      46.791   5.579  13.693  0.00  0.00    +0.000 A 
BRANCH   5   8
ATOM      8  O   UNL     1      44.552   4.000  11.288  0.00  0.00    +0.000 OA
BRANCH   8   9
ATOM      9  C   UNL     1      44.162   4.286   9.912  0.00  0.00    +0.000 C 
BRANCH   9  10
ATOM     10  C   UNL     1      45.087   3.572   8.958  0.00  0.00    +0.000 A 
ATOM     11  C   UNL     1      45.245   2.193   9.071  0.00  0.00    +0.000 A 
ATOM     12  C   UNL     1      46.120   1.544   8.208  0.00  0.00    +0.000 A 
ATOM     13  C   UNL     1      46.807   2.279   7.250  0.00  0.00    +0.000 A 
ATOM     14  C   UNL     1      46.576   3.642   7.187  0.00  0.00    +0.000 A 
ATOM     15  N   UNL     1      45.730   4.303   8.012  0.00  0.00    +0.000 NA
ENDBRANCH   9  10
ENDBRANCH   8   9
ENDBRANCH   5   8
ENDBRANCH   1   2
BRANCH   1  16
ATOM     16  N   UNL     1      48.145   7.449  15.184  0.00  0.00    +0.000 N 
ATOM     17  C   UNL     1      48.433   8.391  16.136  0.00  0.00    +0.000 C 
ATOM     18  O   UNL     1      48.671   9.557  15.835  0.00  0.00    +0.000 OA
ATOM     19  H   UNL     1      47.871   6.512  15.470  0.00  0.00    +0.000 HD
BRANCH  17  20
ATOM     20  C   UNL     1      48.481   7.943  17.536  0.00  0.00    +0.000 A 
ATOM     21  C   UNL     1      47.930   8.751  18.524  0.00  0.00    +0.000 A 
ATOM     22  S   UNL     1      48.112   8.131  20.100  0.00  0.00    +0.000 S 
ATOM     23  C   UNL     1      48.953   6.770  19.524  0.00  0.00    +0.000 A 
ATOM     24  N   UNL     1      49.449   5.842  20.386  0.00  0.00    +0.000 NA
ATOM     25  C   UNL     1      50.093   4.876  19.820  0.00  0.00    +0.000 A 
ATOM     26  N   UNL     1      50.268   4.744  18.468  0.00  0.00    +0.000 N 
ATOM     27  C   UNL     1      49.723   5.617  17.558  0.00  0.00    +0.000 A 
ATOM     28  O   UNL     1      49.790   5.408  16.350  0.00  0.00    +0.000 OA
ATOM     29  C   UNL     1      49.052   6.763  18.144  0.00  0.00    +0.000 A 
ATOM     30  H   UNL     1      50.744   3.939  18.088  0.00  0.00    +0.000 HD
ENDBRANCH  17  20
ENDBRANCH   1  16
BRANCH   1  32
ATOM     31  N   UNL     1      50.394   7.811  12.536  0.00  0.00    +0.000 NA
ATOM     32  C   UNL     1      49.376   7.748  13.068  0.00  0.00    +0.000 C 
ENDBRANCH   1  32
TORSDOF 7
ENDMDL
MODEL 8
REMARK VINA RESULT:    -6.943      1.912      2.569
REMARK INTER + INTRA:         -10.226
REMARK INTER:                  -8.978
REMARK INTRA:                  -1.248
REMARK UNBOUND:                -0.442
REMARK  Name = 
REMARK  7 active torsions:
REMARK  status: ('A' for Active; 'I' for Inactive)
REMARK    1  A    between atoms: C_2  and  C_3
REMARK    2  A    between atoms: C_3  and  N_4
REMARK    3  A    between atoms: C_3  and  C_17
REMARK    4  A    between atoms: C_5  and  C_7
REMARK    5  A    between atoms: C_20  and  O_21
REMARK    6  A    between atoms: O_21  and  C_22
REMARK    7  A    between atoms: C_22  and  C_23
REMARK                            x       y       z     vdW  Elec       q    Type
REMARK                         _______ _______ _______ _____ _____    ______ ____
ROOT
ATOM      1  C   UNL     1      49.110   8.590  14.236  0.00  0.00    +0.000 C 
ENDROOT
BRANCH   1   2
ATOM      2  C   UNL     1      47.986   8.093  13.340  0.00  0.00    +0.000 A 
ATOM      3  C   UNL     1      46.704   8.664  13.373  0.00  0.00    +0.000 A 
ATOM      4  C   UNL     1      45.699   8.192  12.510  0.00  0.00    +0.000 A 
ATOM      5  C   UNL     1      45.976   7.154  11.612  0.00  0.00    +0.000 A 
ATOM      6  C   UNL     1      47.241   6.585  11.597  0.00  0.00    +0.000 A 
ATOM      7  C   UNL     1      48.230   7.039  12.448  0.00  0.00    +0.000 A 
BRANCH   5   8
ATOM      8  O   UNL     1      45.030   6.656  10.746  0.00  0.00    +0.000 OA
BRANCH   8   9
ATOM      9  C   UNL     1      44.604   5.293  11.044  0.00  0.00    +0.000 C 
BRANCH   9  10
ATOM     10  C   UNL     1      45.020   4.370   9.925  0.00  0.00    +0.000 A 
ATOM     11  C   UNL     1      44.756   3.008  10.036  0.00  0.00    +0.000 A 
ATOM     12  C   UNL     1      45.167   2.158   9.015  0.00  0.00    +0.000 A 
ATOM     13  C   UNL     1      45.819   2.685   7.908  0.00  0.00    +0.000 A 
ATOM     14  C   UNL     1      46.021   4.054   7.862  0.00  0.00    +0.000 A 
ATOM     15  N   UNL     1      45.633   4.906   8.838  0.00  0.00    +0.000 NA
ENDBRANCH   9  10
ENDBRANCH   8   9
ENDBRANCH   5   8
ENDBRANCH   1   2
BRANCH   1  16
ATOM     16  N   UNL     1      49.159   7.802  15.457  0.00  0.00    +0.000 N 
ATOM     17  C   UNL     1      48.532   8.191  16.611  0.00  0.00    +0.000 C 
ATOM     18  O   UNL     1      47.930   9.257  16.689  0.00  0.00    +0.000 OA
ATOM     19  H   UNL     1      49.578   6.878  15.398  0.00  0.00    +0.000 HD
BRANCH  17  20
ATOM     20  C   UNL     1      48.637   7.292  17.771  0.00  0.00    +0.000 A 
ATOM     21  C   UNL     1      48.900   7.832  19.024  0.00  0.00    +0.000 A 
ATOM     22  S   UNL     1      49.052   6.666  20.257  0.00  0.00    +0.000 S 
ATOM     23  C   UNL     1      48.792   5.394  19.159  0.00  0.00    +0.000 A 
ATOM     24  N   UNL     1      48.846   4.098  19.570  0.00  0.00    +0.000 NA
ATOM     25  C   UNL     1      48.662   3.232  18.630  0.00  0.00    +0.000 A 
ATOM     26  N   UNL     1      48.409   3.544  17.320  0.00  0.00    +0.000 N 
ATOM     27  C   UNL     1      48.274   4.837  16.877  0.00  0.00    +0.000 A 
ATOM     28  O   UNL     1      47.925   5.087  15.726  0.00  0.00    +0.000 OA
ATOM     29  C   UNL     1      48.545   5.853  17.877  0.00  0.00    +0.000 A 
ATOM     30  H   UNL     1      48.229   2.816  16.644  0.00  0.00    +0.000 HD
ENDBRANCH  17  20
ENDBRANCH   1  16
BRANCH   1  32
ATOM     31  N   UNL     1      51.436   8.558  12.960  0.00  0.00    +0.000 NA
ATOM     32  C   UNL     1      50.408   8.573  13.474  0.00  0.00    +0.000 C 
ENDBRANCH   1  32
TORSDOF 7
ENDMDL
MODEL 9
REMARK VINA RESULT:    -6.723      3.705      6.088
REMARK INTER + INTRA:          -9.916
REMARK INTER:                  -9.085
REMARK INTRA:                  -0.832
REMARK UNBOUND:                -0.442
REMARK  Name = 
REMARK  7 active torsions:
REMARK  status: ('A' for Active; 'I' for Inactive)
REMARK    1  A    between atoms: C_2  and  C_3
REMARK    2  A    between atoms: C_3  and  N_4
REMARK    3  A    between atoms: C_3  and  C_17
REMARK    4  A    between atoms: C_5  and  C_7
REMARK    5  A    between atoms: C_20  and  O_21
REMARK    6  A    between atoms: O_21  and  C_22
REMARK    7  A    between atoms: C_22  and  C_23
REMARK                            x       y       z     vdW  Elec       q    Type
REMARK                         _______ _______ _______ _____ _____    ______ ____
ROOT
ATOM      1  C   UNL     1      48.964   7.277  13.500  0.00  0.00    +0.000 C 
ENDROOT
BRANCH   1   2
ATOM      2  C   UNL     1      47.754   6.531  12.960  0.00  0.00    +0.000 A 
ATOM      3  C   UNL     1      47.081   6.951  11.801  0.00  0.00    +0.000 A 
ATOM      4  C   UNL     1      45.981   6.219  11.319  0.00  0.00    +0.000 A 
ATOM      5  C   UNL     1      45.556   5.067  11.992  0.00  0.00    +0.000 A 
ATOM      6  C   UNL     1      46.216   4.668  13.145  0.00  0.00    +0.000 A 
ATOM      7  C   UNL     1      47.293   5.387  13.627  0.00  0.00    +0.000 A 
BRANCH   5   8
ATOM      8  O   UNL     1      44.487   4.315  11.563  0.00  0.00    +0.000 OA
BRANCH   8   9
ATOM      9  C   UNL     1      44.074   4.589  10.191  0.00  0.00    +0.000 C 
BRANCH   9  10
ATOM     10  C   UNL     1      44.886   3.751   9.234  0.00  0.00    +0.000 A 
ATOM     11  C   UNL     1      44.926   2.370   9.410  0.00  0.00    +0.000 A 
ATOM     12  C   UNL     1      45.698   1.605   8.544  0.00  0.00    +0.000 A 
ATOM     13  C   UNL     1      46.401   2.229   7.521  0.00  0.00    +0.000 A 
ATOM     14  C   UNL     1      46.289   3.603   7.399  0.00  0.00    +0.000 A 
ATOM     15  N   UNL     1      45.546   4.375   8.225  0.00  0.00    +0.000 NA
ENDBRANCH   9  10
ENDBRANCH   8   9
ENDBRANCH   5   8
ENDBRANCH   1   2
BRANCH   1  16
ATOM     16  N   UNL     1      49.508   8.152  12.475  0.00  0.00    +0.000 N 
ATOM     17  C   UNL     1      50.814   8.564  12.474  0.00  0.00    +0.000 C 
ATOM     18  O   UNL     1      51.588   8.250  13.373  0.00  0.00    +0.000 OA
ATOM     19  H   UNL     1      48.914   8.359  11.676  0.00  0.00    +0.000 HD
BRANCH  17  20
ATOM     20  C   UNL     1      51.248   9.429  11.366  0.00  0.00    +0.000 A 
ATOM     21  C   UNL     1      50.617  10.652  11.174  0.00  0.00    +0.000 A 
ATOM     22  S   UNL     1      51.185  11.514   9.820  0.00  0.00    +0.000 S 
ATOM     23  C   UNL     1      52.282  10.276   9.425  0.00  0.00    +0.000 A 
ATOM     24  N   UNL     1      53.061  10.365   8.314  0.00  0.00    +0.000 NA
ATOM     25  C   UNL     1      53.826   9.344   8.114  0.00  0.00    +0.000 A 
ATOM     26  N   UNL     1      53.896   8.251   8.937  0.00  0.00    +0.000 N 
ATOM     27  C   UNL     1      53.182   8.152  10.106  0.00  0.00    +0.000 A 
ATOM     28  O   UNL     1      53.356   7.220  10.886  0.00  0.00    +0.000 OA
ATOM     29  C   UNL     1      52.250   9.240  10.341  0.00  0.00    +0.000 A 
ATOM     30  H   UNL     1      54.550   7.505   8.746  0.00  0.00    +0.000 HD
ENDBRANCH  17  20
ENDBRANCH   1  16
BRANCH   1  32
ATOM     31  N   UNL     1      48.363   8.560  15.744  0.00  0.00    +0.000 NA
ATOM     32  C   UNL     1      48.582   8.012  14.757  0.00  0.00    +0.000 C 
ENDBRANCH   1  32
TORSDOF 7
ENDMDL
