MODEL 1
REMARK VINA RESULT:    -8.434      0.000      0.000
REMARK INTER + INTRA:         -12.500
REMARK INTER:                 -11.885
REMARK INTRA:                  -0.614
REMARK UNBOUND:                -0.614
REMARK  Name = 
REMARK  9 active torsions:
REMARK  status: ('A' for Active; 'I' for Inactive)
REMARK    1  A    between atoms: C_1  and  O_2
REMARK    2  A    between atoms: O_2  and  C_3
REMARK    3  A    between atoms: C_10  and  C_11
REMARK    4  A    between atoms: N_13  and  C_14
REMARK    5  A    between atoms: C_14  and  C_15
REMARK    6  A    between atoms: C_18  and  N_19
REMARK    7  A    between atoms: N_19  and  C_20
REMARK    8  A    between atoms: C_20  and  C_21
REMARK    9  A    between atoms: C_25  and  C_26
REMARK                            x       y       z     vdW  Elec       q    Type
REMARK                         _______ _______ _______ _____ _____    ______ ____
ROOT
ATOM      1  C   UNL     1      46.189   7.899  12.928  0.00  0.00    +0.000 A 
ATOM      2  C   UNL     1      45.473   8.584  11.940  0.00  0.00    +0.000 A 
ATOM      3  C   UNL     1      44.462   7.943  11.218  0.00  0.00    +0.000 A 
ATOM      4  C   UNL     1      44.163   6.597  11.441  0.00  0.00    +0.000 A 
ATOM      5  C   UNL     1      44.807   5.949  12.502  0.00  0.00    +0.000 A 
ATOM      6  C   UNL     1      45.820   6.584  13.230  0.00  0.00    +0.000 A 
ENDROOT
BRANCH   4   7
ATOM      7  N   UNL     1      43.168   5.891  10.754  0.00  0.00    +0.000 N 
ATOM      8  H   UNL     1      42.548   6.560  10.297  0.00  0.00    +0.000 HD
BRANCH   7   9
ATOM      9  C   UNL     1      43.575   4.822   9.843  0.00  0.00    +0.000 C 
BRANCH   9  10
ATOM     10  C   UNL     1      45.033   4.406  10.126  0.00  0.00    +0.000 C 
ATOM     11  C   UNL     1      45.932   4.767   8.929  0.00  0.00    +0.000 C 
ATOM     12  C   UNL     1      45.690   3.849   7.729  0.00  0.00    +0.000 C 
ATOM     13  N   UNL     1      45.830   2.447   8.120  0.00  0.00    +0.000 N 
ATOM     14  C   UNL     1      46.694   1.512   7.572  0.00  0.00    +0.000 C 
ATOM     15  C   UNL     1      47.642   1.908   6.467  0.00  0.00    +0.000 C 
ATOM     16  O   UNL     1      46.723   0.343   7.967  0.00  0.00    +0.000 OA
ATOM     17  C   UNL     1      44.962   2.029   9.225  0.00  0.00    +0.000 C 
ATOM     18  C   UNL     1      45.199   2.910  10.449  0.00  0.00    +0.000 C 
ENDBRANCH   9  10
ENDBRANCH   7   9
ENDBRANCH   4   7
BRANCH   1  19
ATOM     19  C   UNL     1      47.325   8.578  13.643  0.00  0.00    +0.000 C 
BRANCH  19  22
ATOM     20  C   UNL     1      48.692   6.945  14.896  0.00  0.00    +0.000 C 
ATOM     21  O   UNL     1      49.352   6.654  13.901  0.00  0.00    +0.000 OA
ATOM     22  N   UNL     1      47.700   7.884  14.848  0.00  0.00    +0.000 N 
ATOM     23  H   UNL     1      47.216   8.149  15.692  0.00  0.00    +0.000 HD
BRANCH  20  31
ATOM     24  C   UNL     1      47.347   4.137  16.375  0.00  0.00    +0.000 A 
ATOM     25  N   UNL     1      47.063   3.059  17.132  0.00  0.00    +0.000 NA
ATOM     26  C   UNL     1      47.731   2.902  18.278  0.00  0.00    +0.000 A 
ATOM     27  N   UNL     1      48.657   3.713  18.783  0.00  0.00    +0.000 NA
ATOM     28  C   UNL     1      48.919   4.768  17.993  0.00  0.00    +0.000 A 
ATOM     29  S   UNL     1      50.070   5.915  18.483  0.00  0.00    +0.000 S 
ATOM     30  C   UNL     1      49.852   6.815  17.060  0.00  0.00    +0.000 A 
ATOM     31  C   UNL     1      48.917   6.271  16.186  0.00  0.00    +0.000 A 
ATOM     32  C   UNL     1      48.335   5.059  16.763  0.00  0.00    +0.000 A 
BRANCH  24  34
ATOM     33  C   UNL     1      47.212   3.505  14.130  0.00  0.00    +0.000 C 
ATOM     34  O   UNL     1      46.667   4.292  15.186  0.00  0.00    +0.000 OA
ENDBRANCH  24  34
ENDBRANCH  20  31
ENDBRANCH  19  22
ENDBRANCH   1  19
TORSDOF 7
ENDMDL
MODEL 2
REMARK VINA RESULT:    -8.017      2.284      2.953
REMARK INTER + INTRA:         -11.912
REMARK INTER:                 -10.727
REMARK INTRA:                  -1.186
REMARK UNBOUND:                -0.614
REMARK  Name = 
REMARK  9 active torsions:
REMARK  status: ('A' for Active; 'I' for Inactive)
REMARK    1  A    between atoms: C_1  and  O_2
REMARK    2  A    between atoms: O_2  and  C_3
REMARK    3  A    between atoms: C_10  and  C_11
REMARK    4  A    between atoms: N_13  and  C_14
REMARK    5  A    between atoms: C_14  and  C_15
REMARK    6  A    between atoms: C_18  and  N_19
REMARK    7  A    between atoms: N_19  and  C_20
REMARK    8  A    between atoms: C_20  and  C_21
REMARK    9  A    between atoms: C_25  and  C_26
REMARK                            x       y       z     vdW  Elec       q    Type
REMARK                         _______ _______ _______ _____ _____    ______ ____
ROOT
ATOM      1  C   UNL     1      47.564   6.458  14.148  0.00  0.00    +0.000 A 
ATOM      2  C   UNL     1      47.429   5.076  14.323  0.00  0.00    +0.000 A 
ATOM      3  C   UNL     1      46.435   4.366  13.644  0.00  0.00    +0.000 A 
ATOM      4  C   UNL     1      45.532   5.020  12.801  0.00  0.00    +0.000 A 
ATOM      5  C   UNL     1      45.741   6.381  12.548  0.00  0.00    +0.000 A 
ATOM      6  C   UNL     1      46.734   7.099  13.222  0.00  0.00    +0.000 A 
ENDROOT
BRANCH   4   7
ATOM      7  N   UNL     1      44.510   4.373  12.095  0.00  0.00    +0.000 N 
ATOM      8  H   UNL     1      44.047   5.055  11.493  0.00  0.00    +0.000 HD
BRANCH   7   9
ATOM      9  C   UNL     1      44.833   3.145  11.370  0.00  0.00    +0.000 C 
BRANCH   9  10
ATOM     10  C   UNL     1      44.114   3.124  10.007  0.00  0.00    +0.000 C 
ATOM     11  C   UNL     1      44.518   1.869   9.210  0.00  0.00    +0.000 C 
ATOM     12  C   UNL     1      45.950   1.960   8.680  0.00  0.00    +0.000 C 
ATOM     13  N   UNL     1      46.134   3.187   7.906  0.00  0.00    +0.000 N 
ATOM     14  C   UNL     1      46.552   3.286   6.589  0.00  0.00    +0.000 C 
ATOM     15  C   UNL     1      46.846   2.040   5.789  0.00  0.00    +0.000 C 
ATOM     16  O   UNL     1      46.689   4.378   6.029  0.00  0.00    +0.000 OA
ATOM     17  C   UNL     1      45.811   4.421   8.628  0.00  0.00    +0.000 C 
ATOM     18  C   UNL     1      44.376   4.374   9.147  0.00  0.00    +0.000 C 
ENDBRANCH   9  10
ENDBRANCH   7   9
ENDBRANCH   4   7
BRANCH   1  19
ATOM     19  C   UNL     1      48.589   7.221  14.942  0.00  0.00    +0.000 C 
BRANCH  19  22
ATOM     20  C   UNL     1      49.530   6.058  16.908  0.00  0.00    +0.000 C 
ATOM     21  O   UNL     1      48.665   6.509  17.656  0.00  0.00    +0.000 OA
ATOM     22  N   UNL     1      49.546   6.349  15.573  0.00  0.00    +0.000 N 
ATOM     23  H   UNL     1      50.230   5.916  14.972  0.00  0.00    +0.000 HD
BRANCH  20  31
ATOM     24  C   UNL     1      50.060   2.652  16.936  0.00  0.00    +0.000 A 
ATOM     25  N   UNL     1      50.552   1.399  17.005  0.00  0.00    +0.000 NA
ATOM     26  C   UNL     1      51.764   1.229  17.541  0.00  0.00    +0.000 A 
ATOM     27  N   UNL     1      52.557   2.171  18.042  0.00  0.00    +0.000 NA
ATOM     28  C   UNL     1      52.035   3.406  17.943  0.00  0.00    +0.000 A 
ATOM     29  S   UNL     1      52.909   4.733  18.539  0.00  0.00    +0.000 S 
ATOM     30  C   UNL     1      51.695   5.815  18.048  0.00  0.00    +0.000 A 
ATOM     31  C   UNL     1      50.614   5.203  17.422  0.00  0.00    +0.000 A 
ATOM     32  C   UNL     1      50.807   3.754  17.389  0.00  0.00    +0.000 A 
BRANCH  24  34
ATOM     33  C   UNL     1      47.763   2.824  17.333  0.00  0.00    +0.000 C 
ATOM     34  O   UNL     1      48.815   2.829  16.370  0.00  0.00    +0.000 OA
ENDBRANCH  24  34
ENDBRANCH  20  31
ENDBRANCH  19  22
ENDBRANCH   1  19
TORSDOF 7
ENDMDL
MODEL 3
REMARK VINA RESULT:    -7.700      1.592      2.233
REMARK INTER + INTRA:         -11.464
REMARK INTER:                 -10.232
REMARK INTRA:                  -1.232
REMARK UNBOUND:                -0.614
REMARK  Name = 
REMARK  9 active torsions:
REMARK  status: ('A' for Active; 'I' for Inactive)
REMARK    1  A    between atoms: C_1  and  O_2
REMARK    2  A    between atoms: O_2  and  C_3
REMARK    3  A    between atoms: C_10  and  C_11
REMARK    4  A    between atoms: N_13  and  C_14
REMARK    5  A    between atoms: C_14  and  C_15
REMARK    6  A    between atoms: C_18  and  N_19
REMARK    7  A    between atoms: N_19  and  C_20
REMARK    8  A    between atoms: C_20  and  C_21
REMARK    9  A    between atoms: C_25  and  C_26
REMARK                            x       y       z     vdW  Elec       q    Type
REMARK                         _______ _______ _______ _____ _____    ______ ____
ROOT
ATOM      1  C   UNL     1      46.922   7.260  13.203  0.00  0.00    +0.000 A 
ATOM      2  C   UNL     1      47.259   5.902  13.250  0.00  0.00    +0.000 A 
ATOM      3  C   UNL     1      46.356   4.929  12.812  0.00  0.00    +0.000 A 
ATOM      4  C   UNL     1      45.087   5.283  12.347  0.00  0.00    +0.000 A 
ATOM      5  C   UNL     1      44.798   6.645  12.202  0.00  0.00    +0.000 A 
ATOM      6  C   UNL     1      45.696   7.626  12.637  0.00  0.00    +0.000 A 
ENDROOT
BRANCH   4   7
ATOM      7  N   UNL     1      44.132   4.362  11.898  0.00  0.00    +0.000 N 
ATOM      8  H   UNL     1      43.444   4.856  11.328  0.00  0.00    +0.000 HD
BRANCH   7   9
ATOM      9  C   UNL     1      44.596   3.139  11.244  0.00  0.00    +0.000 C 
BRANCH   9  10
ATOM     10  C   UNL     1      43.994   3.028   9.829  0.00  0.00    +0.000 C 
ATOM     11  C   UNL     1      44.523   1.766   9.122  0.00  0.00    +0.000 C 
ATOM     12  C   UNL     1      45.988   1.911   8.706  0.00  0.00    +0.000 C 
ATOM     13  N   UNL     1      46.175   3.115   7.898  0.00  0.00    +0.000 N 
ATOM     14  C   UNL     1      46.695   3.184   6.615  0.00  0.00    +0.000 C 
ATOM     15  C   UNL     1      47.116   1.926   5.895  0.00  0.00    +0.000 C 
ATOM     16  O   UNL     1      46.825   4.259   6.022  0.00  0.00    +0.000 OA
ATOM     17  C   UNL     1      45.734   4.357   8.537  0.00  0.00    +0.000 C 
ATOM     18  C   UNL     1      44.265   4.256   8.941  0.00  0.00    +0.000 C 
ENDBRANCH   9  10
ENDBRANCH   7   9
ENDBRANCH   4   7
BRANCH   1  19
ATOM     19  C   UNL     1      47.873   8.291  13.748  0.00  0.00    +0.000 C 
BRANCH  19  22
ATOM     20  C   UNL     1      49.155   7.468  15.693  0.00  0.00    +0.000 C 
ATOM     21  O   UNL     1      50.026   6.976  14.978  0.00  0.00    +0.000 OA
ATOM     22  N   UNL     1      48.087   8.136  15.164  0.00  0.00    +0.000 N 
ATOM     23  H   UNL     1      47.420   8.584  15.775  0.00  0.00    +0.000 HD
BRANCH  20  31
ATOM     24  C   UNL     1      48.786   4.804  17.848  0.00  0.00    +0.000 A 
ATOM     25  N   UNL     1      48.773   3.947  18.889  0.00  0.00    +0.000 NA
ATOM     26  C   UNL     1      49.009   4.436  20.109  0.00  0.00    +0.000 A 
ATOM     27  N   UNL     1      49.246   5.705  20.430  0.00  0.00    +0.000 NA
ATOM     28  C   UNL     1      49.262   6.523  19.364  0.00  0.00    +0.000 A 
ATOM     29  S   UNL     1      49.542   8.182  19.588  0.00  0.00    +0.000 S 
ATOM     30  C   UNL     1      49.443   8.474  17.918  0.00  0.00    +0.000 A 
ATOM     31  C   UNL     1      49.205   7.334  17.159  0.00  0.00    +0.000 A 
ATOM     32  C   UNL     1      49.065   6.169  18.033  0.00  0.00    +0.000 A 
BRANCH  24  34
ATOM     33  C   UNL     1      47.177   4.026  16.342  0.00  0.00    +0.000 C 
ATOM     34  O   UNL     1      48.555   4.295  16.587  0.00  0.00    +0.000 OA
ENDBRANCH  24  34
ENDBRANCH  20  31
ENDBRANCH  19  22
ENDBRANCH   1  19
TORSDOF 7
ENDMDL
MODEL 4
REMARK VINA RESULT:    -7.322      3.317      7.762
REMARK INTER + INTRA:         -10.933
REMARK INTER:                  -9.605
REMARK INTRA:                  -1.328
REMARK UNBOUND:                -0.614
REMARK  Name = 
REMARK  9 active torsions:
REMARK  status: ('A' for Active; 'I' for Inactive)
REMARK    1  A    between atoms: C_1  and  O_2
REMARK    2  A    between atoms: O_2  and  C_3
REMARK    3  A    between atoms: C_10  and  C_11
REMARK    4  A    between atoms: N_13  and  C_14
REMARK    5  A    between atoms: C_14  and  C_15
REMARK    6  A    between atoms: C_18  and  N_19
REMARK    7  A    between atoms: N_19  and  C_20
REMARK    8  A    between atoms: C_20  and  C_21
REMARK    9  A    between atoms: C_25  and  C_26
REMARK                            x       y       z     vdW  Elec       q    Type
REMARK                         _______ _______ _______ _____ _____    ______ ____
ROOT
ATOM      1  C   UNL     1      48.550   8.018  13.382  0.00  0.00    +0.000 A 
ATOM      2  C   UNL     1      47.934   8.951  14.224  0.00  0.00    +0.000 A 
ATOM      3  C   UNL     1      48.006   8.814  15.613  0.00  0.00    +0.000 A 
ATOM      4  C   UNL     1      48.665   7.729  16.195  0.00  0.00    +0.000 A 
ATOM      5  C   UNL     1      49.369   6.860  15.352  0.00  0.00    +0.000 A 
ATOM      6  C   UNL     1      49.303   6.990  13.960  0.00  0.00    +0.000 A 
ENDROOT
BRANCH   4   7
ATOM      7  N   UNL     1      48.772   7.526  17.577  0.00  0.00    +0.000 N 
ATOM      8  H   UNL     1      47.980   6.962  17.887  0.00  0.00    +0.000 HD
BRANCH   7   9
ATOM      9  C   UNL     1      50.037   7.023  18.111  0.00  0.00    +0.000 C 
BRANCH   9  10
ATOM     10  C   UNL     1      49.790   5.773  18.981  0.00  0.00    +0.000 C 
ATOM     11  C   UNL     1      51.104   4.996  19.183  0.00  0.00    +0.000 C 
ATOM     12  C   UNL     1      51.545   4.271  17.910  0.00  0.00    +0.000 C 
ATOM     13  N   UNL     1      50.470   3.416  17.408  0.00  0.00    +0.000 N 
ATOM     14  C   UNL     1      50.530   2.050  17.181  0.00  0.00    +0.000 C 
ATOM     15  C   UNL     1      51.796   1.283  17.481  0.00  0.00    +0.000 C 
ATOM     16  O   UNL     1      49.564   1.420  16.740  0.00  0.00    +0.000 OA
ATOM     17  C   UNL     1      49.205   4.109  17.150  0.00  0.00    +0.000 C 
ATOM     18  C   UNL     1      48.722   4.822  18.411  0.00  0.00    +0.000 C 
ENDBRANCH   9  10
ENDBRANCH   7   9
ENDBRANCH   4   7
BRANCH   1  19
ATOM     19  C   UNL     1      48.401   8.135  11.889  0.00  0.00    +0.000 C 
BRANCH  19  22
ATOM     20  C   UNL     1      46.304   6.959  11.319  0.00  0.00    +0.000 C 
ATOM     21  O   UNL     1      45.609   7.867  11.770  0.00  0.00    +0.000 OA
ATOM     22  N   UNL     1      47.669   7.028  11.329  0.00  0.00    +0.000 N 
ATOM     23  H   UNL     1      48.213   6.298  10.896  0.00  0.00    +0.000 HD
BRANCH  20  31
ATOM     24  C   UNL     1      44.592   4.321  12.730  0.00  0.00    +0.000 A 
ATOM     25  N   UNL     1      43.837   3.237  12.999  0.00  0.00    +0.000 NA
ATOM     26  C   UNL     1      43.461   2.465  11.976  0.00  0.00    +0.000 A 
ATOM     27  N   UNL     1      43.766   2.632  10.692  0.00  0.00    +0.000 NA
ATOM     28  C   UNL     1      44.509   3.729  10.466  0.00  0.00    +0.000 A 
ATOM     29  S   UNL     1      44.998   4.097   8.883  0.00  0.00    +0.000 S 
ATOM     30  C   UNL     1      45.789   5.507   9.403  0.00  0.00    +0.000 A 
ATOM     31  C   UNL     1      45.698   5.733  10.772  0.00  0.00    +0.000 A 
ATOM     32  C   UNL     1      44.955   4.647  11.412  0.00  0.00    +0.000 A 
BRANCH  24  34
ATOM     33  C   UNL     1      46.282   4.840  14.260  0.00  0.00    +0.000 C 
ATOM     34  O   UNL     1      44.968   5.126  13.785  0.00  0.00    +0.000 OA
ENDBRANCH  24  34
ENDBRANCH  20  31
ENDBRANCH  19  22
ENDBRANCH   1  19
TORSDOF 7
ENDMDL
MODEL 5
REMARK VINA RESULT:    -7.301      2.315      3.178
REMARK INTER + INTRA:         -10.903
REMARK INTER:                  -9.849
REMARK INTRA:                  -1.054
REMARK UNBOUND:                -0.614
REMARK  Name = 
REMARK  9 active torsions:
REMARK  status: ('A' for Active; 'I' for Inactive)
REMARK    1  A    between atoms: C_1  and  O_2
REMARK    2  A    between atoms: O_2  and  C_3
REMARK    3  A    between atoms: C_10  and  C_11
REMARK    4  A    between atoms: N_13  and  C_14
REMARK    5  A    between atoms: C_14  and  C_15
REMARK    6  A    between atoms: C_18  and  N_19
REMARK    7  A    between atoms: N_19  and  C_20
REMARK    8  A    between atoms: C_20  and  C_21
REMARK    9  A    between atoms: C_25  and  C_26
REMARK                            x       y       z     vdW  Elec       q    Type
REMARK                         _______ _______ _______ _____ _____    ______ ____
ROOT
ATOM      1  C   UNL     1      48.271   7.843  12.927  0.00  0.00    +0.000 A 
ATOM      2  C   UNL     1      47.987   6.474  12.863  0.00  0.00    +0.000 A 
ATOM      3  C   UNL     1      46.665   6.021  12.838  0.00  0.00    +0.000 A 
ATOM      4  C   UNL     1      45.596   6.917  12.908  0.00  0.00    +0.000 A 
ATOM      5  C   UNL     1      45.886   8.287  12.863  0.00  0.00    +0.000 A 
ATOM      6  C   UNL     1      47.206   8.750  12.887  0.00  0.00    +0.000 A 
ENDROOT
BRANCH   4   7
ATOM      7  N   UNL     1      44.249   6.534  12.892  0.00  0.00    +0.000 N 
ATOM      8  H   UNL     1      43.829   6.854  12.019  0.00  0.00    +0.000 HD
BRANCH   7   9
ATOM      9  C   UNL     1      43.919   5.138  13.171  0.00  0.00    +0.000 C 
BRANCH   9  10
ATOM     10  C   UNL     1      43.108   4.537  12.005  0.00  0.00    +0.000 C 
ATOM     11  C   UNL     1      43.470   3.052  11.813  0.00  0.00    +0.000 C 
ATOM     12  C   UNL     1      44.861   2.873  11.203  0.00  0.00    +0.000 C 
ATOM     13  N   UNL     1      44.978   3.633   9.960  0.00  0.00    +0.000 N 
ATOM     14  C   UNL     1      45.304   3.138   8.708  0.00  0.00    +0.000 C 
ATOM     15  C   UNL     1      45.556   1.662   8.516  0.00  0.00    +0.000 C 
ATOM     16  O   UNL     1      45.391   3.871   7.719  0.00  0.00    +0.000 OA
ATOM     17  C   UNL     1      44.693   5.065  10.088  0.00  0.00    +0.000 C 
ATOM     18  C   UNL     1      43.297   5.279  10.670  0.00  0.00    +0.000 C 
ENDBRANCH   9  10
ENDBRANCH   7   9
ENDBRANCH   4   7
BRANCH   1  19
ATOM     19  C   UNL     1      49.696   8.314  13.031  0.00  0.00    +0.000 C 
BRANCH  19  22
ATOM     20  C   UNL     1      50.917   7.942  15.147  0.00  0.00    +0.000 C 
ATOM     21  O   UNL     1      50.653   9.069  15.559  0.00  0.00    +0.000 OA
ATOM     22  N   UNL     1      50.472   7.500  13.932  0.00  0.00    +0.000 N 
ATOM     23  H   UNL     1      50.650   6.550  13.646  0.00  0.00    +0.000 HD
BRANCH  20  31
ATOM     24  C   UNL     1      50.219   5.405  17.373  0.00  0.00    +0.000 A 
ATOM     25  N   UNL     1      50.232   4.333  18.190  0.00  0.00    +0.000 NA
ATOM     26  C   UNL     1      51.414   3.801  18.510  0.00  0.00    +0.000 A 
ATOM     27  N   UNL     1      52.614   4.224  18.122  0.00  0.00    +0.000 NA
ATOM     28  C   UNL     1      52.557   5.285  17.300  0.00  0.00    +0.000 A 
ATOM     29  S   UNL     1      53.996   5.965  16.711  0.00  0.00    +0.000 S 
ATOM     30  C   UNL     1      53.138   7.123  15.812  0.00  0.00    +0.000 A 
ATOM     31  C   UNL     1      51.757   7.019  15.930  0.00  0.00    +0.000 A 
ATOM     32  C   UNL     1      51.411   5.935  16.849  0.00  0.00    +0.000 A 
BRANCH  24  34
ATOM     33  C   UNL     1      48.157   5.023  16.340  0.00  0.00    +0.000 C 
ATOM     34  O   UNL     1      48.997   5.945  17.031  0.00  0.00    +0.000 OA
ENDBRANCH  24  34
ENDBRANCH  20  31
ENDBRANCH  19  22
ENDBRANCH   1  19
TORSDOF 7
ENDMDL
MODEL 6
REMARK VINA RESULT:    -7.001      3.428      7.996
REMARK INTER + INTRA:         -10.480
REMARK INTER:                  -9.017
REMARK INTRA:                  -1.463
REMARK UNBOUND:                -0.614
REMARK  Name = 
REMARK  9 active torsions:
REMARK  status: ('A' for Active; 'I' for Inactive)
REMARK    1  A    between atoms: C_1  and  O_2
REMARK    2  A    between atoms: O_2  and  C_3
REMARK    3  A    between atoms: C_10  and  C_11
REMARK    4  A    between atoms: N_13  and  C_14
REMARK    5  A    between atoms: C_14  and  C_15
REMARK    6  A    between atoms: C_18  and  N_19
REMARK    7  A    between atoms: N_19  and  C_20
REMARK    8  A    between atoms: C_20  and  C_21
REMARK    9  A    between atoms: C_25  and  C_26
REMARK                            x       y       z     vdW  Elec       q    Type
REMARK                         _______ _______ _______ _____ _____    ______ ____
ROOT
ATOM      1  C   UNL     1      48.373   8.787  15.407  0.00  0.00    +0.000 A 
ATOM      2  C   UNL     1      47.941   9.444  16.565  0.00  0.00    +0.000 A 
ATOM      3  C   UNL     1      48.330   8.991  17.829  0.00  0.00    +0.000 A 
ATOM      4  C   UNL     1      49.130   7.854  17.969  0.00  0.00    +0.000 A 
ATOM      5  C   UNL     1      49.645   7.267  16.807  0.00  0.00    +0.000 A 
ATOM      6  C   UNL     1      49.262   7.715  15.538  0.00  0.00    +0.000 A 
ENDROOT
BRANCH   4   7
ATOM      7  N   UNL     1      49.553   7.341  19.202  0.00  0.00    +0.000 N 
ATOM      8  H   UNL     1      48.779   6.829  19.627  0.00  0.00    +0.000 HD
BRANCH   7   9
ATOM      9  C   UNL     1      50.797   6.575  19.247  0.00  0.00    +0.000 C 
BRANCH   9  10
ATOM     10  C   UNL     1      50.541   5.175  19.841  0.00  0.00    +0.000 C 
ATOM     11  C   UNL     1      51.839   4.346  19.833  0.00  0.00    +0.000 C 
ATOM     12  C   UNL     1      52.227   3.899  18.423  0.00  0.00    +0.000 C 
ATOM     13  N   UNL     1      51.118   3.190  17.786  0.00  0.00    +0.000 N 
ATOM     14  C   UNL     1      51.136   1.902  17.274  0.00  0.00    +0.000 C 
ATOM     15  C   UNL     1      52.389   1.065  17.365  0.00  0.00    +0.000 C 
ATOM     16  O   UNL     1      50.143   1.400  16.741  0.00  0.00    +0.000 OA
ATOM     17  C   UNL     1      49.865   3.947  17.720  0.00  0.00    +0.000 C 
ATOM     18  C   UNL     1      49.434   4.387  19.117  0.00  0.00    +0.000 C 
ENDBRANCH   9  10
ENDBRANCH   7   9
ENDBRANCH   4   7
BRANCH   1  19
ATOM     19  C   UNL     1      47.885   9.240  14.057  0.00  0.00    +0.000 C 
BRANCH  19  22
ATOM     20  C   UNL     1      46.941   7.438  12.654  0.00  0.00    +0.000 C 
ATOM     21  O   UNL     1      48.043   7.147  12.194  0.00  0.00    +0.000 OA
ATOM     22  N   UNL     1      46.791   8.435  13.578  0.00  0.00    +0.000 N 
ATOM     23  H   UNL     1      45.886   8.611  13.985  0.00  0.00    +0.000 HD
BRANCH  20  31
ATOM     24  C   UNL     1      45.841   4.180  12.884  0.00  0.00    +0.000 A 
ATOM     25  N   UNL     1      45.142   3.027  12.910  0.00  0.00    +0.000 NA
ATOM     26  C   UNL     1      43.911   3.027  12.393  0.00  0.00    +0.000 A 
ATOM     27  N   UNL     1      43.281   4.052  11.826  0.00  0.00    +0.000 NA
ATOM     28  C   UNL     1      44.006   5.183  11.830  0.00  0.00    +0.000 A 
ATOM     29  S   UNL     1      43.361   6.593  11.139  0.00  0.00    +0.000 S 
ATOM     30  C   UNL     1      44.749   7.485  11.543  0.00  0.00    +0.000 A 
ATOM     31  C   UNL     1      45.720   6.746  12.209  0.00  0.00    +0.000 A 
ATOM     32  C   UNL     1      45.284   5.357  12.352  0.00  0.00    +0.000 A 
BRANCH  24  34
ATOM     33  C   UNL     1      47.105   4.442  14.832  0.00  0.00    +0.000 C 
ATOM     34  O   UNL     1      47.107   4.183  13.431  0.00  0.00    +0.000 OA
ENDBRANCH  24  34
ENDBRANCH  20  31
ENDBRANCH  19  22
ENDBRANCH   1  19
TORSDOF 7
ENDMDL
MODEL 7
REMARK VINA RESULT:    -6.811      5.516      7.581
REMARK INTER + INTRA:         -10.212
REMARK INTER:                  -8.934
REMARK INTRA:                  -1.278
REMARK UNBOUND:                -0.614
REMARK  Name = 
REMARK  9 active torsions:
REMARK  status: ('A' for Active; 'I' for Inactive)
REMARK    1  A    between atoms: C_1  and  O_2
REMARK    2  A    between atoms: O_2  and  C_3
REMARK    3  A    between atoms: C_10  and  C_11
REMARK    4  A    between atoms: N_13  and  C_14
REMARK    5  A    between atoms: C_14  and  C_15
REMARK    6  A    between atoms: C_18  and  N_19
REMARK    7  A    between atoms: N_19  and  C_20
REMARK    8  A    between atoms: C_20  and  C_21
REMARK    9  A    between atoms: C_25  and  C_26
REMARK                            x       y       z     vdW  Elec       q    Type
REMARK                         _______ _______ _______ _____ _____    ______ ____
ROOT
ATOM      1  C   UNL     1      50.415   8.501  12.582  0.00  0.00    +0.000 A 
ATOM      2  C   UNL     1      49.955   7.937  13.777  0.00  0.00    +0.000 A 
ATOM      3  C   UNL     1      48.595   7.963  14.100  0.00  0.00    +0.000 A 
ATOM      4  C   UNL     1      47.668   8.580  13.257  0.00  0.00    +0.000 A 
ATOM      5  C   UNL     1      48.119   9.046  12.016  0.00  0.00    +0.000 A 
ATOM      6  C   UNL     1      49.478   9.023  11.684  0.00  0.00    +0.000 A 
ENDROOT
BRANCH   4   7
ATOM      7  N   UNL     1      46.294   8.648  13.520  0.00  0.00    +0.000 N 
ATOM      8  H   UNL     1      45.987   9.615  13.414  0.00  0.00    +0.000 HD
BRANCH   7   9
ATOM      9  C   UNL     1      45.405   7.720  12.822  0.00  0.00    +0.000 C 
BRANCH   9  10
ATOM     10  C   UNL     1      45.989   6.293  12.855  0.00  0.00    +0.000 C 
ATOM     11  C   UNL     1      46.391   5.848  11.437  0.00  0.00    +0.000 C 
ATOM     12  C   UNL     1      45.173   5.547  10.562  0.00  0.00    +0.000 C 
ATOM     13  N   UNL     1      44.299   4.575  11.216  0.00  0.00    +0.000 N 
ATOM     14  C   UNL     1      43.891   3.349  10.714  0.00  0.00    +0.000 C 
ATOM     15  C   UNL     1      44.377   2.882   9.363  0.00  0.00    +0.000 C 
ATOM     16  O   UNL     1      43.135   2.605  11.345  0.00  0.00    +0.000 OA
ATOM     17  C   UNL     1      43.842   4.965  12.553  0.00  0.00    +0.000 C 
ATOM     18  C   UNL     1      45.036   5.247  13.462  0.00  0.00    +0.000 C 
ENDBRANCH   9  10
ENDBRANCH   7   9
ENDBRANCH   4   7
BRANCH   1  19
ATOM     19  C   UNL     1      51.889   8.534  12.282  0.00  0.00    +0.000 C 
BRANCH  19  22
ATOM     20  C   UNL     1      52.872   8.944  10.052  0.00  0.00    +0.000 C 
ATOM     21  O   UNL     1      53.327  10.034  10.395  0.00  0.00    +0.000 OA
ATOM     22  N   UNL     1      52.175   8.153  10.923  0.00  0.00    +0.000 N 
ATOM     23  H   UNL     1      51.867   7.238  10.634  0.00  0.00    +0.000 HD
BRANCH  20  31
ATOM     24  C   UNL     1      53.624   5.863   8.704  0.00  0.00    +0.000 A 
ATOM     25  N   UNL     1      53.808   4.780   7.923  0.00  0.00    +0.000 NA
ATOM     26  C   UNL     1      53.724   4.937   6.600  0.00  0.00    +0.000 A 
ATOM     27  N   UNL     1      53.490   6.068   5.941  0.00  0.00    +0.000 NA
ATOM     28  C   UNL     1      53.301   7.121   6.755  0.00  0.00    +0.000 A 
ATOM     29  S   UNL     1      52.997   8.651   6.086  0.00  0.00    +0.000 S 
ATOM     30  C   UNL     1      52.856   9.351   7.628  0.00  0.00    +0.000 A 
ATOM     31  C   UNL     1      53.028   8.451   8.674  0.00  0.00    +0.000 A 
ATOM     32  C   UNL     1      53.326   7.119   8.147  0.00  0.00    +0.000 A 
BRANCH  24  34
ATOM     33  C   UNL     1      55.022   5.844  10.576  0.00  0.00    +0.000 C 
ATOM     34  O   UNL     1      53.697   5.697  10.071  0.00  0.00    +0.000 OA
ENDBRANCH  24  34
ENDBRANCH  20  31
ENDBRANCH  19  22
ENDBRANCH   1  19
TORSDOF 7
ENDMDL
MODEL 8
REMARK VINA RESULT:    -6.733      2.861      4.310
REMARK INTER + INTRA:         -10.102
REMARK INTER:                  -8.737
REMARK INTRA:                  -1.364
REMARK UNBOUND:                -0.614
REMARK  Name = 
REMARK  9 active torsions:
REMARK  status: ('A' for Active; 'I' for Inactive)
REMARK    1  A    between atoms: C_1  and  O_2
REMARK    2  A    between atoms: O_2  and  C_3
REMARK    3  A    between atoms: C_10  and  C_11
REMARK    4  A    between atoms: N_13  and  C_14
REMARK    5  A    between atoms: C_14  and  C_15
REMARK    6  A    between atoms: C_18  and  N_19
REMARK    7  A    between atoms: N_19  and  C_20
REMARK    8  A    between atoms: C_20  and  C_21
REMARK    9  A    between atoms: C_25  and  C_26
REMARK                            x       y       z     vdW  Elec       q    Type
REMARK                         _______ _______ _______ _____ _____    ______ ____
ROOT
ATOM      1  C   UNL     1      46.781   7.279  13.181  0.00  0.00    +0.000 A 
ATOM      2  C   UNL     1      47.163   5.941  13.339  0.00  0.00    +0.000 A 
ATOM      3  C   UNL     1      46.309   4.906  12.948  0.00  0.00    +0.000 A 
ATOM      4  C   UNL     1      45.044   5.177  12.421  0.00  0.00    +0.000 A 
ATOM      5  C   UNL     1      44.713   6.514  12.167  0.00  0.00    +0.000 A 
ATOM      6  C   UNL     1      45.561   7.556  12.554  0.00  0.00    +0.000 A 
ENDROOT
BRANCH   4   7
ATOM      7  N   UNL     1      44.137   4.191  12.013  0.00  0.00    +0.000 N 
ATOM      8  H   UNL     1      43.361   4.641  11.527  0.00  0.00    +0.000 HD
BRANCH   7   9
ATOM      9  C   UNL     1      44.646   3.041  11.268  0.00  0.00    +0.000 C 
BRANCH   9  10
ATOM     10  C   UNL     1      44.016   2.994   9.861  0.00  0.00    +0.000 C 
ATOM     11  C   UNL     1      44.515   1.754   9.095  0.00  0.00    +0.000 C 
ATOM     12  C   UNL     1      45.974   1.896   8.658  0.00  0.00    +0.000 C 
ATOM     13  N   UNL     1      46.162   3.128   7.893  0.00  0.00    +0.000 N 
ATOM     14  C   UNL     1      46.660   3.241   6.605  0.00  0.00    +0.000 C 
ATOM     15  C   UNL     1      47.049   2.007   5.828  0.00  0.00    +0.000 C 
ATOM     16  O   UNL     1      46.794   4.337   6.052  0.00  0.00    +0.000 OA
ATOM     17  C   UNL     1      45.751   4.350   8.590  0.00  0.00    +0.000 C 
ATOM     18  C   UNL     1      44.288   4.252   9.017  0.00  0.00    +0.000 C 
ENDBRANCH   9  10
ENDBRANCH   7   9
ENDBRANCH   4   7
BRANCH   1  19
ATOM     19  C   UNL     1      47.677   8.381  13.677  0.00  0.00    +0.000 C 
BRANCH  19  22
ATOM     20  C   UNL     1      49.391   7.910  15.392  0.00  0.00    +0.000 C 
ATOM     21  O   UNL     1      48.677   8.333  16.298  0.00  0.00    +0.000 OA
ATOM     22  N   UNL     1      48.964   7.888  14.093  0.00  0.00    +0.000 N 
ATOM     23  H   UNL     1      49.546   7.479  13.379  0.00  0.00    +0.000 HD
BRANCH  20  31
ATOM     24  C   UNL     1      52.463   8.609  13.994  0.00  0.00    +0.000 A 
ATOM     25  N   UNL     1      53.770   8.757  13.699  0.00  0.00    +0.000 NA
ATOM     26  C   UNL     1      54.659   8.073  14.424  0.00  0.00    +0.000 A 
ATOM     27  N   UNL     1      54.400   7.228  15.417  0.00  0.00    +0.000 NA
ATOM     28  C   UNL     1      53.088   7.117  15.687  0.00  0.00    +0.000 A 
ATOM     29  S   UNL     1      52.572   6.074  16.922  0.00  0.00    +0.000 S 
ATOM     30  C   UNL     1      50.947   6.497  16.668  0.00  0.00    +0.000 A 
ATOM     31  C   UNL     1      50.759   7.433  15.657  0.00  0.00    +0.000 A 
ATOM     32  C   UNL     1      52.043   7.780  15.048  0.00  0.00    +0.000 A 
BRANCH  24  34
ATOM     33  C   UNL     1      51.691  10.737  13.409  0.00  0.00    +0.000 C 
ATOM     34  O   UNL     1      51.546   9.327  13.253  0.00  0.00    +0.000 OA
ENDBRANCH  24  34
ENDBRANCH  20  31
ENDBRANCH  19  22
ENDBRANCH   1  19
TORSDOF 7
ENDMDL
MODEL 9
REMARK VINA RESULT:    -6.644      5.767      7.986
REMARK INTER + INTRA:          -9.977
REMARK INTER:                  -8.682
REMARK INTRA:                  -1.294
REMARK UNBOUND:                -0.614
REMARK  Name = 
REMARK  9 active torsions:
REMARK  status: ('A' for Active; 'I' for Inactive)
REMARK    1  A    between atoms: C_1  and  O_2
REMARK    2  A    between atoms: O_2  and  C_3
REMARK    3  A    between atoms: C_10  and  C_11
REMARK    4  A    between atoms: N_13  and  C_14
REMARK    5  A    between atoms: C_14  and  C_15
REMARK    6  A    between atoms: C_18  and  N_19
REMARK    7  A    between atoms: N_19  and  C_20
REMARK    8  A    between atoms: C_20  and  C_21
REMARK    9  A    between atoms: C_25  and  C_26
REMARK                            x       y       z     vdW  Elec       q    Type
REMARK                         _______ _______ _______ _____ _____    ______ ____
ROOT
ATOM      1  C   UNL     1      49.999   8.314  11.899  0.00  0.00    +0.000 A 
ATOM      2  C   UNL     1      49.775   7.071  12.502  0.00  0.00    +0.000 A 
ATOM      3  C   UNL     1      48.500   6.717  12.952  0.00  0.00    +0.000 A 
ATOM      4  C   UNL     1      47.426   7.603  12.840  0.00  0.00    +0.000 A 
ATOM      5  C   UNL     1      47.633   8.798  12.140  0.00  0.00    +0.000 A 
ATOM      6  C   UNL     1      48.906   9.161  11.686  0.00  0.00    +0.000 A 
ENDROOT
BRANCH   4   7
ATOM      7  N   UNL     1      46.125   7.317  13.272  0.00  0.00    +0.000 N 
ATOM      8  H   UNL     1      45.466   7.826  12.683  0.00  0.00    +0.000 HD
BRANCH   7   9
ATOM      9  C   UNL     1      45.737   5.916  13.433  0.00  0.00    +0.000 C 
BRANCH   9  10
ATOM     10  C   UNL     1      44.443   5.627  12.646  0.00  0.00    +0.000 C 
ATOM     11  C   UNL     1      44.192   4.109  12.572  0.00  0.00    +0.000 C 
ATOM     12  C   UNL     1      45.166   3.411  11.622  0.00  0.00    +0.000 C 
ATOM     13  N   UNL     1      45.133   4.039  10.302  0.00  0.00    +0.000 N 
ATOM     14  C   UNL     1      44.852   3.423   9.093  0.00  0.00    +0.000 C 
ATOM     15  C   UNL     1      44.507   1.954   9.049  0.00  0.00    +0.000 C 
ATOM     16  O   UNL     1      44.865   4.045   8.027  0.00  0.00    +0.000 OA
ATOM     17  C   UNL     1      45.413   5.477  10.301  0.00  0.00    +0.000 C 
ATOM     18  C   UNL     1      44.439   6.209  11.221  0.00  0.00    +0.000 C 
ENDBRANCH   9  10
ENDBRANCH   7   9
ENDBRANCH   4   7
BRANCH   1  19
ATOM     19  C   UNL     1      51.391   8.713  11.489  0.00  0.00    +0.000 C 
BRANCH  19  22
ATOM     20  C   UNL     1      52.959   7.396  10.106  0.00  0.00    +0.000 C 
ATOM     21  O   UNL     1      53.734   7.233  11.046  0.00  0.00    +0.000 OA
ATOM     22  N   UNL     1      51.791   8.093  10.252  0.00  0.00    +0.000 N 
ATOM     23  H   UNL     1      51.145   8.158   9.482  0.00  0.00    +0.000 HD
BRANCH  20  31
ATOM     24  C   UNL     1      53.110   8.834   6.977  0.00  0.00    +0.000 A 
ATOM     25  N   UNL     1      53.322   9.147   5.683  0.00  0.00    +0.000 NA
ATOM     26  C   UNL     1      53.737   8.178   4.863  0.00  0.00    +0.000 A 
ATOM     27  N   UNL     1      53.956   6.904   5.175  0.00  0.00    +0.000 NA
ATOM     28  C   UNL     1      53.744   6.637   6.474  0.00  0.00    +0.000 A 
ATOM     29  S   UNL     1      53.967   5.056   7.050  0.00  0.00    +0.000 S 
ATOM     30  C   UNL     1      53.568   5.524   8.633  0.00  0.00    +0.000 A 
ATOM     31  C   UNL     1      53.266   6.875   8.763  0.00  0.00    +0.000 A 
ATOM     32  C   UNL     1      53.341   7.534   7.459  0.00  0.00    +0.000 A 
BRANCH  24  34
ATOM     33  C   UNL     1      52.195  10.979   7.134  0.00  0.00    +0.000 C 
ATOM     34  O   UNL     1      52.695   9.838   7.827  0.00  0.00    +0.000 OA
ENDBRANCH  24  34
ENDBRANCH  20  31
ENDBRANCH  19  22
ENDBRANCH   1  19
TORSDOF 7
ENDMDL
