MODEL 1
REMARK VINA RESULT:    -8.345      0.000      0.000
REMARK INTER + INTRA:         -10.899
REMARK INTER:                 -10.296
REMARK INTRA:                  -0.603
REMARK UNBOUND:                -0.603
REMARK  Name = 
REMARK  4 active torsions:
REMARK  status: ('A' for Active; 'I' for Inactive)
REMARK    1  A    between atoms: C_2  and  C_4
REMARK    2  A    between atoms: N_8  and  C_9
REMARK    3  A    between atoms: C_9  and  C_10
REMARK    4  A    between atoms: C_13  and  C_14
REMARK                            x       y       z     vdW  Elec       q    Type
REMARK                         _______ _______ _______ _____ _____    ______ ____
ROOT
ATOM      1  C   UNL     1      46.467   2.717   7.512  0.00  0.00    +0.000 A 
ATOM      2  C   UNL     1      46.037   4.030   7.650  0.00  0.00    +0.000 A 
ATOM      3  C   UNL     1      45.193   4.370   8.709  0.00  0.00    +0.000 A 
ATOM      4  C   UNL     1      44.834   3.405   9.635  0.00  0.00    +0.000 A 
ATOM      5  N   UNL     1      43.954   3.649  10.695  0.00  0.00    +0.000 N 
ATOM      6  N   UNL     1      45.241   2.120   9.508  0.00  0.00    +0.000 NA
ATOM      7  C   UNL     1      46.027   1.792   8.444  0.00  0.00    +0.000 A 
ATOM      8  H   UNL     1      43.927   2.784  11.229  0.00  0.00    +0.000 HD
ENDROOT
BRANCH   1  10
ATOM      9  N   UNL     1      47.160   3.005   5.214  0.00  0.00    +0.000 N 
ATOM     10  C   UNL     1      47.314   2.296   6.378  0.00  0.00    +0.000 C 
ATOM     11  O   UNL     1      48.109   1.378   6.473  0.00  0.00    +0.000 OA
ATOM     12  H   UNL     1      47.761   2.756   4.440  0.00  0.00    +0.000 HD
ATOM     13  H   UNL     1      46.679   3.889   5.166  0.00  0.00    +0.000 HD
ENDBRANCH   1  10
BRANCH   5  14
ATOM     14  C   UNL     1      43.846   4.899  11.475  0.00  0.00    +0.000 C 
ATOM     15  C   UNL     1      42.729   4.857  12.517  0.00  0.00    +0.000 C 
ATOM     16  C   UNL     1      42.682   5.874  11.426  0.00  0.00    +0.000 C 
BRANCH  14  17
ATOM     17  C   UNL     1      45.193   5.483  11.862  0.00  0.00    +0.000 A 
ATOM     18  C   UNL     1      45.672   6.689  11.340  0.00  0.00    +0.000 A 
ATOM     19  C   UNL     1      46.881   7.228  11.785  0.00  0.00    +0.000 A 
ATOM     20  C   UNL     1      47.619   6.538  12.746  0.00  0.00    +0.000 A 
ATOM     21  N   UNL     1      47.195   5.346  13.250  0.00  0.00    +0.000 NA
ATOM     22  C   UNL     1      46.010   4.865  12.807  0.00  0.00    +0.000 A 
BRANCH  20  23
ATOM     23  C   UNL     1      48.922   7.124  13.270  0.00  0.00    +0.000 C 
ATOM     24  F   UNL     1      48.852   8.471  13.502  0.00  0.00    +0.000 F 
ATOM     25  F   UNL     1      49.316   6.575  14.456  0.00  0.00    +0.000 F 
ATOM     26  F   UNL     1      49.967   6.958  12.410  0.00  0.00    +0.000 F 
ENDBRANCH  20  23
ENDBRANCH  14  17
ENDBRANCH   5  14
TORSDOF 4
ENDMDL
MODEL 2
REMARK VINA RESULT:    -7.863      4.139      6.816
REMARK INTER + INTRA:         -10.305
REMARK INTER:                  -9.654
REMARK INTRA:                  -0.650
REMARK UNBOUND:                -0.603
REMARK  Name = 
REMARK  4 active torsions:
REMARK  status: ('A' for Active; 'I' for Inactive)
REMARK    1  A    between atoms: C_2  and  C_4
REMARK    2  A    between atoms: N_8  and  C_9
REMARK    3  A    between atoms: C_9  and  C_10
REMARK    4  A    between atoms: C_13  and  C_14
REMARK                            x       y       z     vdW  Elec       q    Type
REMARK                         _______ _______ _______ _____ _____    ______ ____
ROOT
ATOM      1  C   UNL     1      48.234   6.707  13.881  0.00  0.00    +0.000 A 
ATOM      2  C   UNL     1      47.455   5.590  14.152  0.00  0.00    +0.000 A 
ATOM      3  C   UNL     1      46.327   5.331  13.370  0.00  0.00    +0.000 A 
ATOM      4  C   UNL     1      46.026   6.166  12.306  0.00  0.00    +0.000 A 
ATOM      5  N   UNL     1      44.890   6.008  11.507  0.00  0.00    +0.000 N 
ATOM      6  N   UNL     1      46.773   7.262  12.037  0.00  0.00    +0.000 NA
ATOM      7  C   UNL     1      47.845   7.528  12.837  0.00  0.00    +0.000 A 
ATOM      8  H   UNL     1      44.965   6.721  10.785  0.00  0.00    +0.000 HD
ENDROOT
BRANCH   1  10
ATOM      9  N   UNL     1      50.511   7.504  14.039  0.00  0.00    +0.000 N 
ATOM     10  C   UNL     1      49.404   7.054  14.713  0.00  0.00    +0.000 C 
ATOM     11  O   UNL     1      49.384   6.956  15.927  0.00  0.00    +0.000 OA
ATOM     12  H   UNL     1      51.307   7.785  14.597  0.00  0.00    +0.000 HD
ATOM     13  H   UNL     1      50.489   7.797  13.075  0.00  0.00    +0.000 HD
ENDBRANCH   1  10
BRANCH   5  14
ATOM     14  C   UNL     1      44.278   4.728  11.095  0.00  0.00    +0.000 C 
ATOM     15  C   UNL     1      42.751   4.777  11.072  0.00  0.00    +0.000 C 
ATOM     16  C   UNL     1      43.444   3.819  11.983  0.00  0.00    +0.000 C 
BRANCH  14  17
ATOM     17  C   UNL     1      45.010   4.056   9.947  0.00  0.00    +0.000 A 
ATOM     18  C   UNL     1      45.043   2.667   9.781  0.00  0.00    +0.000 A 
ATOM     19  C   UNL     1      45.661   2.097   8.667  0.00  0.00    +0.000 A 
ATOM     20  C   UNL     1      46.265   2.929   7.725  0.00  0.00    +0.000 A 
ATOM     21  N   UNL     1      46.278   4.283   7.875  0.00  0.00    +0.000 NA
ATOM     22  C   UNL     1      45.652   4.799   8.958  0.00  0.00    +0.000 A 
BRANCH  20  23
ATOM     23  C   UNL     1      46.914   2.330   6.486  0.00  0.00    +0.000 C 
ATOM     24  F   UNL     1      48.248   2.618   6.386  0.00  0.00    +0.000 F 
ATOM     25  F   UNL     1      46.835   0.969   6.445  0.00  0.00    +0.000 F 
ATOM     26  F   UNL     1      46.360   2.777   5.323  0.00  0.00    +0.000 F 
ENDBRANCH  20  23
ENDBRANCH  14  17
ENDBRANCH   5  14
TORSDOF 4
ENDMDL
MODEL 3
REMARK VINA RESULT:    -7.834      4.052      6.689
REMARK INTER + INTRA:         -10.269
REMARK INTER:                  -9.609
REMARK INTRA:                  -0.660
REMARK UNBOUND:                -0.603
REMARK  Name = 
REMARK  4 active torsions:
REMARK  status: ('A' for Active; 'I' for Inactive)
REMARK    1  A    between atoms: C_2  and  C_4
REMARK    2  A    between atoms: N_8  and  C_9
REMARK    3  A    between atoms: C_9  and  C_10
REMARK    4  A    between atoms: C_13  and  C_14
REMARK                            x       y       z     vdW  Elec       q    Type
REMARK                         _______ _______ _______ _____ _____    ______ ____
ROOT
ATOM      1  C   UNL     1      48.251   6.686  13.806  0.00  0.00    +0.000 A 
ATOM      2  C   UNL     1      47.486   5.567  14.107  0.00  0.00    +0.000 A 
ATOM      3  C   UNL     1      46.322   5.313  13.379  0.00  0.00    +0.000 A 
ATOM      4  C   UNL     1      45.970   6.155  12.337  0.00  0.00    +0.000 A 
ATOM      5  N   UNL     1      44.795   6.002  11.593  0.00  0.00    +0.000 N 
ATOM      6  N   UNL     1      46.703   7.253  12.039  0.00  0.00    +0.000 NA
ATOM      7  C   UNL     1      47.812   7.515  12.788  0.00  0.00    +0.000 A 
ATOM      8  H   UNL     1      44.835   6.720  10.873  0.00  0.00    +0.000 HD
ENDROOT
BRANCH   1  10
ATOM      9  N   UNL     1      50.490   7.595  13.876  0.00  0.00    +0.000 N 
ATOM     10  C   UNL     1      49.460   7.028  14.583  0.00  0.00    +0.000 C 
ATOM     11  O   UNL     1      49.534   6.829  15.782  0.00  0.00    +0.000 OA
ATOM     12  H   UNL     1      51.310   7.872  14.400  0.00  0.00    +0.000 HD
ATOM     13  H   UNL     1      50.383   7.965  12.945  0.00  0.00    +0.000 HD
ENDBRANCH   1  10
BRANCH   5  14
ATOM     14  C   UNL     1      44.164   4.725  11.202  0.00  0.00    +0.000 C 
ATOM     15  C   UNL     1      42.638   4.771  11.261  0.00  0.00    +0.000 C 
ATOM     16  C   UNL     1      43.381   3.807  12.125  0.00  0.00    +0.000 C 
BRANCH  14  17
ATOM     17  C   UNL     1      44.835   4.064  10.011  0.00  0.00    +0.000 A 
ATOM     18  C   UNL     1      45.455   4.795   8.991  0.00  0.00    +0.000 A 
ATOM     19  C   UNL     1      46.129   4.143   7.956  0.00  0.00    +0.000 A 
ATOM     20  C   UNL     1      46.162   2.750   7.939  0.00  0.00    +0.000 A 
ATOM     21  N   UNL     1      45.541   2.010   8.900  0.00  0.00    +0.000 NA
ATOM     22  C   UNL     1      44.914   2.678   9.896  0.00  0.00    +0.000 A 
BRANCH  20  23
ATOM     23  C   UNL     1      46.920   2.020   6.840  0.00  0.00    +0.000 C 
ATOM     24  F   UNL     1      46.524   2.384   5.581  0.00  0.00    +0.000 F 
ATOM     25  F   UNL     1      48.265   2.248   6.875  0.00  0.00    +0.000 F 
ATOM     26  F   UNL     1      46.764   0.666   6.891  0.00  0.00    +0.000 F 
ENDBRANCH  20  23
ENDBRANCH  14  17
ENDBRANCH   5  14
TORSDOF 4
ENDMDL
MODEL 4
REMARK VINA RESULT:    -6.445      1.627      2.362
REMARK INTER + INTRA:          -8.555
REMARK INTER:                  -7.999
REMARK INTRA:                  -0.555
REMARK UNBOUND:                -0.603
REMARK  Name = 
REMARK  4 active torsions:
REMARK  status: ('A' for Active; 'I' for Inactive)
REMARK    1  A    between atoms: C_2  and  C_4
REMARK    2  A    between atoms: N_8  and  C_9
REMARK    3  A    between atoms: C_9  and  C_10
REMARK    4  A    between atoms: C_13  and  C_14
REMARK                            x       y       z     vdW  Elec       q    Type
REMARK                         _______ _______ _______ _____ _____    ______ ____
ROOT
ATOM      1  C   UNL     1      46.471   2.554   7.562  0.00  0.00    +0.000 A 
ATOM      2  C   UNL     1      46.460   3.934   7.710  0.00  0.00    +0.000 A 
ATOM      3  C   UNL     1      45.643   4.516   8.682  0.00  0.00    +0.000 A 
ATOM      4  C   UNL     1      44.891   3.707   9.516  0.00  0.00    +0.000 A 
ATOM      5  N   UNL     1      44.010   4.209  10.480  0.00  0.00    +0.000 N 
ATOM      6  N   UNL     1      44.887   2.361   9.377  0.00  0.00    +0.000 NA
ATOM      7  C   UNL     1      45.653   1.808   8.394  0.00  0.00    +0.000 A 
ATOM      8  H   UNL     1      43.648   3.393  10.968  0.00  0.00    +0.000 HD
ENDROOT
BRANCH   1  10
ATOM      9  N   UNL     1      47.913   2.728   5.630  0.00  0.00    +0.000 N 
ATOM     10  C   UNL     1      47.274   1.895   6.513  0.00  0.00    +0.000 C 
ATOM     11  O   UNL     1      47.371   0.683   6.439  0.00  0.00    +0.000 OA
ATOM     12  H   UNL     1      48.500   2.294   4.929  0.00  0.00    +0.000 HD
ATOM     13  H   UNL     1      48.028   3.716   5.788  0.00  0.00    +0.000 HD
ENDBRANCH   1  10
BRANCH   5  14
ATOM     14  C   UNL     1      44.204   5.423  11.299  0.00  0.00    +0.000 C 
ATOM     15  C   UNL     1      42.923   6.238  11.471  0.00  0.00    +0.000 C 
ATOM     16  C   UNL     1      44.104   6.854  10.798  0.00  0.00    +0.000 C 
BRANCH  14  17
ATOM     17  C   UNL     1      45.101   5.196  12.503  0.00  0.00    +0.000 A 
ATOM     18  C   UNL     1      45.362   3.923  13.022  0.00  0.00    +0.000 A 
ATOM     19  C   UNL     1      46.255   3.755  14.082  0.00  0.00    +0.000 A 
ATOM     20  C   UNL     1      46.874   4.876  14.632  0.00  0.00    +0.000 A 
ATOM     21  N   UNL     1      46.616   6.132  14.171  0.00  0.00    +0.000 NA
ATOM     22  C   UNL     1      45.758   6.252  13.131  0.00  0.00    +0.000 A 
BRANCH  20  23
ATOM     23  C   UNL     1      47.877   4.713  15.765  0.00  0.00    +0.000 C 
ATOM     24  F   UNL     1      48.402   3.451  15.841  0.00  0.00    +0.000 F 
ATOM     25  F   UNL     1      48.953   5.545  15.651  0.00  0.00    +0.000 F 
ATOM     26  F   UNL     1      47.340   4.955  16.995  0.00  0.00    +0.000 F 
ENDBRANCH  20  23
ENDBRANCH  14  17
ENDBRANCH   5  14
TORSDOF 4
ENDMDL
MODEL 5
REMARK VINA RESULT:    -5.897      4.956      6.909
REMARK INTER + INTRA:          -7.879
REMARK INTER:                  -7.641
REMARK INTRA:                  -0.238
REMARK UNBOUND:                -0.603
REMARK  Name = 
REMARK  4 active torsions:
REMARK  status: ('A' for Active; 'I' for Inactive)
REMARK    1  A    between atoms: C_2  and  C_4
REMARK    2  A    between atoms: N_8  and  C_9
REMARK    3  A    between atoms: C_9  and  C_10
REMARK    4  A    between atoms: C_13  and  C_14
REMARK                            x       y       z     vdW  Elec       q    Type
REMARK                         _______ _______ _______ _____ _____    ______ ____
ROOT
ATOM      1  C   UNL     1      45.893   5.171  12.029  0.00  0.00    +0.000 A 
ATOM      2  C   UNL     1      46.556   6.199  12.686  0.00  0.00    +0.000 A 
ATOM      3  C   UNL     1      46.986   6.012  14.001  0.00  0.00    +0.000 A 
ATOM      4  C   UNL     1      46.788   4.787  14.617  0.00  0.00    +0.000 A 
ATOM      5  N   UNL     1      47.142   4.533  15.946  0.00  0.00    +0.000 N 
ATOM      6  N   UNL     1      46.137   3.780  13.990  0.00  0.00    +0.000 NA
ATOM      7  C   UNL     1      45.681   3.992  12.723  0.00  0.00    +0.000 A 
ATOM      8  H   UNL     1      46.932   3.549  16.099  0.00  0.00    +0.000 HD
ENDROOT
BRANCH   1  10
ATOM      9  N   UNL     1      44.050   5.016  10.473  0.00  0.00    +0.000 N 
ATOM     10  C   UNL     1      45.370   5.339  10.659  0.00  0.00    +0.000 C 
ATOM     11  O   UNL     1      46.066   5.751   9.748  0.00  0.00    +0.000 OA
ATOM     12  H   UNL     1      43.665   5.164   9.549  0.00  0.00    +0.000 HD
ATOM     13  H   UNL     1      43.402   4.882  11.233  0.00  0.00    +0.000 HD
ENDBRANCH   1  10
BRANCH   5  14
ATOM     14  C   UNL     1      48.323   5.063  16.657  0.00  0.00    +0.000 C 
ATOM     15  C   UNL     1      47.957   6.012  17.797  0.00  0.00    +0.000 C 
ATOM     16  C   UNL     1      48.779   6.512  16.656  0.00  0.00    +0.000 C 
BRANCH  14  17
ATOM     17  C   UNL     1      49.403   4.020  16.885  0.00  0.00    +0.000 A 
ATOM     18  C   UNL     1      50.648   4.331  17.443  0.00  0.00    +0.000 A 
ATOM     19  C   UNL     1      51.581   3.327  17.707  0.00  0.00    +0.000 A 
ATOM     20  C   UNL     1      51.265   2.006  17.392  0.00  0.00    +0.000 A 
ATOM     21  N   UNL     1      50.074   1.675  16.818  0.00  0.00    +0.000 NA
ATOM     22  C   UNL     1      49.189   2.674  16.594  0.00  0.00    +0.000 A 
BRANCH  20  23
ATOM     23  C   UNL     1      52.253   0.891  17.704  0.00  0.00    +0.000 C 
ATOM     24  F   UNL     1      51.681  -0.168  18.353  0.00  0.00    +0.000 F 
ATOM     25  F   UNL     1      52.830   0.361  16.587  0.00  0.00    +0.000 F 
ATOM     26  F   UNL     1      53.280   1.295  18.505  0.00  0.00    +0.000 F 
ENDBRANCH  20  23
ENDBRANCH  14  17
ENDBRANCH   5  14
TORSDOF 4
ENDMDL
MODEL 6
REMARK VINA RESULT:    -5.879      3.449      5.390
REMARK INTER + INTRA:          -7.856
REMARK INTER:                  -7.641
REMARK INTRA:                  -0.215
REMARK UNBOUND:                -0.603
REMARK  Name = 
REMARK  4 active torsions:
REMARK  status: ('A' for Active; 'I' for Inactive)
REMARK    1  A    between atoms: C_2  and  C_4
REMARK    2  A    between atoms: N_8  and  C_9
REMARK    3  A    between atoms: C_9  and  C_10
REMARK    4  A    between atoms: C_13  and  C_14
REMARK                            x       y       z     vdW  Elec       q    Type
REMARK                         _______ _______ _______ _____ _____    ______ ____
ROOT
ATOM      1  C   UNL     1      44.778   5.042  11.019  0.00  0.00    +0.000 A 
ATOM      2  C   UNL     1      45.917   5.703  10.580  0.00  0.00    +0.000 A 
ATOM      3  C   UNL     1      46.574   6.587  11.438  0.00  0.00    +0.000 A 
ATOM      4  C   UNL     1      46.108   6.758  12.731  0.00  0.00    +0.000 A 
ATOM      5  N   UNL     1      46.676   7.661  13.636  0.00  0.00    +0.000 N 
ATOM      6  N   UNL     1      44.995   6.126  13.169  0.00  0.00    +0.000 NA
ATOM      7  C   UNL     1      44.336   5.301  12.306  0.00  0.00    +0.000 A 
ATOM      8  H   UNL     1      46.168   7.528  14.507  0.00  0.00    +0.000 HD
ENDROOT
BRANCH   1  10
ATOM      9  N   UNL     1      44.078   4.421   8.791  0.00  0.00    +0.000 N 
ATOM     10  C   UNL     1      44.016   4.140  10.132  0.00  0.00    +0.000 C 
ATOM     11  O   UNL     1      43.378   3.197  10.564  0.00  0.00    +0.000 OA
ATOM     12  H   UNL     1      43.595   3.789   8.165  0.00  0.00    +0.000 HD
ATOM     13  H   UNL     1      44.756   5.048   8.388  0.00  0.00    +0.000 HD
ENDBRANCH   1  10
BRANCH   5  14
ATOM     14  C   UNL     1      48.110   7.990  13.765  0.00  0.00    +0.000 C 
ATOM     15  C   UNL     1      48.381   9.493  13.753  0.00  0.00    +0.000 C 
ATOM     16  C   UNL     1      48.972   8.629  12.689  0.00  0.00    +0.000 C 
BRANCH  14  17
ATOM     17  C   UNL     1      48.836   7.118  14.774  0.00  0.00    +0.000 A 
ATOM     18  C   UNL     1      50.126   7.408  15.235  0.00  0.00    +0.000 A 
ATOM     19  C   UNL     1      50.723   6.623  16.223  0.00  0.00    +0.000 A 
ATOM     20  C   UNL     1      50.025   5.531  16.736  0.00  0.00    +0.000 A 
ATOM     21  N   UNL     1      48.782   5.203  16.286  0.00  0.00    +0.000 NA
ATOM     22  C   UNL     1      48.229   5.999  15.340  0.00  0.00    +0.000 A 
BRANCH  20  23
ATOM     23  C   UNL     1      50.643   4.682  17.838  0.00  0.00    +0.000 C 
ATOM     24  F   UNL     1      51.420   5.405  18.702  0.00  0.00    +0.000 F 
ATOM     25  F   UNL     1      49.713   4.063  18.621  0.00  0.00    +0.000 F 
ATOM     26  F   UNL     1      51.454   3.695  17.361  0.00  0.00    +0.000 F 
ENDBRANCH  20  23
ENDBRANCH  14  17
ENDBRANCH   5  14
TORSDOF 4
ENDMDL
MODEL 7
REMARK VINA RESULT:    -5.734      5.461      8.499
REMARK INTER + INTRA:          -7.678
REMARK INTER:                  -7.029
REMARK INTRA:                  -0.649
REMARK UNBOUND:                -0.603
REMARK  Name = 
REMARK  4 active torsions:
REMARK  status: ('A' for Active; 'I' for Inactive)
REMARK    1  A    between atoms: C_2  and  C_4
REMARK    2  A    between atoms: N_8  and  C_9
REMARK    3  A    between atoms: C_9  and  C_10
REMARK    4  A    between atoms: C_13  and  C_14
REMARK                            x       y       z     vdW  Elec       q    Type
REMARK                         _______ _______ _______ _____ _____    ______ ____
ROOT
ATOM      1  C   UNL     1      48.939   7.446  17.867  0.00  0.00    +0.000 A 
ATOM      2  C   UNL     1      48.537   8.482  17.035  0.00  0.00    +0.000 A 
ATOM      3  C   UNL     1      48.623   8.325  15.650  0.00  0.00    +0.000 A 
ATOM      4  C   UNL     1      49.064   7.122  15.124  0.00  0.00    +0.000 A 
ATOM      5  N   UNL     1      49.228   6.900  13.753  0.00  0.00    +0.000 N 
ATOM      6  N   UNL     1      49.465   6.108  15.925  0.00  0.00    +0.000 NA
ATOM      7  C   UNL     1      49.420   6.290  17.275  0.00  0.00    +0.000 A 
ATOM      8  H   UNL     1      49.504   5.925  13.667  0.00  0.00    +0.000 HD
ENDROOT
BRANCH   1  10
ATOM      9  N   UNL     1      47.745   7.247  19.960  0.00  0.00    +0.000 N 
ATOM     10  C   UNL     1      48.920   7.583  19.337  0.00  0.00    +0.000 C 
ATOM     11  O   UNL     1      49.893   7.964  19.963  0.00  0.00    +0.000 OA
ATOM     12  H   UNL     1      47.727   7.296  20.970  0.00  0.00    +0.000 HD
ATOM     13  H   UNL     1      47.006   6.733  19.505  0.00  0.00    +0.000 HD
ENDBRANCH   1  10
BRANCH   5  14
ATOM     14  C   UNL     1      48.375   7.431  12.670  0.00  0.00    +0.000 C 
ATOM     15  C   UNL     1      49.155   7.737  11.392  0.00  0.00    +0.000 C 
ATOM     16  C   UNL     1      48.442   8.839  12.102  0.00  0.00    +0.000 C 
BRANCH  14  17
ATOM     17  C   UNL     1      47.034   6.728  12.563  0.00  0.00    +0.000 A 
ATOM     18  C   UNL     1      46.845   5.396  12.948  0.00  0.00    +0.000 A 
ATOM     19  C   UNL     1      45.577   4.815  12.907  0.00  0.00    +0.000 A 
ATOM     20  C   UNL     1      44.496   5.574  12.459  0.00  0.00    +0.000 A 
ATOM     21  N   UNL     1      44.653   6.863  12.046  0.00  0.00    +0.000 NA
ATOM     22  C   UNL     1      45.894   7.397  12.118  0.00  0.00    +0.000 A 
BRANCH  20  23
ATOM     23  C   UNL     1      43.099   4.971  12.438  0.00  0.00    +0.000 C 
ATOM     24  F   UNL     1      43.018   3.827  11.692  0.00  0.00    +0.000 F 
ATOM     25  F   UNL     1      42.648   4.625  13.679  0.00  0.00    +0.000 F 
ATOM     26  F   UNL     1      42.161   5.812  11.915  0.00  0.00    +0.000 F 
ENDBRANCH  20  23
ENDBRANCH  14  17
ENDBRANCH   5  14
TORSDOF 4
ENDMDL
MODEL 8
REMARK VINA RESULT:    -5.416      3.372      5.333
REMARK INTER + INTRA:          -7.285
REMARK INTER:                  -7.066
REMARK INTRA:                  -0.219
REMARK UNBOUND:                -0.603
REMARK  Name = 
REMARK  4 active torsions:
REMARK  status: ('A' for Active; 'I' for Inactive)
REMARK    1  A    between atoms: C_2  and  C_4
REMARK    2  A    between atoms: N_8  and  C_9
REMARK    3  A    between atoms: C_9  and  C_10
REMARK    4  A    between atoms: C_13  and  C_14
REMARK                            x       y       z     vdW  Elec       q    Type
REMARK                         _______ _______ _______ _____ _____    ______ ____
ROOT
ATOM      1  C   UNL     1      44.891   4.233  11.556  0.00  0.00    +0.000 A 
ATOM      2  C   UNL     1      45.518   5.236  10.828  0.00  0.00    +0.000 A 
ATOM      3  C   UNL     1      46.147   6.285  11.502  0.00  0.00    +0.000 A 
ATOM      4  C   UNL     1      46.178   6.287  12.887  0.00  0.00    +0.000 A 
ATOM      5  N   UNL     1      46.741   7.323  13.639  0.00  0.00    +0.000 N 
ATOM      6  N   UNL     1      45.564   5.320  13.607  0.00  0.00    +0.000 NA
ATOM      7  C   UNL     1      44.914   4.326  12.937  0.00  0.00    +0.000 A 
ATOM      8  H   UNL     1      46.668   7.025  14.609  0.00  0.00    +0.000 HD
ENDROOT
BRANCH   1  10
ATOM      9  N   UNL     1      44.877   2.414   9.964  0.00  0.00    +0.000 N 
ATOM     10  C   UNL     1      44.165   3.134  10.890  0.00  0.00    +0.000 C 
ATOM     11  O   UNL     1      43.004   2.874  11.153  0.00  0.00    +0.000 OA
ATOM     12  H   UNL     1      44.406   1.632   9.528  0.00  0.00    +0.000 HD
ATOM     13  H   UNL     1      45.880   2.462   9.881  0.00  0.00    +0.000 HD
ENDBRANCH   1  10
BRANCH   5  14
ATOM     14  C   UNL     1      47.943   8.108  13.289  0.00  0.00    +0.000 C 
ATOM     15  C   UNL     1      47.625   9.561  12.940  0.00  0.00    +0.000 C 
ATOM     16  C   UNL     1      48.259   8.678  11.917  0.00  0.00    +0.000 C 
BRANCH  14  17
ATOM     17  C   UNL     1      49.135   7.809  14.182  0.00  0.00    +0.000 A 
ATOM     18  C   UNL     1      49.026   7.077  15.369  0.00  0.00    +0.000 A 
ATOM     19  C   UNL     1      50.161   6.758  16.116  0.00  0.00    +0.000 A 
ATOM     20  C   UNL     1      51.409   7.195  15.675  0.00  0.00    +0.000 A 
ATOM     21  N   UNL     1      51.545   7.937  14.541  0.00  0.00    +0.000 NA
ATOM     22  C   UNL     1      50.423   8.210  13.834  0.00  0.00    +0.000 A 
BRANCH  20  23
ATOM     23  C   UNL     1      52.663   6.829  16.455  0.00  0.00    +0.000 C 
ATOM     24  F   UNL     1      52.412   6.014  17.525  0.00  0.00    +0.000 F 
ATOM     25  F   UNL     1      53.586   6.163  15.703  0.00  0.00    +0.000 F 
ATOM     26  F   UNL     1      53.308   7.915  16.971  0.00  0.00    +0.000 F 
ENDBRANCH  20  23
ENDBRANCH  14  17
ENDBRANCH   5  14
TORSDOF 4
ENDMDL
