MODEL 1
REMARK VINA RESULT:    -7.802      0.000      0.000
REMARK INTER + INTRA:         -11.838
REMARK INTER:                 -10.539
REMARK INTRA:                  -1.299
REMARK UNBOUND:                -1.299
REMARK  Name = 
REMARK  7 active torsions:
REMARK  status: ('A' for Active; 'I' for Inactive)
REMARK    1  A    between atoms: C_1  and  N_2
REMARK    2  A    between atoms: N_2  and  C_3
REMARK    3  A    between atoms: C_3  and  C_4
REMARK    4  A    between atoms: C_7  and  C_8
REMARK    5  A    between atoms: C_8  and  N_9
REMARK    6  A    between atoms: C_10  and  C_12
REMARK    7  A    between atoms: C_19  and  C_21
REMARK                            x       y       z     vdW  Elec       q    Type
REMARK                         _______ _______ _______ _____ _____    ______ ____
ROOT
ATOM      1  C   UNL     1      47.421   5.881  13.778  0.00  0.00    +0.000 A 
ATOM      2  C   UNL     1      48.328   6.651  14.524  0.00  0.00    +0.000 A 
ATOM      3  C   UNL     1      48.670   6.279  15.822  0.00  0.00    +0.000 A 
ATOM      4  C   UNL     1      48.116   5.126  16.395  0.00  0.00    +0.000 A 
ATOM      5  C   UNL     1      47.174   4.388  15.667  0.00  0.00    +0.000 A 
ATOM      6  C   UNL     1      46.836   4.754  14.366  0.00  0.00    +0.000 A 
ENDROOT
BRANCH   1   7
ATOM      7  C   UNL     1      47.105   6.235  12.349  0.00  0.00    +0.000 C 
BRANCH   7   9
ATOM      8  C   UNL     1      46.203   8.599  12.156  0.00  0.00    +0.000 C 
ATOM      9  N   UNL     1      45.985   7.156  12.117  0.00  0.00    +0.000 N 
ATOM     10  C   UNL     1      44.744   6.745  11.595  0.00  0.00    +0.000 C 
ATOM     11  O   UNL     1      43.911   7.568  11.222  0.00  0.00    +0.000 OA
BRANCH  10  12
ATOM     12  C   UNL     1      44.423   5.311  11.534  0.00  0.00    +0.000 A 
ATOM     13  C   UNL     1      43.688   4.631  12.491  0.00  0.00    +0.000 A 
ATOM     14  S   UNL     1      43.425   2.988  12.117  0.00  0.00    +0.000 S 
ATOM     15  C   UNL     1      44.151   3.168  10.591  0.00  0.00    +0.000 A 
ATOM     16  N   UNL     1      44.159   2.144   9.699  0.00  0.00    +0.000 NA
ATOM     17  C   UNL     1      44.684   2.440   8.557  0.00  0.00    +0.000 A 
ATOM     18  N   UNL     1      45.234   3.658   8.243  0.00  0.00    +0.000 N 
ATOM     19  C   UNL     1      45.373   4.678   9.159  0.00  0.00    +0.000 A 
ATOM     20  O   UNL     1      46.085   5.647   8.921  0.00  0.00    +0.000 OA
ATOM     21  C   UNL     1      44.681   4.433  10.415  0.00  0.00    +0.000 A 
ATOM     22  H   UNL     1      45.691   3.804   7.354  0.00  0.00    +0.000 HD
ENDBRANCH  10  12
ENDBRANCH   7   9
ENDBRANCH   1   7
BRANCH   4  23
ATOM     23  C   UNL     1      48.539   4.669  17.764  0.00  0.00    +0.000 C 
BRANCH  23  24
ATOM     24  N   UNL     1      49.451   3.557  17.706  0.00  0.00    +0.000 N 
ATOM     25  C   UNL     1      50.808   3.773  17.777  0.00  0.00    +0.000 C 
ATOM     26  O   UNL     1      51.294   4.897  17.880  0.00  0.00    +0.000 OA
ATOM     27  H   UNL     1      49.084   2.619  17.752  0.00  0.00    +0.000 HD
BRANCH  25  28
ATOM     28  C   UNL     1      51.636   2.586  17.727  0.00  0.00    +0.000 A 
ATOM     29  C   UNL     1      53.014   2.500  18.044  0.00  0.00    +0.000 A 
ATOM     30  N   UNL     1      53.507   1.267  17.890  0.00  0.00    +0.000 NA
ATOM     31  N   UNL     1      52.452   0.559  17.463  0.00  0.00    +0.000 N 
ATOM     32  C   UNL     1      51.308   1.296  17.353  0.00  0.00    +0.000 A 
ATOM     33  H   UNL     1      52.586  -0.428  17.260  0.00  0.00    +0.000 HD
ENDBRANCH  25  28
ENDBRANCH  23  24
ENDBRANCH   4  23
TORSDOF 6
ENDMDL
MODEL 2
REMARK VINA RESULT:    -7.798      1.634      2.440
REMARK INTER + INTRA:         -11.832
REMARK INTER:                 -10.674
REMARK INTRA:                  -1.158
REMARK UNBOUND:                -1.299
REMARK  Name = 
REMARK  7 active torsions:
REMARK  status: ('A' for Active; 'I' for Inactive)
REMARK    1  A    between atoms: C_1  and  N_2
REMARK    2  A    between atoms: N_2  and  C_3
REMARK    3  A    between atoms: C_3  and  C_4
REMARK    4  A    between atoms: C_7  and  C_8
REMARK    5  A    between atoms: C_8  and  N_9
REMARK    6  A    between atoms: C_10  and  C_12
REMARK    7  A    between atoms: C_19  and  C_21
REMARK                            x       y       z     vdW  Elec       q    Type
REMARK                         _______ _______ _______ _____ _____    ______ ____
ROOT
ATOM      1  C   UNL     1      47.523   5.821  13.620  0.00  0.00    +0.000 A 
ATOM      2  C   UNL     1      46.952   4.538  13.642  0.00  0.00    +0.000 A 
ATOM      3  C   UNL     1      47.035   3.748  14.786  0.00  0.00    +0.000 A 
ATOM      4  C   UNL     1      47.685   4.230  15.931  0.00  0.00    +0.000 A 
ATOM      5  C   UNL     1      48.296   5.490  15.889  0.00  0.00    +0.000 A 
ATOM      6  C   UNL     1      48.207   6.285  14.748  0.00  0.00    +0.000 A 
ENDROOT
BRANCH   1   7
ATOM      7  C   UNL     1      47.371   6.709  12.413  0.00  0.00    +0.000 C 
BRANCH   7   9
ATOM      8  C   UNL     1      46.237   8.897  13.015  0.00  0.00    +0.000 C 
ATOM      9  N   UNL     1      46.197   7.589  12.369  0.00  0.00    +0.000 N 
ATOM     10  C   UNL     1      45.101   7.370  11.513  0.00  0.00    +0.000 C 
ATOM     11  O   UNL     1      44.240   8.233  11.355  0.00  0.00    +0.000 OA
BRANCH  10  12
ATOM     12  C   UNL     1      44.961   6.074  10.832  0.00  0.00    +0.000 A 
ATOM     13  C   UNL     1      45.550   5.759   9.619  0.00  0.00    +0.000 A 
ATOM     14  S   UNL     1      45.257   4.158   9.108  0.00  0.00    +0.000 S 
ATOM     15  C   UNL     1      44.462   3.786  10.563  0.00  0.00    +0.000 A 
ATOM     16  N   UNL     1      44.046   2.520  10.826  0.00  0.00    +0.000 NA
ATOM     17  C   UNL     1      43.518   2.367  11.995  0.00  0.00    +0.000 A 
ATOM     18  N   UNL     1      43.336   3.377  12.907  0.00  0.00    +0.000 N 
ATOM     19  C   UNL     1      43.615   4.698  12.630  0.00  0.00    +0.000 A 
ATOM     20  O   UNL     1      43.211   5.593  13.364  0.00  0.00    +0.000 OA
ATOM     21  C   UNL     1      44.329   4.895  11.379  0.00  0.00    +0.000 A 
ATOM     22  H   UNL     1      42.853   3.204  13.777  0.00  0.00    +0.000 HD
ENDBRANCH  10  12
ENDBRANCH   7   9
ENDBRANCH   1   7
BRANCH   4  23
ATOM     23  C   UNL     1      47.710   3.420  17.198  0.00  0.00    +0.000 C 
BRANCH  23  24
ATOM     24  N   UNL     1      49.052   3.184  17.663  0.00  0.00    +0.000 N 
ATOM     25  C   UNL     1      49.865   2.294  17.000  0.00  0.00    +0.000 C 
ATOM     26  O   UNL     1      49.491   1.666  16.012  0.00  0.00    +0.000 OA
ATOM     27  H   UNL     1      49.430   3.775  18.387  0.00  0.00    +0.000 HD
BRANCH  25  28
ATOM     28  C   UNL     1      51.201   2.143  17.540  0.00  0.00    +0.000 A 
ATOM     29  C   UNL     1      51.907   0.929  17.729  0.00  0.00    +0.000 A 
ATOM     30  N   UNL     1      53.120   1.110  18.259  0.00  0.00    +0.000 NA
ATOM     31  N   UNL     1      53.195   2.438  18.424  0.00  0.00    +0.000 N 
ATOM     32  C   UNL     1      52.079   3.105  18.006  0.00  0.00    +0.000 A 
ATOM     33  H   UNL     1      54.041   2.825  18.834  0.00  0.00    +0.000 HD
ENDBRANCH  25  28
ENDBRANCH  23  24
ENDBRANCH   4  23
TORSDOF 6
ENDMDL
MODEL 3
REMARK VINA RESULT:    -7.620      3.561      8.822
REMARK INTER + INTRA:         -11.591
REMARK INTER:                 -10.465
REMARK INTRA:                  -1.126
REMARK UNBOUND:                -1.299
REMARK  Name = 
REMARK  7 active torsions:
REMARK  status: ('A' for Active; 'I' for Inactive)
REMARK    1  A    between atoms: C_1  and  N_2
REMARK    2  A    between atoms: N_2  and  C_3
REMARK    3  A    between atoms: C_3  and  C_4
REMARK    4  A    between atoms: C_7  and  C_8
REMARK    5  A    between atoms: C_8  and  N_9
REMARK    6  A    between atoms: C_10  and  C_12
REMARK    7  A    between atoms: C_19  and  C_21
REMARK                            x       y       z     vdW  Elec       q    Type
REMARK                         _______ _______ _______ _____ _____    ______ ____
ROOT
ATOM      1  C   UNL     1      46.458   6.674  13.024  0.00  0.00    +0.000 A 
ATOM      2  C   UNL     1      46.324   5.283  13.161  0.00  0.00    +0.000 A 
ATOM      3  C   UNL     1      45.655   4.540  12.191  0.00  0.00    +0.000 A 
ATOM      4  C   UNL     1      45.114   5.174  11.064  0.00  0.00    +0.000 A 
ATOM      5  C   UNL     1      45.206   6.568  10.956  0.00  0.00    +0.000 A 
ATOM      6  C   UNL     1      45.881   7.312  11.922  0.00  0.00    +0.000 A 
ENDROOT
BRANCH   1   7
ATOM      7  C   UNL     1      47.244   7.473  14.030  0.00  0.00    +0.000 C 
BRANCH   7   9
ATOM      8  C   UNL     1      49.540   7.843  13.016  0.00  0.00    +0.000 C 
ATOM      9  N   UNL     1      48.698   7.270  14.061  0.00  0.00    +0.000 N 
ATOM     10  C   UNL     1      49.383   6.772  15.186  0.00  0.00    +0.000 C 
ATOM     11  O   UNL     1      50.611   6.812  15.247  0.00  0.00    +0.000 OA
BRANCH  10  12
ATOM     12  C   UNL     1      48.623   6.155  16.283  0.00  0.00    +0.000 A 
ATOM     13  C   UNL     1      48.165   4.848  16.282  0.00  0.00    +0.000 A 
ATOM     14  S   UNL     1      47.367   4.398  17.721  0.00  0.00    +0.000 S 
ATOM     15  C   UNL     1      47.742   5.885  18.453  0.00  0.00    +0.000 A 
ATOM     16  N   UNL     1      47.438   6.117  19.756  0.00  0.00    +0.000 NA
ATOM     17  C   UNL     1      47.839   7.261  20.200  0.00  0.00    +0.000 A 
ATOM     18  N   UNL     1      48.485   8.208  19.444  0.00  0.00    +0.000 N 
ATOM     19  C   UNL     1      48.691   8.074  18.088  0.00  0.00    +0.000 A 
ATOM     20  O   UNL     1      49.040   9.031  17.406  0.00  0.00    +0.000 OA
ATOM     21  C   UNL     1      48.372   6.750  17.577  0.00  0.00    +0.000 A 
ATOM     22  H   UNL     1      48.712   9.112  19.833  0.00  0.00    +0.000 HD
ENDBRANCH  10  12
ENDBRANCH   7   9
ENDBRANCH   1   7
BRANCH   4  23
ATOM     23  C   UNL     1      44.461   4.373   9.971  0.00  0.00    +0.000 C 
BRANCH  23  24
ATOM     24  N   UNL     1      45.377   4.068   8.903  0.00  0.00    +0.000 N 
ATOM     25  C   UNL     1      45.610   2.759   8.549  0.00  0.00    +0.000 C 
ATOM     26  O   UNL     1      45.070   1.813   9.118  0.00  0.00    +0.000 OA
ATOM     27  H   UNL     1      45.734   4.819   8.334  0.00  0.00    +0.000 HD
BRANCH  25  28
ATOM     28  C   UNL     1      46.534   2.562   7.451  0.00  0.00    +0.000 A 
ATOM     29  C   UNL     1      47.349   1.425   7.223  0.00  0.00    +0.000 A 
ATOM     30  N   UNL     1      48.109   1.541   6.129  0.00  0.00    +0.000 NA
ATOM     31  N   UNL     1      47.795   2.756   5.657  0.00  0.00    +0.000 N 
ATOM     32  C   UNL     1      46.856   3.407   6.405  0.00  0.00    +0.000 A 
ATOM     33  H   UNL     1      48.267   3.082   4.818  0.00  0.00    +0.000 HD
ENDBRANCH  25  28
ENDBRANCH  23  24
ENDBRANCH   4  23
TORSDOF 6
ENDMDL
MODEL 4
REMARK VINA RESULT:    -7.540      3.444      8.531
REMARK INTER + INTRA:         -11.484
REMARK INTER:                 -10.364
REMARK INTRA:                  -1.119
REMARK UNBOUND:                -1.299
REMARK  Name = 
REMARK  7 active torsions:
REMARK  status: ('A' for Active; 'I' for Inactive)
REMARK    1  A    between atoms: C_1  and  N_2
REMARK    2  A    between atoms: N_2  and  C_3
REMARK    3  A    between atoms: C_3  and  C_4
REMARK    4  A    between atoms: C_7  and  C_8
REMARK    5  A    between atoms: C_8  and  N_9
REMARK    6  A    between atoms: C_10  and  C_12
REMARK    7  A    between atoms: C_19  and  C_21
REMARK                            x       y       z     vdW  Elec       q    Type
REMARK                         _______ _______ _______ _____ _____    ______ ____
ROOT
ATOM      1  C   UNL     1      46.463   6.720  12.914  0.00  0.00    +0.000 A 
ATOM      2  C   UNL     1      46.280   5.399  13.354  0.00  0.00    +0.000 A 
ATOM      3  C   UNL     1      45.499   4.511  12.617  0.00  0.00    +0.000 A 
ATOM      4  C   UNL     1      44.893   4.927  11.424  0.00  0.00    +0.000 A 
ATOM      5  C   UNL     1      45.037   6.260  11.014  0.00  0.00    +0.000 A 
ATOM      6  C   UNL     1      45.823   7.147  11.746  0.00  0.00    +0.000 A 
ENDROOT
BRANCH   1   7
ATOM      7  C   UNL     1      47.365   7.663  13.666  0.00  0.00    +0.000 C 
BRANCH   7   9
ATOM      8  C   UNL     1      49.435   7.029  12.343  0.00  0.00    +0.000 C 
ATOM      9  N   UNL     1      48.809   7.401  13.608  0.00  0.00    +0.000 N 
ATOM     10  C   UNL     1      49.696   7.740  14.647  0.00  0.00    +0.000 C 
ATOM     11  O   UNL     1      50.913   7.696  14.478  0.00  0.00    +0.000 OA
BRANCH  10  12
ATOM     12  C   UNL     1      49.161   8.109  15.966  0.00  0.00    +0.000 A 
ATOM     13  C   UNL     1      48.923   9.410  16.379  0.00  0.00    +0.000 A 
ATOM     14  S   UNL     1      48.243   9.521  17.939  0.00  0.00    +0.000 S 
ATOM     15  C   UNL     1      48.101   7.832  18.053  0.00  0.00    +0.000 A 
ATOM     16  N   UNL     1      47.483   7.254  19.116  0.00  0.00    +0.000 NA
ATOM     17  C   UNL     1      47.388   5.969  19.040  0.00  0.00    +0.000 A 
ATOM     18  N   UNL     1      47.888   5.208  18.012  0.00  0.00    +0.000 N 
ATOM     19  C   UNL     1      48.640   5.736  16.985  0.00  0.00    +0.000 A 
ATOM     20  O   UNL     1      49.276   5.008  16.231  0.00  0.00    +0.000 OA
ATOM     21  C   UNL     1      48.662   7.190  16.964  0.00  0.00    +0.000 A 
ATOM     22  H   UNL     1      47.840   4.200  18.046  0.00  0.00    +0.000 HD
ENDBRANCH  10  12
ENDBRANCH   7   9
ENDBRANCH   1   7
BRANCH   4  23
ATOM     23  C   UNL     1      44.117   3.956  10.578  0.00  0.00    +0.000 C 
BRANCH  23  24
ATOM     24  N   UNL     1      44.978   3.052   9.862  0.00  0.00    +0.000 N 
ATOM     25  C   UNL     1      45.407   3.368   8.592  0.00  0.00    +0.000 C 
ATOM     26  O   UNL     1      45.075   4.404   8.021  0.00  0.00    +0.000 OA
ATOM     27  H   UNL     1      45.371   2.261  10.347  0.00  0.00    +0.000 HD
BRANCH  25  28
ATOM     28  C   UNL     1      46.283   2.399   7.967  0.00  0.00    +0.000 A 
ATOM     29  C   UNL     1      47.365   2.674   7.095  0.00  0.00    +0.000 A 
ATOM     30  N   UNL     1      47.984   1.568   6.668  0.00  0.00    +0.000 NA
ATOM     31  N   UNL     1      47.294   0.579   7.253  0.00  0.00    +0.000 N 
ATOM     32  C   UNL     1      46.272   1.018   8.045  0.00  0.00    +0.000 A 
ATOM     33  H   UNL     1      47.575  -0.380   7.064  0.00  0.00    +0.000 HD
ENDBRANCH  25  28
ENDBRANCH  23  24
ENDBRANCH   4  23
TORSDOF 6
ENDMDL
MODEL 5
REMARK VINA RESULT:    -7.078      4.456      8.612
REMARK INTER + INTRA:         -10.859
REMARK INTER:                 -10.113
REMARK INTRA:                  -0.746
REMARK UNBOUND:                -1.299
REMARK  Name = 
REMARK  7 active torsions:
REMARK  status: ('A' for Active; 'I' for Inactive)
REMARK    1  A    between atoms: C_1  and  N_2
REMARK    2  A    between atoms: N_2  and  C_3
REMARK    3  A    between atoms: C_3  and  C_4
REMARK    4  A    between atoms: C_7  and  C_8
REMARK    5  A    between atoms: C_8  and  N_9
REMARK    6  A    between atoms: C_10  and  C_12
REMARK    7  A    between atoms: C_19  and  C_21
REMARK                            x       y       z     vdW  Elec       q    Type
REMARK                         _______ _______ _______ _____ _____    ______ ____
ROOT
ATOM      1  C   UNL     1      45.846   6.174  12.432  0.00  0.00    +0.000 A 
ATOM      2  C   UNL     1      45.480   4.967  13.048  0.00  0.00    +0.000 A 
ATOM      3  C   UNL     1      45.034   3.891  12.283  0.00  0.00    +0.000 A 
ATOM      4  C   UNL     1      44.953   4.001  10.889  0.00  0.00    +0.000 A 
ATOM      5  C   UNL     1      45.273   5.223  10.282  0.00  0.00    +0.000 A 
ATOM      6  C   UNL     1      45.726   6.298  11.044  0.00  0.00    +0.000 A 
ENDROOT
BRANCH   1   7
ATOM      7  C   UNL     1      46.400   7.315  13.244  0.00  0.00    +0.000 C 
BRANCH   7   9
ATOM      8  C   UNL     1      44.926   9.288  12.634  0.00  0.00    +0.000 C 
ATOM      9  N   UNL     1      46.246   8.668  12.696  0.00  0.00    +0.000 N 
ATOM     10  C   UNL     1      47.332   9.532  12.457  0.00  0.00    +0.000 C 
ATOM     11  O   UNL     1      47.151  10.719  12.197  0.00  0.00    +0.000 OA
BRANCH  10  12
ATOM     12  C   UNL     1      48.702   8.996  12.478  0.00  0.00    +0.000 A 
ATOM     13  C   UNL     1      49.435   8.675  11.347  0.00  0.00    +0.000 A 
ATOM     14  S   UNL     1      51.017   8.133  11.685  0.00  0.00    +0.000 S 
ATOM     15  C   UNL     1      50.827   8.456  13.342  0.00  0.00    +0.000 A 
ATOM     16  N   UNL     1      51.868   8.313  14.203  0.00  0.00    +0.000 NA
ATOM     17  C   UNL     1      51.601   8.655  15.419  0.00  0.00    +0.000 A 
ATOM     18  N   UNL     1      50.375   9.093  15.856  0.00  0.00    +0.000 N 
ATOM     19  C   UNL     1      49.258   9.121  15.050  0.00  0.00    +0.000 A 
ATOM     20  O   UNL     1      48.140   9.275  15.529  0.00  0.00    +0.000 OA
ATOM     21  C   UNL     1      49.543   8.868  13.646  0.00  0.00    +0.000 A 
ATOM     22  H   UNL     1      50.214   9.280  16.835  0.00  0.00    +0.000 HD
ENDBRANCH  10  12
ENDBRANCH   7   9
ENDBRANCH   1   7
BRANCH   4  23
ATOM     23  C   UNL     1      44.552   2.822  10.047  0.00  0.00    +0.000 C 
BRANCH  23  24
ATOM     24  N   UNL     1      45.552   2.492   9.065  0.00  0.00    +0.000 N 
ATOM     25  C   UNL     1      45.489   3.042   7.805  0.00  0.00    +0.000 C 
ATOM     26  O   UNL     1      44.594   3.811   7.463  0.00  0.00    +0.000 OA
ATOM     27  H   UNL     1      46.366   1.970   9.350  0.00  0.00    +0.000 HD
BRANCH  25  28
ATOM     28  C   UNL     1      46.552   2.658   6.899  0.00  0.00    +0.000 A 
ATOM     29  C   UNL     1      47.491   1.614   7.088  0.00  0.00    +0.000 A 
ATOM     30  N   UNL     1      48.362   1.509   6.080  0.00  0.00    +0.000 NA
ATOM     31  N   UNL     1      47.996   2.492   5.246  0.00  0.00    +0.000 N 
ATOM     32  C   UNL     1      46.917   3.206   5.683  0.00  0.00    +0.000 A 
ATOM     33  H   UNL     1      48.532   2.623   4.393  0.00  0.00    +0.000 HD
ENDBRANCH  25  28
ENDBRANCH  23  24
ENDBRANCH   4  23
TORSDOF 6
ENDMDL
MODEL 6
REMARK VINA RESULT:    -6.724      2.421      3.539
REMARK INTER + INTRA:         -10.381
REMARK INTER:                  -9.126
REMARK INTRA:                  -1.255
REMARK UNBOUND:                -1.299
REMARK  Name = 
REMARK  7 active torsions:
REMARK  status: ('A' for Active; 'I' for Inactive)
REMARK    1  A    between atoms: C_1  and  N_2
REMARK    2  A    between atoms: N_2  and  C_3
REMARK    3  A    between atoms: C_3  and  C_4
REMARK    4  A    between atoms: C_7  and  C_8
REMARK    5  A    between atoms: C_8  and  N_9
REMARK    6  A    between atoms: C_10  and  C_12
REMARK    7  A    between atoms: C_19  and  C_21
REMARK                            x       y       z     vdW  Elec       q    Type
REMARK                         _______ _______ _______ _____ _____    ______ ____
ROOT
ATOM      1  C   UNL     1      47.307   5.883  13.640  0.00  0.00    +0.000 A 
ATOM      2  C   UNL     1      48.261   6.653  14.327  0.00  0.00    +0.000 A 
ATOM      3  C   UNL     1      48.669   6.291  15.609  0.00  0.00    +0.000 A 
ATOM      4  C   UNL     1      48.137   5.150  16.224  0.00  0.00    +0.000 A 
ATOM      5  C   UNL     1      47.149   4.413  15.556  0.00  0.00    +0.000 A 
ATOM      6  C   UNL     1      46.745   4.769  14.271  0.00  0.00    +0.000 A 
ENDROOT
BRANCH   1   7
ATOM      7  C   UNL     1      46.917   6.226  12.227  0.00  0.00    +0.000 C 
BRANCH   7   9
ATOM      8  C   UNL     1      45.833   8.518  12.129  0.00  0.00    +0.000 C 
ATOM      9  N   UNL     1      45.727   7.065  12.042  0.00  0.00    +0.000 N 
ATOM     10  C   UNL     1      44.513   6.577  11.522  0.00  0.00    +0.000 C 
ATOM     11  O   UNL     1      43.613   7.346  11.190  0.00  0.00    +0.000 OA
BRANCH  10  12
ATOM     12  C   UNL     1      44.301   5.125  11.414  0.00  0.00    +0.000 A 
ATOM     13  C   UNL     1      43.568   4.371  12.316  0.00  0.00    +0.000 A 
ATOM     14  S   UNL     1      43.448   2.722  11.894  0.00  0.00    +0.000 S 
ATOM     15  C   UNL     1      44.240   2.991  10.415  0.00  0.00    +0.000 A 
ATOM     16  N   UNL     1      44.372   1.993   9.504  0.00  0.00    +0.000 NA
ATOM     17  C   UNL     1      44.935   2.354   8.399  0.00  0.00    +0.000 A 
ATOM     18  N   UNL     1      45.410   3.616   8.141  0.00  0.00    +0.000 N 
ATOM     19  C   UNL     1      45.423   4.620   9.084  0.00  0.00    +0.000 A 
ATOM     20  O   UNL     1      46.073   5.644   8.906  0.00  0.00    +0.000 OA
ATOM     21  C   UNL     1      44.684   4.296  10.294  0.00  0.00    +0.000 A 
ATOM     22  H   UNL     1      45.902   3.816   7.282  0.00  0.00    +0.000 HD
ENDBRANCH  10  12
ENDBRANCH   7   9
ENDBRANCH   1   7
BRANCH   4  23
ATOM     23  C   UNL     1      48.629   4.703  17.572  0.00  0.00    +0.000 C 
BRANCH  23  24
ATOM     24  N   UNL     1      49.175   5.794  18.338  0.00  0.00    +0.000 N 
ATOM     25  C   UNL     1      48.385   6.459  19.248  0.00  0.00    +0.000 C 
ATOM     26  O   UNL     1      47.206   6.170  19.438  0.00  0.00    +0.000 OA
ATOM     27  H   UNL     1      50.166   5.971  18.302  0.00  0.00    +0.000 HD
BRANCH  25  28
ATOM     28  C   UNL     1      49.035   7.528  19.978  0.00  0.00    +0.000 A 
ATOM     29  C   UNL     1      48.547   8.845  20.167  0.00  0.00    +0.000 A 
ATOM     30  N   UNL     1      49.379   9.612  20.878  0.00  0.00    +0.000 NA
ATOM     31  N   UNL     1      50.411   8.796  21.138  0.00  0.00    +0.000 N 
ATOM     32  C   UNL     1      50.255   7.539  20.629  0.00  0.00    +0.000 A 
ATOM     33  H   UNL     1      51.195   9.167  21.668  0.00  0.00    +0.000 HD
ENDBRANCH  25  28
ENDBRANCH  23  24
ENDBRANCH   4  23
TORSDOF 6
ENDMDL
MODEL 7
REMARK VINA RESULT:    -6.518      2.872      8.219
REMARK INTER + INTRA:         -10.103
REMARK INTER:                  -8.726
REMARK INTRA:                  -1.377
REMARK UNBOUND:                -1.299
REMARK  Name = 
REMARK  7 active torsions:
REMARK  status: ('A' for Active; 'I' for Inactive)
REMARK    1  A    between atoms: C_1  and  N_2
REMARK    2  A    between atoms: N_2  and  C_3
REMARK    3  A    between atoms: C_3  and  C_4
REMARK    4  A    between atoms: C_7  and  C_8
REMARK    5  A    between atoms: C_8  and  N_9
REMARK    6  A    between atoms: C_10  and  C_12
REMARK    7  A    between atoms: C_19  and  C_21
REMARK                            x       y       z     vdW  Elec       q    Type
REMARK                         _______ _______ _______ _____ _____    ______ ____
ROOT
ATOM      1  C   UNL     1      48.829   8.027  15.656  0.00  0.00    +0.000 A 
ATOM      2  C   UNL     1      48.039   9.048  15.102  0.00  0.00    +0.000 A 
ATOM      3  C   UNL     1      47.351   8.839  13.909  0.00  0.00    +0.000 A 
ATOM      4  C   UNL     1      47.434   7.604  13.253  0.00  0.00    +0.000 A 
ATOM      5  C   UNL     1      48.262   6.604  13.782  0.00  0.00    +0.000 A 
ATOM      6  C   UNL     1      48.946   6.809  14.978  0.00  0.00    +0.000 A 
ENDROOT
BRANCH   1   7
ATOM      7  C   UNL     1      49.516   8.220  16.982  0.00  0.00    +0.000 C 
BRANCH   7   9
ATOM      8  C   UNL     1      47.724   8.813  18.677  0.00  0.00    +0.000 C 
ATOM      9  N   UNL     1      48.748   7.895  18.190  0.00  0.00    +0.000 N 
ATOM     10  C   UNL     1      48.747   6.617  18.782  0.00  0.00    +0.000 C 
ATOM     11  O   UNL     1      47.937   6.329  19.662  0.00  0.00    +0.000 OA
BRANCH  10  12
ATOM     12  C   UNL     1      49.754   5.627  18.373  0.00  0.00    +0.000 A 
ATOM     13  C   UNL     1      51.086   5.662  18.752  0.00  0.00    +0.000 A 
ATOM     14  S   UNL     1      52.001   4.345  18.171  0.00  0.00    +0.000 S 
ATOM     15  C   UNL     1      50.616   3.605  17.523  0.00  0.00    +0.000 A 
ATOM     16  N   UNL     1      50.682   2.367  16.968  0.00  0.00    +0.000 NA
ATOM     17  C   UNL     1      49.544   1.899  16.576  0.00  0.00    +0.000 A 
ATOM     18  N   UNL     1      48.352   2.576  16.658  0.00  0.00    +0.000 N 
ATOM     19  C   UNL     1      48.259   3.883  17.084  0.00  0.00    +0.000 A 
ATOM     20  O   UNL     1      47.233   4.531  16.909  0.00  0.00    +0.000 OA
ATOM     21  C   UNL     1      49.493   4.401  17.654  0.00  0.00    +0.000 A 
ATOM     22  H   UNL     1      47.507   2.181  16.270  0.00  0.00    +0.000 HD
ENDBRANCH  10  12
ENDBRANCH   7   9
ENDBRANCH   1   7
BRANCH   4  23
ATOM     23  C   UNL     1      46.631   7.339  12.009  0.00  0.00    +0.000 C 
BRANCH  23  24
ATOM     24  N   UNL     1      46.043   6.025  12.014  0.00  0.00    +0.000 N 
ATOM     25  C   UNL     1      44.704   5.868  11.733  0.00  0.00    +0.000 C 
ATOM     26  O   UNL     1      43.965   6.817  11.482  0.00  0.00    +0.000 OA
ATOM     27  H   UNL     1      46.643   5.219  12.087  0.00  0.00    +0.000 HD
BRANCH  25  28
ATOM     28  C   UNL     1      44.217   4.504  11.747  0.00  0.00    +0.000 A 
ATOM     29  C   UNL     1      43.698   3.801  12.862  0.00  0.00    +0.000 A 
ATOM     30  N   UNL     1      43.337   2.548  12.566  0.00  0.00    +0.000 NA
ATOM     31  N   UNL     1      43.635   2.437  11.264  0.00  0.00    +0.000 N 
ATOM     32  C   UNL     1      44.157   3.577  10.723  0.00  0.00    +0.000 A 
ATOM     33  H   UNL     1      43.458   1.548  10.804  0.00  0.00    +0.000 HD
ENDBRANCH  25  28
ENDBRANCH  23  24
ENDBRANCH   4  23
TORSDOF 6
ENDMDL
MODEL 8
REMARK VINA RESULT:    -6.413      2.775      8.420
REMARK INTER + INTRA:          -9.961
REMARK INTER:                  -8.861
REMARK INTRA:                  -1.100
REMARK UNBOUND:                -1.299
REMARK  Name = 
REMARK  7 active torsions:
REMARK  status: ('A' for Active; 'I' for Inactive)
REMARK    1  A    between atoms: C_1  and  N_2
REMARK    2  A    between atoms: N_2  and  C_3
REMARK    3  A    between atoms: C_3  and  C_4
REMARK    4  A    between atoms: C_7  and  C_8
REMARK    5  A    between atoms: C_8  and  N_9
REMARK    6  A    between atoms: C_10  and  C_12
REMARK    7  A    between atoms: C_19  and  C_21
REMARK                            x       y       z     vdW  Elec       q    Type
REMARK                         _______ _______ _______ _____ _____    ______ ____
ROOT
ATOM      1  C   UNL     1      48.268   7.354  13.883  0.00  0.00    +0.000 A 
ATOM      2  C   UNL     1      47.878   8.359  12.982  0.00  0.00    +0.000 A 
ATOM      3  C   UNL     1      46.839   8.134  12.082  0.00  0.00    +0.000 A 
ATOM      4  C   UNL     1      46.167   6.904  12.070  0.00  0.00    +0.000 A 
ATOM      5  C   UNL     1      46.592   5.887  12.937  0.00  0.00    +0.000 A 
ATOM      6  C   UNL     1      47.626   6.112  13.843  0.00  0.00    +0.000 A 
ENDROOT
BRANCH   1   7
ATOM      7  C   UNL     1      49.339   7.615  14.909  0.00  0.00    +0.000 C 
BRANCH   7   9
ATOM      8  C   UNL     1      47.913   9.121  16.370  0.00  0.00    +0.000 C 
ATOM      9  N   UNL     1      48.903   8.056  16.239  0.00  0.00    +0.000 N 
ATOM     10  C   UNL     1      49.180   7.339  17.419  0.00  0.00    +0.000 C 
ATOM     11  O   UNL     1      48.626   7.626  18.478  0.00  0.00    +0.000 OA
BRANCH  10  12
ATOM     12  C   UNL     1      50.180   6.261  17.393  0.00  0.00    +0.000 A 
ATOM     13  C   UNL     1      51.534   6.441  17.620  0.00  0.00    +0.000 A 
ATOM     14  S   UNL     1      52.436   4.993  17.585  0.00  0.00    +0.000 S 
ATOM     15  C   UNL     1      51.025   4.061  17.419  0.00  0.00    +0.000 A 
ATOM     16  N   UNL     1      51.081   2.704  17.437  0.00  0.00    +0.000 NA
ATOM     17  C   UNL     1      49.929   2.124  17.368  0.00  0.00    +0.000 A 
ATOM     18  N   UNL     1      48.730   2.782  17.245  0.00  0.00    +0.000 N 
ATOM     19  C   UNL     1      48.637   4.147  17.083  0.00  0.00    +0.000 A 
ATOM     20  O   UNL     1      47.586   4.669  16.728  0.00  0.00    +0.000 OA
ATOM     21  C   UNL     1      49.896   4.847  17.284  0.00  0.00    +0.000 A 
ATOM     22  H   UNL     1      47.870   2.268  17.127  0.00  0.00    +0.000 HD
ENDBRANCH  10  12
ENDBRANCH   7   9
ENDBRANCH   1   7
BRANCH   4  23
ATOM     23  C   UNL     1      44.992   6.679  11.160  0.00  0.00    +0.000 C 
BRANCH  23  24
ATOM     24  N   UNL     1      44.881   5.304  10.750  0.00  0.00    +0.000 N 
ATOM     25  C   UNL     1      45.497   4.877   9.595  0.00  0.00    +0.000 C 
ATOM     26  O   UNL     1      46.145   5.631   8.873  0.00  0.00    +0.000 OA
ATOM     27  H   UNL     1      44.468   4.635  11.381  0.00  0.00    +0.000 HD
BRANCH  25  28
ATOM     28  C   UNL     1      45.337   3.472   9.282  0.00  0.00    +0.000 A 
ATOM     29  C   UNL     1      46.118   2.711   8.377  0.00  0.00    +0.000 A 
ATOM     30  N   UNL     1      45.722   1.438   8.291  0.00  0.00    +0.000 NA
ATOM     31  N   UNL     1      44.677   1.378   9.128  0.00  0.00    +0.000 N 
ATOM     32  C   UNL     1      44.407   2.562   9.751  0.00  0.00    +0.000 A 
ATOM     33  H   UNL     1      44.188   0.492   9.224  0.00  0.00    +0.000 HD
ENDBRANCH  25  28
ENDBRANCH  23  24
ENDBRANCH   4  23
TORSDOF 6
ENDMDL
MODEL 9
REMARK VINA RESULT:    -6.381      2.089      8.322
REMARK INTER + INTRA:          -9.917
REMARK INTER:                  -8.765
REMARK INTRA:                  -1.152
REMARK UNBOUND:                -1.299
REMARK  Name = 
REMARK  7 active torsions:
REMARK  status: ('A' for Active; 'I' for Inactive)
REMARK    1  A    between atoms: C_1  and  N_2
REMARK    2  A    between atoms: N_2  and  C_3
REMARK    3  A    between atoms: C_3  and  C_4
REMARK    4  A    between atoms: C_7  and  C_8
REMARK    5  A    between atoms: C_8  and  N_9
REMARK    6  A    between atoms: C_10  and  C_12
REMARK    7  A    between atoms: C_19  and  C_21
REMARK                            x       y       z     vdW  Elec       q    Type
REMARK                         _______ _______ _______ _____ _____    ______ ____
ROOT
ATOM      1  C   UNL     1      48.911   7.359  14.973  0.00  0.00    +0.000 A 
ATOM      2  C   UNL     1      48.253   8.585  14.783  0.00  0.00    +0.000 A 
ATOM      3  C   UNL     1      47.225   8.696  13.848  0.00  0.00    +0.000 A 
ATOM      4  C   UNL     1      46.834   7.583  13.093  0.00  0.00    +0.000 A 
ATOM      5  C   UNL     1      47.526   6.374  13.250  0.00  0.00    +0.000 A 
ATOM      6  C   UNL     1      48.548   6.258  14.189  0.00  0.00    +0.000 A 
ENDROOT
BRANCH   1   7
ATOM      7  C   UNL     1      49.971   7.212  16.033  0.00  0.00    +0.000 C 
BRANCH   7   9
ATOM      8  C   UNL     1      49.704   8.867  17.937  0.00  0.00    +0.000 C 
ATOM      9  N   UNL     1      49.582   7.509  17.417  0.00  0.00    +0.000 N 
ATOM     10  C   UNL     1      48.844   6.617  18.219  0.00  0.00    +0.000 C 
ATOM     11  O   UNL     1      48.363   6.981  19.290  0.00  0.00    +0.000 OA
BRANCH  10  12
ATOM     12  C   UNL     1      48.683   5.220  17.790  0.00  0.00    +0.000 A 
ATOM     13  C   UNL     1      47.533   4.704  17.216  0.00  0.00    +0.000 A 
ATOM     14  S   UNL     1      47.665   3.064  16.766  0.00  0.00    +0.000 S 
ATOM     15  C   UNL     1      49.312   3.031  17.182  0.00  0.00    +0.000 A 
ATOM     16  N   UNL     1      50.071   1.932  16.937  0.00  0.00    +0.000 NA
ATOM     17  C   UNL     1      51.318   2.069  17.241  0.00  0.00    +0.000 A 
ATOM     18  N   UNL     1      51.865   3.196  17.803  0.00  0.00    +0.000 N 
ATOM     19  C   UNL     1      51.111   4.280  18.195  0.00  0.00    +0.000 A 
ATOM     20  O   UNL     1      51.588   5.153  18.913  0.00  0.00    +0.000 OA
ATOM     21  C   UNL     1      49.726   4.220  17.754  0.00  0.00    +0.000 A 
ATOM     22  H   UNL     1      52.836   3.215  18.081  0.00  0.00    +0.000 HD
ENDBRANCH  10  12
ENDBRANCH   7   9
ENDBRANCH   1   7
BRANCH   4  23
ATOM     23  C   UNL     1      45.673   7.670  12.141  0.00  0.00    +0.000 C 
BRANCH  23  24
ATOM     24  N   UNL     1      45.498   6.456  11.387  0.00  0.00    +0.000 N 
ATOM     25  C   UNL     1      44.578   5.518  11.794  0.00  0.00    +0.000 C 
ATOM     26  O   UNL     1      43.886   5.662  12.800  0.00  0.00    +0.000 OA
ATOM     27  H   UNL     1      45.953   6.365  10.492  0.00  0.00    +0.000 HD
BRANCH  25  28
ATOM     28  C   UNL     1      44.468   4.341  10.956  0.00  0.00    +0.000 A 
ATOM     29  C   UNL     1      44.704   4.270   9.561  0.00  0.00    +0.000 A 
ATOM     30  N   UNL     1      44.510   3.045   9.062  0.00  0.00    +0.000 NA
ATOM     31  N   UNL     1      44.138   2.328  10.131  0.00  0.00    +0.000 N 
ATOM     32  C   UNL     1      44.102   3.050  11.290  0.00  0.00    +0.000 A 
ATOM     33  H   UNL     1      43.918   1.344   9.997  0.00  0.00    +0.000 HD
ENDBRANCH  25  28
ENDBRANCH  23  24
ENDBRANCH   4  23
TORSDOF 6
ENDMDL
