MODEL 1
REMARK VINA RESULT:    -8.205      0.000      0.000
REMARK INTER + INTRA:         -12.216
REMARK INTER:                 -11.083
REMARK INTRA:                  -1.134
REMARK UNBOUND:                -1.134
REMARK  Name = 
REMARK  6 active torsions:
REMARK  status: ('A' for Active; 'I' for Inactive)
REMARK    1  A    between atoms: C_2  and  C_25
REMARK    2  A    between atoms: N_3  and  C_4
REMARK    3  A    between atoms: C_4  and  C_5
REMARK    4  A    between atoms: C_8  and  C_9
REMARK    5  A    between atoms: C_9  and  N_10
REMARK    6  A    between atoms: C_11  and  C_13
REMARK                            x       y       z     vdW  Elec       q    Type
REMARK                         _______ _______ _______ _____ _____    ______ ____
ROOT
ATOM      1  C   UNL     1      44.996   5.395  10.741  0.00  0.00    +0.000 A 
ATOM      2  C   UNL     1      44.385   5.740  11.955  0.00  0.00    +0.000 A 
ATOM      3  C   UNL     1      45.013   6.615  12.849  0.00  0.00    +0.000 A 
ATOM      4  C   UNL     1      46.256   7.181  12.538  0.00  0.00    +0.000 A 
ATOM      5  C   UNL     1      46.872   6.828  11.330  0.00  0.00    +0.000 A 
ATOM      6  C   UNL     1      46.243   5.955  10.436  0.00  0.00    +0.000 A 
ENDROOT
BRANCH   1   7
ATOM      7  C   UNL     1      44.306   4.471   9.769  0.00  0.00    +0.000 C 
BRANCH   7  10
ATOM      8  O   UNL     1      44.819   1.781   9.202  0.00  0.00    +0.000 OA
ATOM      9  C   UNL     1      45.409   2.642   8.556  0.00  0.00    +0.000 C 
ATOM     10  N   UNL     1      45.226   3.986   8.769  0.00  0.00    +0.000 N 
ATOM     11  H   UNL     1      45.619   4.655   8.124  0.00  0.00    +0.000 HD
BRANCH   9  12
ATOM     12  C   UNL     1      46.335   2.310   7.504  0.00  0.00    +0.000 A 
ATOM     13  C   UNL     1      47.199   1.250   7.311  0.00  0.00    +0.000 A 
ATOM     14  N   UNL     1      47.889   1.370   6.133  0.00  0.00    +0.000 NA
ATOM     15  C   UNL     1      47.451   2.482   5.591  0.00  0.00    +0.000 A 
ATOM     16  N   UNL     1      46.510   3.081   6.375  0.00  0.00    +0.000 N 
ATOM     17  H   UNL     1      46.019   3.943   6.178  0.00  0.00    +0.000 HD
ENDBRANCH   9  12
ENDBRANCH   7  10
ENDBRANCH   1   7
BRANCH   4  18
ATOM     18  C   UNL     1      46.942   8.119  13.500  0.00  0.00    +0.000 C 
BRANCH  18  19
ATOM     19  N   UNL     1      47.446   7.409  14.649  0.00  0.00    +0.000 N 
ATOM     20  C   UNL     1      48.705   6.863  14.663  0.00  0.00    +0.000 C 
ATOM     21  O   UNL     1      49.483   6.995  13.722  0.00  0.00    +0.000 OA
ATOM     22  H   UNL     1      46.758   7.088  15.322  0.00  0.00    +0.000 HD
BRANCH  20  23
ATOM     23  C   UNL     1      49.098   6.165  15.895  0.00  0.00    +0.000 A 
ATOM     24  C   UNL     1      50.210   6.595  16.608  0.00  0.00    +0.000 A 
ATOM     25  S   UNL     1      50.477   5.719  18.049  0.00  0.00    +0.000 S 
ATOM     26  C   UNL     1      49.151   4.700  17.742  0.00  0.00    +0.000 A 
ATOM     27  N   UNL     1      48.826   3.695  18.599  0.00  0.00    +0.000 NA
ATOM     28  C   UNL     1      47.820   2.978  18.224  0.00  0.00    +0.000 A 
ATOM     29  N   UNL     1      47.107   3.176  17.071  0.00  0.00    +0.000 N 
ATOM     30  C   UNL     1      47.381   4.192  16.189  0.00  0.00    +0.000 A 
ATOM     31  O   UNL     1      46.701   4.362  15.183  0.00  0.00    +0.000 OA
ATOM     32  C   UNL     1      48.507   5.027  16.562  0.00  0.00    +0.000 A 
ATOM     33  H   UNL     1      46.326   2.581  16.836  0.00  0.00    +0.000 HD
ENDBRANCH  20  23
ENDBRANCH  18  19
ENDBRANCH   4  18
TORSDOF 6
ENDMDL
MODEL 2
REMARK VINA RESULT:    -7.774      1.115      1.282
REMARK INTER + INTRA:         -11.634
REMARK INTER:                 -11.014
REMARK INTRA:                  -0.620
REMARK UNBOUND:                -1.134
REMARK  Name = 
REMARK  6 active torsions:
REMARK  status: ('A' for Active; 'I' for Inactive)
REMARK    1  A    between atoms: C_2  and  C_25
REMARK    2  A    between atoms: N_3  and  C_4
REMARK    3  A    between atoms: C_4  and  C_5
REMARK    4  A    between atoms: C_8  and  C_9
REMARK    5  A    between atoms: C_9  and  N_10
REMARK    6  A    between atoms: C_11  and  C_13
REMARK                            x       y       z     vdW  Elec       q    Type
REMARK                         _______ _______ _______ _____ _____    ______ ____
ROOT
ATOM      1  C   UNL     1      44.782   5.013  11.091  0.00  0.00    +0.000 A 
ATOM      2  C   UNL     1      44.694   6.398  10.893  0.00  0.00    +0.000 A 
ATOM      3  C   UNL     1      45.484   7.280  11.640  0.00  0.00    +0.000 A 
ATOM      4  C   UNL     1      46.395   6.793  12.587  0.00  0.00    +0.000 A 
ATOM      5  C   UNL     1      46.476   5.410  12.792  0.00  0.00    +0.000 A 
ATOM      6  C   UNL     1      45.687   4.529  12.044  0.00  0.00    +0.000 A 
ENDROOT
BRANCH   1   7
ATOM      7  C   UNL     1      43.947   4.065  10.268  0.00  0.00    +0.000 C 
BRANCH   7  10
ATOM      8  O   UNL     1      45.529   4.661   8.041  0.00  0.00    +0.000 OA
ATOM      9  C   UNL     1      45.526   3.511   8.470  0.00  0.00    +0.000 C 
ATOM     10  N   UNL     1      44.776   3.126   9.553  0.00  0.00    +0.000 N 
ATOM     11  H   UNL     1      44.913   2.211   9.958  0.00  0.00    +0.000 HD
BRANCH   9  12
ATOM     12  C   UNL     1      46.327   2.471   7.878  0.00  0.00    +0.000 A 
ATOM     13  C   UNL     1      47.401   2.490   7.008  0.00  0.00    +0.000 A 
ATOM     14  N   UNL     1      47.841   1.223   6.725  0.00  0.00    +0.000 NA
ATOM     15  C   UNL     1      47.063   0.426   7.418  0.00  0.00    +0.000 A 
ATOM     16  N   UNL     1      46.140   1.130   8.134  0.00  0.00    +0.000 N 
ATOM     17  H   UNL     1      45.431   0.748   8.746  0.00  0.00    +0.000 HD
ENDBRANCH   9  12
ENDBRANCH   7  10
ENDBRANCH   1   7
BRANCH   4  18
ATOM     18  C   UNL     1      47.244   7.738  13.401  0.00  0.00    +0.000 C 
BRANCH  18  19
ATOM     19  N   UNL     1      47.584   7.162  14.678  0.00  0.00    +0.000 N 
ATOM     20  C   UNL     1      48.871   6.797  14.983  0.00  0.00    +0.000 C 
ATOM     21  O   UNL     1      49.804   6.987  14.208  0.00  0.00    +0.000 OA
ATOM     22  H   UNL     1      46.817   6.784  15.224  0.00  0.00    +0.000 HD
BRANCH  20  23
ATOM     23  C   UNL     1      49.085   6.222  16.319  0.00  0.00    +0.000 A 
ATOM     24  C   UNL     1      49.901   6.879  17.230  0.00  0.00    +0.000 A 
ATOM     25  S   UNL     1      49.979   6.112  18.754  0.00  0.00    +0.000 S 
ATOM     26  C   UNL     1      48.970   4.846  18.230  0.00  0.00    +0.000 A 
ATOM     27  N   UNL     1      48.642   3.822  19.063  0.00  0.00    +0.000 NA
ATOM     28  C   UNL     1      47.900   2.913  18.524  0.00  0.00    +0.000 A 
ATOM     29  N   UNL     1      47.453   2.937  17.229  0.00  0.00    +0.000 N 
ATOM     30  C   UNL     1      47.736   3.963  16.361  0.00  0.00    +0.000 A 
ATOM     31  O   UNL     1      47.291   3.970  15.218  0.00  0.00    +0.000 OA
ATOM     32  C   UNL     1      48.572   5.011  16.915  0.00  0.00    +0.000 A 
ATOM     33  H   UNL     1      46.871   2.196  16.868  0.00  0.00    +0.000 HD
ENDBRANCH  20  23
ENDBRANCH  18  19
ENDBRANCH   4  18
TORSDOF 6
ENDMDL
MODEL 3
REMARK VINA RESULT:    -7.677      2.398      2.834
REMARK INTER + INTRA:         -11.504
REMARK INTER:                 -10.505
REMARK INTRA:                  -0.999
REMARK UNBOUND:                -1.134
REMARK  Name = 
REMARK  6 active torsions:
REMARK  status: ('A' for Active; 'I' for Inactive)
REMARK    1  A    between atoms: C_2  and  C_25
REMARK    2  A    between atoms: N_3  and  C_4
REMARK    3  A    between atoms: C_4  and  C_5
REMARK    4  A    between atoms: C_8  and  C_9
REMARK    5  A    between atoms: C_9  and  N_10
REMARK    6  A    between atoms: C_11  and  C_13
REMARK                            x       y       z     vdW  Elec       q    Type
REMARK                         _______ _______ _______ _____ _____    ______ ____
ROOT
ATOM      1  C   UNL     1      45.293   4.979  11.522  0.00  0.00    +0.000 A 
ATOM      2  C   UNL     1      45.633   6.281  11.131  0.00  0.00    +0.000 A 
ATOM      3  C   UNL     1      46.517   7.051  11.896  0.00  0.00    +0.000 A 
ATOM      4  C   UNL     1      47.097   6.525  13.058  0.00  0.00    +0.000 A 
ATOM      5  C   UNL     1      46.748   5.227  13.455  0.00  0.00    +0.000 A 
ATOM      6  C   UNL     1      45.866   4.459  12.689  0.00  0.00    +0.000 A 
ENDROOT
BRANCH   1   7
ATOM      7  C   UNL     1      44.358   4.144  10.683  0.00  0.00    +0.000 C 
BRANCH   7  10
ATOM      8  O   UNL     1      45.298   4.562   8.083  0.00  0.00    +0.000 OA
ATOM      9  C   UNL     1      45.514   3.479   8.620  0.00  0.00    +0.000 C 
ATOM     10  N   UNL     1      45.086   3.184   9.891  0.00  0.00    +0.000 N 
ATOM     11  H   UNL     1      45.407   2.342  10.346  0.00  0.00    +0.000 HD
BRANCH   9  12
ATOM     12  C   UNL     1      46.254   2.433   7.964  0.00  0.00    +0.000 A 
ATOM     13  C   UNL     1      47.270   2.443   7.028  0.00  0.00    +0.000 A 
ATOM     14  N   UNL     1      47.665   1.172   6.700  0.00  0.00    +0.000 NA
ATOM     15  C   UNL     1      46.917   0.380   7.431  0.00  0.00    +0.000 A 
ATOM     16  N   UNL     1      46.056   1.092   8.214  0.00  0.00    +0.000 N 
ATOM     17  H   UNL     1      45.381   0.715   8.866  0.00  0.00    +0.000 HD
ENDBRANCH   9  12
ENDBRANCH   7  10
ENDBRANCH   1   7
BRANCH   4  18
ATOM     18  C   UNL     1      48.045   7.351  13.892  0.00  0.00    +0.000 C 
BRANCH  18  19
ATOM     19  N   UNL     1      47.953   6.999  15.287  0.00  0.00    +0.000 N 
ATOM     20  C   UNL     1      49.042   6.548  15.989  0.00  0.00    +0.000 C 
ATOM     21  O   UNL     1      50.157   6.469  15.482  0.00  0.00    +0.000 OA
ATOM     22  H   UNL     1      47.021   6.830  15.652  0.00  0.00    +0.000 HD
BRANCH  20  23
ATOM     23  C   UNL     1      48.815   6.223  17.404  0.00  0.00    +0.000 A 
ATOM     24  C   UNL     1      49.084   4.943  17.871  0.00  0.00    +0.000 A 
ATOM     25  S   UNL     1      48.836   4.762  19.550  0.00  0.00    +0.000 S 
ATOM     26  C   UNL     1      48.306   6.370  19.702  0.00  0.00    +0.000 A 
ATOM     27  N   UNL     1      47.916   6.869  20.906  0.00  0.00    +0.000 NA
ATOM     28  C   UNL     1      47.505   8.092  20.869  0.00  0.00    +0.000 A 
ATOM     29  N   UNL     1      47.450   8.864  19.737  0.00  0.00    +0.000 N 
ATOM     30  C   UNL     1      47.858   8.412  18.506  0.00  0.00    +0.000 A 
ATOM     31  O   UNL     1      47.829   9.141  17.520  0.00  0.00    +0.000 OA
ATOM     32  C   UNL     1      48.327   7.040  18.491  0.00  0.00    +0.000 A 
ATOM     33  H   UNL     1      47.121   9.817  19.776  0.00  0.00    +0.000 HD
ENDBRANCH  20  23
ENDBRANCH  18  19
ENDBRANCH   4  18
TORSDOF 6
ENDMDL
MODEL 4
REMARK VINA RESULT:    -7.142      1.643      2.077
REMARK INTER + INTRA:         -10.781
REMARK INTER:                  -9.991
REMARK INTRA:                  -0.789
REMARK UNBOUND:                -1.134
REMARK  Name = 
REMARK  6 active torsions:
REMARK  status: ('A' for Active; 'I' for Inactive)
REMARK    1  A    between atoms: C_2  and  C_25
REMARK    2  A    between atoms: N_3  and  C_4
REMARK    3  A    between atoms: C_4  and  C_5
REMARK    4  A    between atoms: C_8  and  C_9
REMARK    5  A    between atoms: C_9  and  N_10
REMARK    6  A    between atoms: C_11  and  C_13
REMARK                            x       y       z     vdW  Elec       q    Type
REMARK                         _______ _______ _______ _____ _____    ______ ____
ROOT
ATOM      1  C   UNL     1      45.042   4.989  10.547  0.00  0.00    +0.000 A 
ATOM      2  C   UNL     1      44.729   4.743  11.891  0.00  0.00    +0.000 A 
ATOM      3  C   UNL     1      45.410   5.406  12.918  0.00  0.00    +0.000 A 
ATOM      4  C   UNL     1      46.405   6.347  12.622  0.00  0.00    +0.000 A 
ATOM      5  C   UNL     1      46.726   6.585  11.279  0.00  0.00    +0.000 A 
ATOM      6  C   UNL     1      46.044   5.923  10.253  0.00  0.00    +0.000 A 
ENDROOT
BRANCH   1   7
ATOM      7  C   UNL     1      44.291   4.290   9.443  0.00  0.00    +0.000 C 
BRANCH   7  10
ATOM      8  O   UNL     1      45.627   1.838   9.292  0.00  0.00    +0.000 OA
ATOM      9  C   UNL     1      45.790   2.654   8.389  0.00  0.00    +0.000 C 
ATOM     10  N   UNL     1      45.181   3.884   8.382  0.00  0.00    +0.000 N 
ATOM     11  H   UNL     1      45.227   4.463   7.556  0.00  0.00    +0.000 HD
BRANCH   9  12
ATOM     12  C   UNL     1      46.625   2.378   7.249  0.00  0.00    +0.000 A 
ATOM     13  C   UNL     1      47.588   1.419   6.998  0.00  0.00    +0.000 A 
ATOM     14  N   UNL     1      48.120   1.557   5.742  0.00  0.00    +0.000 NA
ATOM     15  C   UNL     1      47.489   2.578   5.212  0.00  0.00    +0.000 A 
ATOM     16  N   UNL     1      46.575   3.102   6.078  0.00  0.00    +0.000 N 
ATOM     17  H   UNL     1      45.962   3.888   5.906  0.00  0.00    +0.000 HD
ENDBRANCH   9  12
ENDBRANCH   7  10
ENDBRANCH   1   7
BRANCH   4  18
ATOM     18  C   UNL     1      47.149   7.061  13.724  0.00  0.00    +0.000 C 
BRANCH  18  19
ATOM     19  N   UNL     1      47.258   6.233  14.898  0.00  0.00    +0.000 N 
ATOM     20  C   UNL     1      48.468   5.990  15.498  0.00  0.00    +0.000 C 
ATOM     21  O   UNL     1      49.508   6.504  15.098  0.00  0.00    +0.000 OA
ATOM     22  H   UNL     1      46.473   5.622  15.098  0.00  0.00    +0.000 HD
BRANCH  20  23
ATOM     23  C   UNL     1      48.442   5.130  16.690  0.00  0.00    +0.000 A 
ATOM     24  C   UNL     1      48.241   3.762  16.550  0.00  0.00    +0.000 A 
ATOM     25  S   UNL     1      48.316   2.907  18.025  0.00  0.00    +0.000 S 
ATOM     26  C   UNL     1      48.563   4.340  18.908  0.00  0.00    +0.000 A 
ATOM     27  N   UNL     1      48.696   4.315  20.262  0.00  0.00    +0.000 NA
ATOM     28  C   UNL     1      48.842   5.477  20.805  0.00  0.00    +0.000 A 
ATOM     29  N   UNL     1      48.871   6.662  20.117  0.00  0.00    +0.000 N 
ATOM     30  C   UNL     1      48.768   6.734  18.750  0.00  0.00    +0.000 A 
ATOM     31  O   UNL     1      48.833   7.809  18.163  0.00  0.00    +0.000 OA
ATOM     32  C   UNL     1      48.598   5.454  18.089  0.00  0.00    +0.000 A 
ATOM     33  H   UNL     1      48.992   7.539  20.602  0.00  0.00    +0.000 HD
ENDBRANCH  20  23
ENDBRANCH  18  19
ENDBRANCH   4  18
TORSDOF 6
ENDMDL
MODEL 5
REMARK VINA RESULT:    -6.767      1.906      2.362
REMARK INTER + INTRA:         -10.274
REMARK INTER:                  -9.679
REMARK INTRA:                  -0.595
REMARK UNBOUND:                -1.134
REMARK  Name = 
REMARK  6 active torsions:
REMARK  status: ('A' for Active; 'I' for Inactive)
REMARK    1  A    between atoms: C_2  and  C_25
REMARK    2  A    between atoms: N_3  and  C_4
REMARK    3  A    between atoms: C_4  and  C_5
REMARK    4  A    between atoms: C_8  and  C_9
REMARK    5  A    between atoms: C_9  and  N_10
REMARK    6  A    between atoms: C_11  and  C_13
REMARK                            x       y       z     vdW  Elec       q    Type
REMARK                         _______ _______ _______ _____ _____    ______ ____
ROOT
ATOM      1  C   UNL     1      44.604   4.626  11.758  0.00  0.00    +0.000 A 
ATOM      2  C   UNL     1      44.097   5.865  11.344  0.00  0.00    +0.000 A 
ATOM      3  C   UNL     1      44.631   7.059  11.842  0.00  0.00    +0.000 A 
ATOM      4  C   UNL     1      45.699   7.040  12.749  0.00  0.00    +0.000 A 
ATOM      5  C   UNL     1      46.198   5.801  13.172  0.00  0.00    +0.000 A 
ATOM      6  C   UNL     1      45.665   4.608  12.673  0.00  0.00    +0.000 A 
ENDROOT
BRANCH   1   7
ATOM      7  C   UNL     1      44.042   3.342  11.203  0.00  0.00    +0.000 C 
BRANCH   7  10
ATOM      8  O   UNL     1      44.274   3.967   8.487  0.00  0.00    +0.000 OA
ATOM      9  C   UNL     1      45.009   3.104   8.958  0.00  0.00    +0.000 C 
ATOM     10  N   UNL     1      44.962   2.727  10.277  0.00  0.00    +0.000 N 
ATOM     11  H   UNL     1      45.677   2.121  10.652  0.00  0.00    +0.000 HD
BRANCH   9  12
ATOM     12  C   UNL     1      45.999   2.425   8.162  0.00  0.00    +0.000 A 
ATOM     13  C   UNL     1      46.989   2.872   7.308  0.00  0.00    +0.000 A 
ATOM     14  N   UNL     1      47.698   1.830   6.770  0.00  0.00    +0.000 NA
ATOM     15  C   UNL     1      47.168   0.748   7.291  0.00  0.00    +0.000 A 
ATOM     16  N   UNL     1      46.146   1.054   8.140  0.00  0.00    +0.000 N 
ATOM     17  H   UNL     1      45.581   0.401   8.666  0.00  0.00    +0.000 HD
ENDBRANCH   9  12
ENDBRANCH   7  10
ENDBRANCH   1   7
BRANCH   4  18
ATOM     18  C   UNL     1      46.274   8.323  13.296  0.00  0.00    +0.000 C 
BRANCH  18  19
ATOM     19  N   UNL     1      47.485   8.075  14.037  0.00  0.00    +0.000 N 
ATOM     20  C   UNL     1      48.710   8.034  13.421  0.00  0.00    +0.000 C 
ATOM     21  O   UNL     1      48.844   8.255  12.221  0.00  0.00    +0.000 OA
ATOM     22  H   UNL     1      47.378   7.664  14.958  0.00  0.00    +0.000 HD
BRANCH  20  23
ATOM     23  C   UNL     1      49.867   7.774  14.289  0.00  0.00    +0.000 A 
ATOM     24  C   UNL     1      51.075   8.413  14.040  0.00  0.00    +0.000 A 
ATOM     25  S   UNL     1      52.287   8.053  15.187  0.00  0.00    +0.000 S 
ATOM     26  C   UNL     1      51.258   6.988  16.023  0.00  0.00    +0.000 A 
ATOM     27  N   UNL     1      51.689   6.316  17.125  0.00  0.00    +0.000 NA
ATOM     28  C   UNL     1      50.816   5.516  17.638  0.00  0.00    +0.000 A 
ATOM     29  N   UNL     1      49.549   5.328  17.152  0.00  0.00    +0.000 N 
ATOM     30  C   UNL     1      49.061   6.003  16.060  0.00  0.00    +0.000 A 
ATOM     31  O   UNL     1      47.908   5.837  15.673  0.00  0.00    +0.000 OA
ATOM     32  C   UNL     1      50.004   6.915  15.442  0.00  0.00    +0.000 A 
ATOM     33  H   UNL     1      48.911   4.688  17.602  0.00  0.00    +0.000 HD
ENDBRANCH  20  23
ENDBRANCH  18  19
ENDBRANCH   4  18
TORSDOF 6
ENDMDL
MODEL 6
REMARK VINA RESULT:    -6.623      1.902      2.553
REMARK INTER + INTRA:         -10.079
REMARK INTER:                  -9.305
REMARK INTRA:                  -0.775
REMARK UNBOUND:                -1.134
REMARK  Name = 
REMARK  6 active torsions:
REMARK  status: ('A' for Active; 'I' for Inactive)
REMARK    1  A    between atoms: C_2  and  C_25
REMARK    2  A    between atoms: N_3  and  C_4
REMARK    3  A    between atoms: C_4  and  C_5
REMARK    4  A    between atoms: C_8  and  C_9
REMARK    5  A    between atoms: C_9  and  N_10
REMARK    6  A    between atoms: C_11  and  C_13
REMARK                            x       y       z     vdW  Elec       q    Type
REMARK                         _______ _______ _______ _____ _____    ______ ____
ROOT
ATOM      1  C   UNL     1      45.332   5.524  11.385  0.00  0.00    +0.000 A 
ATOM      2  C   UNL     1      45.552   6.899  11.224  0.00  0.00    +0.000 A 
ATOM      3  C   UNL     1      46.374   7.601  12.113  0.00  0.00    +0.000 A 
ATOM      4  C   UNL     1      47.011   6.938  13.171  0.00  0.00    +0.000 A 
ATOM      5  C   UNL     1      46.782   5.566  13.338  0.00  0.00    +0.000 A 
ATOM      6  C   UNL     1      45.962   4.865  12.449  0.00  0.00    +0.000 A 
ENDROOT
BRANCH   1   7
ATOM      7  C   UNL     1      44.465   4.766  10.412  0.00  0.00    +0.000 C 
BRANCH   7  10
ATOM      8  O   UNL     1      44.395   2.074   9.655  0.00  0.00    +0.000 OA
ATOM      9  C   UNL     1      45.150   2.835   9.057  0.00  0.00    +0.000 C 
ATOM     10  N   UNL     1      45.256   4.169   9.364  0.00  0.00    +0.000 N 
ATOM     11  H   UNL     1      45.779   4.784   8.757  0.00  0.00    +0.000 HD
BRANCH   9  12
ATOM     12  C   UNL     1      45.979   2.389   7.968  0.00  0.00    +0.000 A 
ATOM     13  C   UNL     1      46.654   1.210   7.720  0.00  0.00    +0.000 A 
ATOM     14  N   UNL     1      47.320   1.253   6.522  0.00  0.00    +0.000 NA
ATOM     15  C   UNL     1      47.054   2.437   6.024  0.00  0.00    +0.000 A 
ATOM     16  N   UNL     1      46.246   3.156   6.853  0.00  0.00    +0.000 N 
ATOM     17  H   UNL     1      45.896   4.092   6.694  0.00  0.00    +0.000 HD
ENDBRANCH   9  12
ENDBRANCH   7  10
ENDBRANCH   1   7
BRANCH   4  18
ATOM     18  C   UNL     1      47.892   7.690  14.137  0.00  0.00    +0.000 C 
BRANCH  18  19
ATOM     19  N   UNL     1      48.396   6.818  15.168  0.00  0.00    +0.000 N 
ATOM     20  C   UNL     1      48.633   7.270  16.441  0.00  0.00    +0.000 C 
ATOM     21  O   UNL     1      48.381   8.423  16.781  0.00  0.00    +0.000 OA
ATOM     22  H   UNL     1      48.827   5.953  14.860  0.00  0.00    +0.000 HD
BRANCH  20  23
ATOM     23  C   UNL     1      49.146   6.281  17.399  0.00  0.00    +0.000 A 
ATOM     24  C   UNL     1      48.298   5.748  18.362  0.00  0.00    +0.000 A 
ATOM     25  S   UNL     1      49.038   4.561  19.341  0.00  0.00    +0.000 S 
ATOM     26  C   UNL     1      50.531   4.758  18.550  0.00  0.00    +0.000 A 
ATOM     27  N   UNL     1      51.621   4.034  18.920  0.00  0.00    +0.000 NA
ATOM     28  C   UNL     1      52.695   4.311  18.259  0.00  0.00    +0.000 A 
ATOM     29  N   UNL     1      52.777   5.244  17.258  0.00  0.00    +0.000 N 
ATOM     30  C   UNL     1      51.698   5.979  16.833  0.00  0.00    +0.000 A 
ATOM     31  O   UNL     1      51.798   6.782  15.911  0.00  0.00    +0.000 OA
ATOM     32  C   UNL     1      50.464   5.709  17.547  0.00  0.00    +0.000 A 
ATOM     33  H   UNL     1      53.648   5.412  16.776  0.00  0.00    +0.000 HD
ENDBRANCH  20  23
ENDBRANCH  18  19
ENDBRANCH   4  18
TORSDOF 6
ENDMDL
MODEL 7
REMARK VINA RESULT:    -6.445      1.423      1.886
REMARK INTER + INTRA:          -9.839
REMARK INTER:                  -8.775
REMARK INTRA:                  -1.064
REMARK UNBOUND:                -1.134
REMARK  Name = 
REMARK  6 active torsions:
REMARK  status: ('A' for Active; 'I' for Inactive)
REMARK    1  A    between atoms: C_2  and  C_25
REMARK    2  A    between atoms: N_3  and  C_4
REMARK    3  A    between atoms: C_4  and  C_5
REMARK    4  A    between atoms: C_8  and  C_9
REMARK    5  A    between atoms: C_9  and  N_10
REMARK    6  A    between atoms: C_11  and  C_13
REMARK                            x       y       z     vdW  Elec       q    Type
REMARK                         _______ _______ _______ _____ _____    ______ ____
ROOT
ATOM      1  C   UNL     1      45.702   6.934  11.801  0.00  0.00    +0.000 A 
ATOM      2  C   UNL     1      45.364   8.036  12.598  0.00  0.00    +0.000 A 
ATOM      3  C   UNL     1      46.337   8.696  13.358  0.00  0.00    +0.000 A 
ATOM      4  C   UNL     1      47.675   8.279  13.320  0.00  0.00    +0.000 A 
ATOM      5  C   UNL     1      48.011   7.171  12.532  0.00  0.00    +0.000 A 
ATOM      6  C   UNL     1      47.038   6.513  11.771  0.00  0.00    +0.000 A 
ENDROOT
BRANCH   1   7
ATOM      7  C   UNL     1      44.656   6.241  10.965  0.00  0.00    +0.000 C 
BRANCH   7  10
ATOM      8  O   UNL     1      43.519   3.810  10.180  0.00  0.00    +0.000 OA
ATOM      9  C   UNL     1      44.619   4.118   9.731  0.00  0.00    +0.000 C 
ATOM     10  N   UNL     1      45.256   5.287  10.065  0.00  0.00    +0.000 N 
ATOM     11  H   UNL     1      46.087   5.566   9.564  0.00  0.00    +0.000 HD
BRANCH   9  12
ATOM     12  C   UNL     1      45.326   3.279   8.798  0.00  0.00    +0.000 A 
ATOM     13  C   UNL     1      45.576   1.922   8.755  0.00  0.00    +0.000 A 
ATOM     14  N   UNL     1      46.305   1.579   7.645  0.00  0.00    +0.000 NA
ATOM     15  C   UNL     1      46.496   2.704   6.998  0.00  0.00    +0.000 A 
ATOM     16  N   UNL     1      45.920   3.756   7.648  0.00  0.00    +0.000 N 
ATOM     17  H   UNL     1      45.923   4.723   7.353  0.00  0.00    +0.000 HD
ENDBRANCH   9  12
ENDBRANCH   7  10
ENDBRANCH   1   7
BRANCH   4  18
ATOM     18  C   UNL     1      48.727   8.980  14.142  0.00  0.00    +0.000 C 
BRANCH  18  19
ATOM     19  N   UNL     1      49.035   8.235  15.337  0.00  0.00    +0.000 N 
ATOM     20  C   UNL     1      50.223   7.564  15.481  0.00  0.00    +0.000 C 
ATOM     21  O   UNL     1      51.103   7.605  14.626  0.00  0.00    +0.000 OA
ATOM     22  H   UNL     1      48.253   7.994  15.936  0.00  0.00    +0.000 HD
BRANCH  20  23
ATOM     23  C   UNL     1      50.414   6.843  16.748  0.00  0.00    +0.000 A 
ATOM     24  C   UNL     1      51.456   7.199  17.594  0.00  0.00    +0.000 A 
ATOM     25  S   UNL     1      51.486   6.310  19.051  0.00  0.00    +0.000 S 
ATOM     26  C   UNL     1      50.142   5.381  18.578  0.00  0.00    +0.000 A 
ATOM     27  N   UNL     1      49.648   4.403  19.383  0.00  0.00    +0.000 NA
ATOM     28  C   UNL     1      48.650   3.754  18.883  0.00  0.00    +0.000 A 
ATOM     29  N   UNL     1      48.098   3.997  17.652  0.00  0.00    +0.000 N 
ATOM     30  C   UNL     1      48.546   4.992  16.817  0.00  0.00    +0.000 A 
ATOM     31  O   UNL     1      48.007   5.205  15.736  0.00  0.00    +0.000 OA
ATOM     32  C   UNL     1      49.671   5.750  17.330  0.00  0.00    +0.000 A 
ATOM     33  H   UNL     1      47.314   3.456  17.319  0.00  0.00    +0.000 HD
ENDBRANCH  20  23
ENDBRANCH  18  19
ENDBRANCH   4  18
TORSDOF 6
ENDMDL
MODEL 8
REMARK VINA RESULT:    -6.222      2.599      3.857
REMARK INTER + INTRA:          -9.538
REMARK INTER:                  -8.550
REMARK INTRA:                  -0.987
REMARK UNBOUND:                -1.134
REMARK  Name = 
REMARK  6 active torsions:
REMARK  status: ('A' for Active; 'I' for Inactive)
REMARK    1  A    between atoms: C_2  and  C_25
REMARK    2  A    between atoms: N_3  and  C_4
REMARK    3  A    between atoms: C_4  and  C_5
REMARK    4  A    between atoms: C_8  and  C_9
REMARK    5  A    between atoms: C_9  and  N_10
REMARK    6  A    between atoms: C_11  and  C_13
REMARK                            x       y       z     vdW  Elec       q    Type
REMARK                         _______ _______ _______ _____ _____    ______ ____
ROOT
ATOM      1  C   UNL     1      46.220   7.792  12.248  0.00  0.00    +0.000 A 
ATOM      2  C   UNL     1      46.314   8.719  13.296  0.00  0.00    +0.000 A 
ATOM      3  C   UNL     1      47.498   8.850  14.031  0.00  0.00    +0.000 A 
ATOM      4  C   UNL     1      48.621   8.072  13.720  0.00  0.00    +0.000 A 
ATOM      5  C   UNL     1      48.523   7.138  12.680  0.00  0.00    +0.000 A 
ATOM      6  C   UNL     1      47.341   7.008  11.945  0.00  0.00    +0.000 A 
ENDROOT
BRANCH   1   7
ATOM      7  C   UNL     1      44.951   7.670  11.443  0.00  0.00    +0.000 C 
BRANCH   7  10
ATOM      8  O   UNL     1      43.688   5.245  12.030  0.00  0.00    +0.000 OA
ATOM      9  C   UNL     1      44.317   5.343  10.980  0.00  0.00    +0.000 C 
ATOM     10  N   UNL     1      44.973   6.491  10.612  0.00  0.00    +0.000 N 
ATOM     11  H   UNL     1      45.353   6.575   9.681  0.00  0.00    +0.000 HD
BRANCH   9  12
ATOM     12  C   UNL     1      44.402   4.259  10.036  0.00  0.00    +0.000 A 
ATOM     13  C   UNL     1      44.259   2.890  10.158  0.00  0.00    +0.000 A 
ATOM     14  N   UNL     1      44.429   2.257   8.954  0.00  0.00    +0.000 NA
ATOM     15  C   UNL     1      44.661   3.217   8.091  0.00  0.00    +0.000 A 
ATOM     16  N   UNL     1      44.648   4.441   8.692  0.00  0.00    +0.000 N 
ATOM     17  H   UNL     1      44.796   5.335   8.243  0.00  0.00    +0.000 HD
ENDBRANCH   9  12
ENDBRANCH   7  10
ENDBRANCH   1   7
BRANCH   4  18
ATOM     18  C   UNL     1      49.898   8.202  14.513  0.00  0.00    +0.000 C 
BRANCH  18  19
ATOM     19  N   UNL     1      50.227   6.965  15.175  0.00  0.00    +0.000 N 
ATOM     20  C   UNL     1      49.708   6.646  16.404  0.00  0.00    +0.000 C 
ATOM     21  O   UNL     1      48.900   7.370  16.979  0.00  0.00    +0.000 OA
ATOM     22  H   UNL     1      51.053   6.479  14.843  0.00  0.00    +0.000 HD
BRANCH  20  23
ATOM     23  C   UNL     1      50.123   5.355  16.971  0.00  0.00    +0.000 A 
ATOM     24  C   UNL     1      49.167   4.391  17.265  0.00  0.00    +0.000 A 
ATOM     25  S   UNL     1      49.829   2.928  17.845  0.00  0.00    +0.000 S 
ATOM     26  C   UNL     1      51.410   3.551  17.776  0.00  0.00    +0.000 A 
ATOM     27  N   UNL     1      52.477   2.799  18.159  0.00  0.00    +0.000 NA
ATOM     28  C   UNL     1      53.613   3.409  18.089  0.00  0.00    +0.000 A 
ATOM     29  N   UNL     1      53.780   4.702  17.668  0.00  0.00    +0.000 N 
ATOM     30  C   UNL     1      52.736   5.490  17.247  0.00  0.00    +0.000 A 
ATOM     31  O   UNL     1      52.926   6.633  16.842  0.00  0.00    +0.000 OA
ATOM     32  C   UNL     1      51.435   4.853  17.309  0.00  0.00    +0.000 A 
ATOM     33  H   UNL     1      54.697   5.121  17.632  0.00  0.00    +0.000 HD
ENDBRANCH  20  23
ENDBRANCH  18  19
ENDBRANCH   4  18
TORSDOF 6
ENDMDL
MODEL 9
REMARK VINA RESULT:    -5.894      4.270      5.828
REMARK INTER + INTRA:          -9.095
REMARK INTER:                  -8.006
REMARK INTRA:                  -1.089
REMARK UNBOUND:                -1.134
REMARK  Name = 
REMARK  6 active torsions:
REMARK  status: ('A' for Active; 'I' for Inactive)
REMARK    1  A    between atoms: C_2  and  C_25
REMARK    2  A    between atoms: N_3  and  C_4
REMARK    3  A    between atoms: C_4  and  C_5
REMARK    4  A    between atoms: C_8  and  C_9
REMARK    5  A    between atoms: C_9  and  N_10
REMARK    6  A    between atoms: C_11  and  C_13
REMARK                            x       y       z     vdW  Elec       q    Type
REMARK                         _______ _______ _______ _____ _____    ______ ____
ROOT
ATOM      1  C   UNL     1      46.297   7.365  12.391  0.00  0.00    +0.000 A 
ATOM      2  C   UNL     1      46.419   8.486  13.223  0.00  0.00    +0.000 A 
ATOM      3  C   UNL     1      47.582   8.698  13.973  0.00  0.00    +0.000 A 
ATOM      4  C   UNL     1      48.657   7.802  13.890  0.00  0.00    +0.000 A 
ATOM      5  C   UNL     1      48.530   6.675  13.067  0.00  0.00    +0.000 A 
ATOM      6  C   UNL     1      47.368   6.465  12.317  0.00  0.00    +0.000 A 
ENDROOT
BRANCH   1   7
ATOM      7  C   UNL     1      45.052   7.152  11.566  0.00  0.00    +0.000 C 
BRANCH   7  10
ATOM      8  O   UNL     1      43.792   4.663  11.757  0.00  0.00    +0.000 OA
ATOM      9  C   UNL     1      44.552   4.867  10.815  0.00  0.00    +0.000 C 
ATOM     10  N   UNL     1      45.218   6.055  10.644  0.00  0.00    +0.000 N 
ATOM     11  H   UNL     1      45.718   6.231   9.785  0.00  0.00    +0.000 HD
BRANCH   9  12
ATOM     12  C   UNL     1      44.794   3.877   9.798  0.00  0.00    +0.000 A 
ATOM     13  C   UNL     1      44.962   3.955   8.429  0.00  0.00    +0.000 A 
ATOM     14  N   UNL     1      45.175   2.719   7.877  0.00  0.00    +0.000 NA
ATOM     15  C   UNL     1      45.153   1.883   8.887  0.00  0.00    +0.000 A 
ATOM     16  N   UNL     1      44.933   2.532  10.066  0.00  0.00    +0.000 N 
ATOM     17  H   UNL     1      44.876   2.113  10.985  0.00  0.00    +0.000 HD
ENDBRANCH   9  12
ENDBRANCH   7  10
ENDBRANCH   1   7
BRANCH   4  18
ATOM     18  C   UNL     1      49.910   8.019  14.701  0.00  0.00    +0.000 C 
BRANCH  18  19
ATOM     19  N   UNL     1      51.088   7.892  13.882  0.00  0.00    +0.000 N 
ATOM     20  C   UNL     1      51.746   8.992  13.391  0.00  0.00    +0.000 C 
ATOM     21  O   UNL     1      51.396  10.136  13.665  0.00  0.00    +0.000 OA
ATOM     22  H   UNL     1      51.250   6.986  13.456  0.00  0.00    +0.000 HD
BRANCH  20  23
ATOM     23  C   UNL     1      52.935   8.726  12.569  0.00  0.00    +0.000 A 
ATOM     24  C   UNL     1      54.182   9.160  12.998  0.00  0.00    +0.000 A 
ATOM     25  S   UNL     1      55.459   8.703  11.961  0.00  0.00    +0.000 S 
ATOM     26  C   UNL     1      54.383   7.959  10.874  0.00  0.00    +0.000 A 
ATOM     27  N   UNL     1      54.835   7.369   9.735  0.00  0.00    +0.000 NA
ATOM     28  C   UNL     1      53.907   6.875   8.985  0.00  0.00    +0.000 A 
ATOM     29  N   UNL     1      52.567   6.914   9.273  0.00  0.00    +0.000 N 
ATOM     30  C   UNL     1      52.068   7.475  10.423  0.00  0.00    +0.000 A 
ATOM     31  O   UNL     1      50.865   7.462  10.666  0.00  0.00    +0.000 OA
ATOM     32  C   UNL     1      53.070   8.049  11.300  0.00  0.00    +0.000 A 
ATOM     33  H   UNL     1      51.890   6.506   8.646  0.00  0.00    +0.000 HD
ENDBRANCH  20  23
ENDBRANCH  18  19
ENDBRANCH   4  18
TORSDOF 6
ENDMDL
