MODEL 1
REMARK VINA RESULT:    -8.932      0.000      0.000
REMARK INTER + INTRA:         -12.145
REMARK INTER:                 -11.543
REMARK INTRA:                  -0.601
REMARK UNBOUND:                -0.601
REMARK  Name = 
REMARK  5 active torsions:
REMARK  status: ('A' for Active; 'I' for Inactive)
REMARK    1  A    between atoms: C_2  and  C_18
REMARK    2  A    between atoms: N_3  and  C_4
REMARK    3  A    between atoms: C_4  and  C_5
REMARK    4  A    between atoms: C_8  and  C_9
REMARK    5  A    between atoms: C_9  and  C_10
REMARK                            x       y       z     vdW  Elec       q    Type
REMARK                         _______ _______ _______ _____ _____    ______ ____
ROOT
ATOM      1  O   UNL     1      48.222   6.831  12.540  0.00  0.00    +0.000 OA
ATOM      2  C   UNL     1      47.593   6.590  13.565  0.00  0.00    +0.000 C 
ATOM      3  N   UNL     1      46.223   6.516  13.604  0.00  0.00    +0.000 N 
ATOM      4  H   UNL     1      45.756   6.509  14.503  0.00  0.00    +0.000 HD
ENDROOT
BRANCH   2   5
ATOM      5  C   UNL     1      48.271   6.310  14.838  0.00  0.00    +0.000 A 
ATOM      6  C   UNL     1      49.224   7.194  15.330  0.00  0.00    +0.000 A 
ATOM      7  S   UNL     1      49.894   6.700  16.821  0.00  0.00    +0.000 S 
ATOM      8  C   UNL     1      48.907   5.314  16.868  0.00  0.00    +0.000 A 
ATOM      9  N   UNL     1      48.955   4.447  17.917  0.00  0.00    +0.000 NA
ATOM     10  C   UNL     1      48.126   3.463  17.835  0.00  0.00    +0.000 A 
ATOM     11  N   UNL     1      47.257   3.254  16.795  0.00  0.00    +0.000 N 
ATOM     12  C   UNL     1      47.235   4.054  15.680  0.00  0.00    +0.000 A 
ATOM     13  O   UNL     1      46.560   3.742  14.702  0.00  0.00    +0.000 OA
ATOM     14  C   UNL     1      48.105   5.210  15.748  0.00  0.00    +0.000 A 
ATOM     15  H   UNL     1      46.663   2.440  16.768  0.00  0.00    +0.000 HD
ENDBRANCH   2   5
BRANCH   3  16
ATOM     16  C   UNL     1      45.396   6.851  12.478  0.00  0.00    +0.000 C 
BRANCH  16  17
ATOM     17  C   UNL     1      45.212   5.677  11.551  0.00  0.00    +0.000 A 
ATOM     18  C   UNL     1      45.619   5.773  10.215  0.00  0.00    +0.000 A 
ATOM     19  C   UNL     1      45.493   4.685   9.349  0.00  0.00    +0.000 A 
ATOM     20  C   UNL     1      44.950   3.475   9.799  0.00  0.00    +0.000 A 
ATOM     21  C   UNL     1      44.515   3.388  11.129  0.00  0.00    +0.000 A 
ATOM     22  C   UNL     1      44.631   4.481  11.993  0.00  0.00    +0.000 A 
BRANCH  20  23
ATOM     23  C   UNL     1      44.877   2.272   8.882  0.00  0.00    +0.000 C 
BRANCH  23  24
ATOM     24  C   UNL     1      45.952   2.274   7.826  0.00  0.00    +0.000 A 
ATOM     25  C   UNL     1      45.971   3.228   6.804  0.00  0.00    +0.000 A 
ATOM     26  C   UNL     1      46.907   3.125   5.780  0.00  0.00    +0.000 A 
ATOM     27  C   UNL     1      47.813   2.079   5.821  0.00  0.00    +0.000 A 
ATOM     28  N   UNL     1      47.857   1.164   6.811  0.00  0.00    +0.000 NA
ATOM     29  C   UNL     1      46.924   1.278   7.785  0.00  0.00    +0.000 A 
ENDBRANCH  23  24
ENDBRANCH  20  23
ENDBRANCH  16  17
ENDBRANCH   3  16
TORSDOF 5
ENDMDL
MODEL 2
REMARK VINA RESULT:    -8.191      1.496      2.085
REMARK INTER + INTRA:         -11.187
REMARK INTER:                 -10.493
REMARK INTRA:                  -0.694
REMARK UNBOUND:                -0.601
REMARK  Name = 
REMARK  5 active torsions:
REMARK  status: ('A' for Active; 'I' for Inactive)
REMARK    1  A    between atoms: C_2  and  C_18
REMARK    2  A    between atoms: N_3  and  C_4
REMARK    3  A    between atoms: C_4  and  C_5
REMARK    4  A    between atoms: C_8  and  C_9
REMARK    5  A    between atoms: C_9  and  C_10
REMARK                            x       y       z     vdW  Elec       q    Type
REMARK                         _______ _______ _______ _____ _____    ______ ____
ROOT
ATOM      1  O   UNL     1      48.510   6.231  13.717  0.00  0.00    +0.000 OA
ATOM      2  C   UNL     1      47.601   5.771  14.400  0.00  0.00    +0.000 C 
ATOM      3  N   UNL     1      46.282   5.831  14.030  0.00  0.00    +0.000 N 
ATOM      4  H   UNL     1      45.568   5.612  14.715  0.00  0.00    +0.000 HD
ENDROOT
BRANCH   2   5
ATOM      5  C   UNL     1      47.866   5.065  15.662  0.00  0.00    +0.000 A 
ATOM      6  C   UNL     1      47.504   3.730  15.802  0.00  0.00    +0.000 A 
ATOM      7  S   UNL     1      47.898   3.084  17.334  0.00  0.00    +0.000 S 
ATOM      8  C   UNL     1      48.593   4.555  17.836  0.00  0.00    +0.000 A 
ATOM      9  N   UNL     1      49.162   4.684  19.067  0.00  0.00    +0.000 NA
ATOM     10  C   UNL     1      49.681   5.842  19.295  0.00  0.00    +0.000 A 
ATOM     11  N   UNL     1      49.678   6.892  18.413  0.00  0.00    +0.000 N 
ATOM     12  C   UNL     1      49.043   6.833  17.198  0.00  0.00    +0.000 A 
ATOM     13  O   UNL     1      48.922   7.842  16.507  0.00  0.00    +0.000 OA
ATOM     14  C   UNL     1      48.495   5.534  16.866  0.00  0.00    +0.000 A 
ATOM     15  H   UNL     1      50.062   7.789  18.668  0.00  0.00    +0.000 HD
ENDBRANCH   2   5
BRANCH   3  16
ATOM     16  C   UNL     1      45.832   6.562  12.877  0.00  0.00    +0.000 C 
BRANCH  16  17
ATOM     17  C   UNL     1      45.464   5.642  11.741  0.00  0.00    +0.000 A 
ATOM     18  C   UNL     1      45.956   5.894  10.455  0.00  0.00    +0.000 A 
ATOM     19  C   UNL     1      45.660   5.033   9.396  0.00  0.00    +0.000 A 
ATOM     20  C   UNL     1      44.858   3.903   9.598  0.00  0.00    +0.000 A 
ATOM     21  C   UNL     1      44.342   3.667  10.880  0.00  0.00    +0.000 A 
ATOM     22  C   UNL     1      44.629   4.535  11.938  0.00  0.00    +0.000 A 
BRANCH  20  23
ATOM     23  C   UNL     1      44.593   2.930   8.468  0.00  0.00    +0.000 C 
BRANCH  23  24
ATOM     24  C   UNL     1      45.835   2.585   7.689  0.00  0.00    +0.000 A 
ATOM     25  C   UNL     1      46.243   3.345   6.589  0.00  0.00    +0.000 A 
ATOM     26  C   UNL     1      47.327   2.925   5.822  0.00  0.00    +0.000 A 
ATOM     27  C   UNL     1      47.984   1.765   6.194  0.00  0.00    +0.000 A 
ATOM     28  N   UNL     1      47.651   1.027   7.273  0.00  0.00    +0.000 NA
ATOM     29  C   UNL     1      46.583   1.449   7.991  0.00  0.00    +0.000 A 
ENDBRANCH  23  24
ENDBRANCH  20  23
ENDBRANCH  16  17
ENDBRANCH   3  16
TORSDOF 5
ENDMDL
MODEL 3
REMARK VINA RESULT:    -8.107      2.123      2.695
REMARK INTER + INTRA:         -11.079
REMARK INTER:                 -10.299
REMARK INTRA:                  -0.780
REMARK UNBOUND:                -0.601
REMARK  Name = 
REMARK  5 active torsions:
REMARK  status: ('A' for Active; 'I' for Inactive)
REMARK    1  A    between atoms: C_2  and  C_18
REMARK    2  A    between atoms: N_3  and  C_4
REMARK    3  A    between atoms: C_4  and  C_5
REMARK    4  A    between atoms: C_8  and  C_9
REMARK    5  A    between atoms: C_9  and  C_10
REMARK                            x       y       z     vdW  Elec       q    Type
REMARK                         _______ _______ _______ _____ _____    ______ ____
ROOT
ATOM      1  O   UNL     1      49.504   6.609  15.212  0.00  0.00    +0.000 OA
ATOM      2  C   UNL     1      48.502   5.974  15.523  0.00  0.00    +0.000 C 
ATOM      3  N   UNL     1      47.366   5.941  14.754  0.00  0.00    +0.000 N 
ATOM      4  H   UNL     1      46.514   5.565  15.152  0.00  0.00    +0.000 HD
ENDROOT
BRANCH   2   5
ATOM      5  C   UNL     1      48.460   5.147  16.737  0.00  0.00    +0.000 A 
ATOM      6  C   UNL     1      48.287   3.771  16.636  0.00  0.00    +0.000 A 
ATOM      7  S   UNL     1      48.271   2.983  18.152  0.00  0.00    +0.000 S 
ATOM      8  C   UNL     1      48.529   4.449  18.978  0.00  0.00    +0.000 A 
ATOM      9  N   UNL     1      48.650   4.484  20.335  0.00  0.00    +0.000 NA
ATOM     10  C   UNL     1      48.880   5.656  20.819  0.00  0.00    +0.000 A 
ATOM     11  N   UNL     1      48.991   6.805  20.078  0.00  0.00    +0.000 N 
ATOM     12  C   UNL     1      48.793   6.828  18.720  0.00  0.00    +0.000 A 
ATOM     13  O   UNL     1      48.740   7.896  18.115  0.00  0.00    +0.000 OA
ATOM     14  C   UNL     1      48.591   5.527  18.116  0.00  0.00    +0.000 A 
ATOM     15  H   UNL     1      49.127   7.700  20.520  0.00  0.00    +0.000 HD
ENDBRANCH   2   5
BRANCH   3  16
ATOM     16  C   UNL     1      47.198   6.761  13.586  0.00  0.00    +0.000 C 
BRANCH  16  17
ATOM     17  C   UNL     1      46.456   6.031  12.495  0.00  0.00    +0.000 A 
ATOM     18  C   UNL     1      46.415   6.567  11.202  0.00  0.00    +0.000 A 
ATOM     19  C   UNL     1      45.767   5.890  10.168  0.00  0.00    +0.000 A 
ATOM     20  C   UNL     1      45.138   4.661  10.404  0.00  0.00    +0.000 A 
ATOM     21  C   UNL     1      45.153   4.138  11.705  0.00  0.00    +0.000 A 
ATOM     22  C   UNL     1      45.793   4.823  12.743  0.00  0.00    +0.000 A 
BRANCH  20  23
ATOM     23  C   UNL     1      44.495   3.890   9.270  0.00  0.00    +0.000 C 
BRANCH  23  24
ATOM     24  C   UNL     1      45.484   3.066   8.488  0.00  0.00    +0.000 A 
ATOM     25  C   UNL     1      46.217   3.613   7.430  0.00  0.00    +0.000 A 
ATOM     26  C   UNL     1      47.030   2.791   6.655  0.00  0.00    +0.000 A 
ATOM     27  C   UNL     1      47.102   1.447   6.976  0.00  0.00    +0.000 A 
ATOM     28  N   UNL     1      46.447   0.888   8.014  0.00  0.00    +0.000 NA
ATOM     29  C   UNL     1      45.650   1.707   8.741  0.00  0.00    +0.000 A 
ENDBRANCH  23  24
ENDBRANCH  20  23
ENDBRANCH  16  17
ENDBRANCH   3  16
TORSDOF 5
ENDMDL
MODEL 4
REMARK VINA RESULT:    -7.893      2.409      3.778
REMARK INTER + INTRA:         -10.801
REMARK INTER:                  -9.874
REMARK INTRA:                  -0.927
REMARK UNBOUND:                -0.601
REMARK  Name = 
REMARK  5 active torsions:
REMARK  status: ('A' for Active; 'I' for Inactive)
REMARK    1  A    between atoms: C_2  and  C_18
REMARK    2  A    between atoms: N_3  and  C_4
REMARK    3  A    between atoms: C_4  and  C_5
REMARK    4  A    between atoms: C_8  and  C_9
REMARK    5  A    between atoms: C_9  and  C_10
REMARK                            x       y       z     vdW  Elec       q    Type
REMARK                         _______ _______ _______ _____ _____    ______ ____
ROOT
ATOM      1  O   UNL     1      48.742   5.665  15.558  0.00  0.00    +0.000 OA
ATOM      2  C   UNL     1      48.275   6.538  14.834  0.00  0.00    +0.000 C 
ATOM      3  N   UNL     1      47.100   6.388  14.142  0.00  0.00    +0.000 N 
ATOM      4  H   UNL     1      46.867   7.057  13.417  0.00  0.00    +0.000 HD
ENDROOT
BRANCH   2   5
ATOM      5  C   UNL     1      48.922   7.850  14.691  0.00  0.00    +0.000 A 
ATOM      6  C   UNL     1      48.979   8.720  15.774  0.00  0.00    +0.000 A 
ATOM      7  S   UNL     1      49.775  10.188  15.415  0.00  0.00    +0.000 S 
ATOM      8  C   UNL     1      50.096   9.688  13.819  0.00  0.00    +0.000 A 
ATOM      9  N   UNL     1      50.790  10.480  12.956  0.00  0.00    +0.000 NA
ATOM     10  C   UNL     1      50.990   9.957  11.795  0.00  0.00    +0.000 A 
ATOM     11  N   UNL     1      50.552   8.716  11.407  0.00  0.00    +0.000 N 
ATOM     12  C   UNL     1      49.778   7.921  12.215  0.00  0.00    +0.000 A 
ATOM     13  O   UNL     1      49.270   6.893  11.775  0.00  0.00    +0.000 OA
ATOM     14  C   UNL     1      49.574   8.437  13.553  0.00  0.00    +0.000 A 
ATOM     15  H   UNL     1      50.703   8.380  10.468  0.00  0.00    +0.000 HD
ENDBRANCH   2   5
BRANCH   3  16
ATOM     16  C   UNL     1      46.383   5.144  14.091  0.00  0.00    +0.000 C 
BRANCH  16  17
ATOM     17  C   UNL     1      45.891   4.839  12.699  0.00  0.00    +0.000 A 
ATOM     18  C   UNL     1      46.054   5.787  11.681  0.00  0.00    +0.000 A 
ATOM     19  C   UNL     1      45.641   5.511  10.376  0.00  0.00    +0.000 A 
ATOM     20  C   UNL     1      45.049   4.281  10.060  0.00  0.00    +0.000 A 
ATOM     21  C   UNL     1      44.859   3.345  11.086  0.00  0.00    +0.000 A 
ATOM     22  C   UNL     1      45.262   3.626  12.395  0.00  0.00    +0.000 A 
BRANCH  20  23
ATOM     23  C   UNL     1      44.665   3.952   8.633  0.00  0.00    +0.000 C 
BRANCH  23  24
ATOM     24  C   UNL     1      45.686   3.092   7.935  0.00  0.00    +0.000 A 
ATOM     25  C   UNL     1      46.379   3.547   6.809  0.00  0.00    +0.000 A 
ATOM     26  C   UNL     1      47.224   2.682   6.121  0.00  0.00    +0.000 A 
ATOM     27  C   UNL     1      47.368   1.389   6.594  0.00  0.00    +0.000 A 
ATOM     28  N   UNL     1      46.754   0.924   7.702  0.00  0.00    +0.000 NA
ATOM     29  C   UNL     1      45.924   1.781   8.341  0.00  0.00    +0.000 A 
ENDBRANCH  23  24
ENDBRANCH  20  23
ENDBRANCH  16  17
ENDBRANCH   3  16
TORSDOF 5
ENDMDL
MODEL 5
REMARK VINA RESULT:    -7.852      1.479      2.282
REMARK INTER + INTRA:         -10.749
REMARK INTER:                  -9.694
REMARK INTRA:                  -1.055
REMARK UNBOUND:                -0.601
REMARK  Name = 
REMARK  5 active torsions:
REMARK  status: ('A' for Active; 'I' for Inactive)
REMARK    1  A    between atoms: C_2  and  C_18
REMARK    2  A    between atoms: N_3  and  C_4
REMARK    3  A    between atoms: C_4  and  C_5
REMARK    4  A    between atoms: C_8  and  C_9
REMARK    5  A    between atoms: C_9  and  C_10
REMARK                            x       y       z     vdW  Elec       q    Type
REMARK                         _______ _______ _______ _____ _____    ______ ____
ROOT
ATOM      1  O   UNL     1      50.004   7.117  14.302  0.00  0.00    +0.000 OA
ATOM      2  C   UNL     1      49.120   7.071  15.152  0.00  0.00    +0.000 C 
ATOM      3  N   UNL     1      47.832   7.479  14.916  0.00  0.00    +0.000 N 
ATOM      4  H   UNL     1      47.203   7.600  15.701  0.00  0.00    +0.000 HD
ENDROOT
BRANCH   2   5
ATOM      5  C   UNL     1      49.367   6.519  16.491  0.00  0.00    +0.000 A 
ATOM      6  C   UNL     1      50.139   7.228  17.405  0.00  0.00    +0.000 A 
ATOM      7  S   UNL     1      50.306   6.429  18.905  0.00  0.00    +0.000 S 
ATOM      8  C   UNL     1      49.326   5.136  18.389  0.00  0.00    +0.000 A 
ATOM      9  N   UNL     1      49.031   4.097  19.218  0.00  0.00    +0.000 NA
ATOM     10  C   UNL     1      48.249   3.210  18.705  0.00  0.00    +0.000 A 
ATOM     11  N   UNL     1      47.739   3.255  17.433  0.00  0.00    +0.000 N 
ATOM     12  C   UNL     1      48.078   4.237  16.536  0.00  0.00    +0.000 A 
ATOM     13  O   UNL     1      47.732   4.155  15.360  0.00  0.00    +0.000 OA
ATOM     14  C   UNL     1      48.907   5.293  17.081  0.00  0.00    +0.000 A 
ATOM     15  H   UNL     1      47.167   2.506  17.073  0.00  0.00    +0.000 HD
ENDBRANCH   2   5
BRANCH   3  16
ATOM     16  C   UNL     1      47.435   8.129  13.697  0.00  0.00    +0.000 C 
BRANCH  16  17
ATOM     17  C   UNL     1      46.544   7.247  12.859  0.00  0.00    +0.000 A 
ATOM     18  C   UNL     1      45.460   7.806  12.172  0.00  0.00    +0.000 A 
ATOM     19  C   UNL     1      44.645   7.015  11.360  0.00  0.00    +0.000 A 
ATOM     20  C   UNL     1      44.892   5.643  11.221  0.00  0.00    +0.000 A 
ATOM     21  C   UNL     1      45.960   5.078  11.933  0.00  0.00    +0.000 A 
ATOM     22  C   UNL     1      46.769   5.868  12.755  0.00  0.00    +0.000 A 
BRANCH  20  23
ATOM     23  C   UNL     1      44.054   4.797  10.286  0.00  0.00    +0.000 C 
BRANCH  23  24
ATOM     24  C   UNL     1      44.883   3.889   9.416  0.00  0.00    +0.000 A 
ATOM     25  C   UNL     1      45.666   4.392   8.372  0.00  0.00    +0.000 A 
ATOM     26  C   UNL     1      46.322   3.512   7.515  0.00  0.00    +0.000 A 
ATOM     27  C   UNL     1      46.191   2.153   7.742  0.00  0.00    +0.000 A 
ATOM     28  N   UNL     1      45.481   1.629   8.762  0.00  0.00    +0.000 NA
ATOM     29  C   UNL     1      44.840   2.506   9.570  0.00  0.00    +0.000 A 
ENDBRANCH  23  24
ENDBRANCH  20  23
ENDBRANCH  16  17
ENDBRANCH   3  16
TORSDOF 5
ENDMDL
MODEL 6
REMARK VINA RESULT:    -7.852      2.020      2.626
REMARK INTER + INTRA:         -10.748
REMARK INTER:                 -10.623
REMARK INTRA:                  -0.126
REMARK UNBOUND:                -0.601
REMARK  Name = 
REMARK  5 active torsions:
REMARK  status: ('A' for Active; 'I' for Inactive)
REMARK    1  A    between atoms: C_2  and  C_18
REMARK    2  A    between atoms: N_3  and  C_4
REMARK    3  A    between atoms: C_4  and  C_5
REMARK    4  A    between atoms: C_8  and  C_9
REMARK    5  A    between atoms: C_9  and  C_10
REMARK                            x       y       z     vdW  Elec       q    Type
REMARK                         _______ _______ _______ _____ _____    ______ ____
ROOT
ATOM      1  O   UNL     1      46.967   4.952  13.998  0.00  0.00    +0.000 OA
ATOM      2  C   UNL     1      47.037   6.081  13.525  0.00  0.00    +0.000 C 
ATOM      3  N   UNL     1      45.941   6.775  13.076  0.00  0.00    +0.000 N 
ATOM      4  H   UNL     1      46.083   7.612  12.523  0.00  0.00    +0.000 HD
ENDROOT
BRANCH   2   5
ATOM      5  C   UNL     1      48.312   6.808  13.449  0.00  0.00    +0.000 A 
ATOM      6  C   UNL     1      48.749   7.322  12.234  0.00  0.00    +0.000 A 
ATOM      7  S   UNL     1      50.246   8.137  12.349  0.00  0.00    +0.000 S 
ATOM      8  C   UNL     1      50.332   7.856  14.026  0.00  0.00    +0.000 A 
ATOM      9  N   UNL     1      51.372   8.327  14.769  0.00  0.00    +0.000 NA
ATOM     10  C   UNL     1      51.286   8.072  16.029  0.00  0.00    +0.000 A 
ATOM     11  N   UNL     1      50.262   7.378  16.621  0.00  0.00    +0.000 N 
ATOM     12  C   UNL     1      49.239   6.814  15.900  0.00  0.00    +0.000 A 
ATOM     13  O   UNL     1      48.431   6.065  16.445  0.00  0.00    +0.000 OA
ATOM     14  C   UNL     1      49.256   7.123  14.485  0.00  0.00    +0.000 A 
ATOM     15  H   UNL     1      50.274   7.172  17.608  0.00  0.00    +0.000 HD
ENDBRANCH   2   5
BRANCH   3  16
ATOM     16  C   UNL     1      44.633   6.186  12.989  0.00  0.00    +0.000 C 
BRANCH  16  17
ATOM     17  C   UNL     1      44.577   5.104  11.941  0.00  0.00    +0.000 A 
ATOM     18  C   UNL     1      45.049   5.362  10.648  0.00  0.00    +0.000 A 
ATOM     19  C   UNL     1      45.042   4.363   9.672  0.00  0.00    +0.000 A 
ATOM     20  C   UNL     1      44.556   3.083   9.966  0.00  0.00    +0.000 A 
ATOM     21  C   UNL     1      44.056   2.833  11.252  0.00  0.00    +0.000 A 
ATOM     22  C   UNL     1      44.053   3.837  12.226  0.00  0.00    +0.000 A 
BRANCH  20  23
ATOM     23  C   UNL     1      44.613   1.978   8.932  0.00  0.00    +0.000 C 
BRANCH  23  24
ATOM     24  C   UNL     1      45.758   2.137   7.967  0.00  0.00    +0.000 A 
ATOM     25  C   UNL     1      45.841   3.235   7.105  0.00  0.00    +0.000 A 
ATOM     26  C   UNL     1      46.848   3.286   6.146  0.00  0.00    +0.000 A 
ATOM     27  C   UNL     1      47.757   2.243   6.091  0.00  0.00    +0.000 A 
ATOM     28  N   UNL     1      47.738   1.188   6.931  0.00  0.00    +0.000 NA
ATOM     29  C   UNL     1      46.739   1.156   7.843  0.00  0.00    +0.000 A 
ENDBRANCH  23  24
ENDBRANCH  20  23
ENDBRANCH  16  17
ENDBRANCH   3  16
TORSDOF 5
ENDMDL
MODEL 7
REMARK VINA RESULT:    -7.363      4.090      9.057
REMARK INTER + INTRA:         -10.117
REMARK INTER:                  -9.470
REMARK INTRA:                  -0.647
REMARK UNBOUND:                -0.601
REMARK  Name = 
REMARK  5 active torsions:
REMARK  status: ('A' for Active; 'I' for Inactive)
REMARK    1  A    between atoms: C_2  and  C_18
REMARK    2  A    between atoms: N_3  and  C_4
REMARK    3  A    between atoms: C_4  and  C_5
REMARK    4  A    between atoms: C_8  and  C_9
REMARK    5  A    between atoms: C_9  and  C_10
REMARK                            x       y       z     vdW  Elec       q    Type
REMARK                         _______ _______ _______ _____ _____    ______ ____
ROOT
ATOM      1  O   UNL     1      47.160   3.176  13.850  0.00  0.00    +0.000 OA
ATOM      2  C   UNL     1      46.742   4.221  14.339  0.00  0.00    +0.000 C 
ATOM      3  N   UNL     1      46.860   4.524  15.672  0.00  0.00    +0.000 N 
ATOM      4  H   UNL     1      46.329   5.301  16.048  0.00  0.00    +0.000 HD
ENDROOT
BRANCH   2   5
ATOM      5  C   UNL     1      46.118   5.264  13.513  0.00  0.00    +0.000 A 
ATOM      6  C   UNL     1      46.791   6.456  13.271  0.00  0.00    +0.000 A 
ATOM      7  S   UNL     1      45.909   7.537  12.286  0.00  0.00    +0.000 S 
ATOM      8  C   UNL     1      44.624   6.432  12.128  0.00  0.00    +0.000 A 
ATOM      9  N   UNL     1      43.531   6.723  11.369  0.00  0.00    +0.000 NA
ATOM     10  C   UNL     1      42.656   5.778  11.311  0.00  0.00    +0.000 A 
ATOM     11  N   UNL     1      42.762   4.569  11.948  0.00  0.00    +0.000 N 
ATOM     12  C   UNL     1      43.805   4.267  12.788  0.00  0.00    +0.000 A 
ATOM     13  O   UNL     1      43.784   3.242  13.465  0.00  0.00    +0.000 OA
ATOM     14  C   UNL     1      44.847   5.271  12.842  0.00  0.00    +0.000 A 
ATOM     15  H   UNL     1      42.022   3.886  11.899  0.00  0.00    +0.000 HD
ENDBRANCH   2   5
BRANCH   3  16
ATOM     16  C   UNL     1      47.357   3.585  16.640  0.00  0.00    +0.000 C 
BRANCH  16  17
ATOM     17  C   UNL     1      48.803   3.847  16.979  0.00  0.00    +0.000 A 
ATOM     18  C   UNL     1      49.297   5.157  16.955  0.00  0.00    +0.000 A 
ATOM     19  C   UNL     1      50.622   5.427  17.303  0.00  0.00    +0.000 A 
ATOM     20  C   UNL     1      51.486   4.390  17.677  0.00  0.00    +0.000 A 
ATOM     21  C   UNL     1      51.000   3.075  17.672  0.00  0.00    +0.000 A 
ATOM     22  C   UNL     1      49.676   2.804  17.313  0.00  0.00    +0.000 A 
BRANCH  20  23
ATOM     23  C   UNL     1      52.903   4.687  18.122  0.00  0.00    +0.000 C 
BRANCH  23  24
ATOM     24  C   UNL     1      53.690   3.443  18.440  0.00  0.00    +0.000 A 
ATOM     25  C   UNL     1      54.270   2.666  17.432  0.00  0.00    +0.000 A 
ATOM     26  C   UNL     1      54.885   1.461  17.757  0.00  0.00    +0.000 A 
ATOM     27  C   UNL     1      54.921   1.077  19.086  0.00  0.00    +0.000 A 
ATOM     28  N   UNL     1      54.413   1.818  20.093  0.00  0.00    +0.000 NA
ATOM     29  C   UNL     1      53.805   2.977  19.748  0.00  0.00    +0.000 A 
ENDBRANCH  23  24
ENDBRANCH  20  23
ENDBRANCH  16  17
ENDBRANCH   3  16
TORSDOF 5
ENDMDL
MODEL 8
REMARK VINA RESULT:    -7.117      4.155      8.674
REMARK INTER + INTRA:          -9.798
REMARK INTER:                  -8.867
REMARK INTRA:                  -0.931
REMARK UNBOUND:                -0.601
REMARK  Name = 
REMARK  5 active torsions:
REMARK  status: ('A' for Active; 'I' for Inactive)
REMARK    1  A    between atoms: C_2  and  C_18
REMARK    2  A    between atoms: N_3  and  C_4
REMARK    3  A    between atoms: C_4  and  C_5
REMARK    4  A    between atoms: C_8  and  C_9
REMARK    5  A    between atoms: C_9  and  C_10
REMARK                            x       y       z     vdW  Elec       q    Type
REMARK                         _______ _______ _______ _____ _____    ______ ____
ROOT
ATOM      1  O   UNL     1      47.236   3.204  13.877  0.00  0.00    +0.000 OA
ATOM      2  C   UNL     1      46.755   4.225  14.358  0.00  0.00    +0.000 C 
ATOM      3  N   UNL     1      46.767   4.497  15.702  0.00  0.00    +0.000 N 
ATOM      4  H   UNL     1      46.190   5.251  16.056  0.00  0.00    +0.000 HD
ENDROOT
BRANCH   2   5
ATOM      5  C   UNL     1      46.167   5.272  13.512  0.00  0.00    +0.000 A 
ATOM      6  C   UNL     1      46.896   6.418  13.213  0.00  0.00    +0.000 A 
ATOM      7  S   UNL     1      46.048   7.513  12.214  0.00  0.00    +0.000 S 
ATOM      8  C   UNL     1      44.701   6.475  12.125  0.00  0.00    +0.000 A 
ATOM      9  N   UNL     1      43.605   6.800  11.385  0.00  0.00    +0.000 NA
ATOM     10  C   UNL     1      42.680   5.903  11.380  0.00  0.00    +0.000 A 
ATOM     11  N   UNL     1      42.738   4.711  12.055  0.00  0.00    +0.000 N 
ATOM     12  C   UNL     1      43.785   4.380  12.879  0.00  0.00    +0.000 A 
ATOM     13  O   UNL     1      43.727   3.381  13.591  0.00  0.00    +0.000 OA
ATOM     14  C   UNL     1      44.881   5.327  12.873  0.00  0.00    +0.000 A 
ATOM     15  H   UNL     1      41.961   4.068  12.048  0.00  0.00    +0.000 HD
ENDBRANCH   2   5
BRANCH   3  16
ATOM     16  C   UNL     1      47.217   3.546  16.682  0.00  0.00    +0.000 C 
BRANCH  16  17
ATOM     17  C   UNL     1      48.560   3.925  17.251  0.00  0.00    +0.000 A 
ATOM     18  C   UNL     1      49.602   2.989  17.258  0.00  0.00    +0.000 A 
ATOM     19  C   UNL     1      50.865   3.330  17.745  0.00  0.00    +0.000 A 
ATOM     20  C   UNL     1      51.115   4.616  18.241  0.00  0.00    +0.000 A 
ATOM     21  C   UNL     1      50.064   5.544  18.261  0.00  0.00    +0.000 A 
ATOM     22  C   UNL     1      48.796   5.199  17.784  0.00  0.00    +0.000 A 
BRANCH  20  23
ATOM     23  C   UNL     1      52.502   5.011  18.704  0.00  0.00    +0.000 C 
BRANCH  23  24
ATOM     24  C   UNL     1      53.492   5.103  17.573  0.00  0.00    +0.000 A 
ATOM     25  C   UNL     1      54.590   4.241  17.490  0.00  0.00    +0.000 A 
ATOM     26  C   UNL     1      55.547   4.435  16.498  0.00  0.00    +0.000 A 
ATOM     27  C   UNL     1      55.366   5.476  15.604  0.00  0.00    +0.000 A 
ATOM     28  N   UNL     1      54.300   6.302  15.623  0.00  0.00    +0.000 NA
ATOM     29  C   UNL     1      53.393   6.102  16.607  0.00  0.00    +0.000 A 
ENDBRANCH  23  24
ENDBRANCH  20  23
ENDBRANCH  16  17
ENDBRANCH   3  16
TORSDOF 5
ENDMDL
MODEL 9
REMARK VINA RESULT:    -7.025      4.677      7.406
REMARK INTER + INTRA:          -9.680
REMARK INTER:                  -8.662
REMARK INTRA:                  -1.018
REMARK UNBOUND:                -0.601
REMARK  Name = 
REMARK  5 active torsions:
REMARK  status: ('A' for Active; 'I' for Inactive)
REMARK    1  A    between atoms: C_2  and  C_18
REMARK    2  A    between atoms: N_3  and  C_4
REMARK    3  A    between atoms: C_4  and  C_5
REMARK    4  A    between atoms: C_8  and  C_9
REMARK    5  A    between atoms: C_9  and  C_10
REMARK                            x       y       z     vdW  Elec       q    Type
REMARK                         _______ _______ _______ _____ _____    ______ ____
ROOT
ATOM      1  O   UNL     1      43.526   7.259  11.355  0.00  0.00    +0.000 OA
ATOM      2  C   UNL     1      44.438   6.449  11.486  0.00  0.00    +0.000 C 
ATOM      3  N   UNL     1      45.687   6.793  11.938  0.00  0.00    +0.000 N 
ATOM      4  H   UNL     1      46.445   6.129  11.841  0.00  0.00    +0.000 HD
ENDROOT
BRANCH   2   5
ATOM      5  C   UNL     1      44.243   5.018  11.215  0.00  0.00    +0.000 A 
ATOM      6  C   UNL     1      43.461   4.247  12.067  0.00  0.00    +0.000 A 
ATOM      7  S   UNL     1      43.349   2.613  11.583  0.00  0.00    +0.000 S 
ATOM      8  C   UNL     1      44.310   2.898  10.207  0.00  0.00    +0.000 A 
ATOM      9  N   UNL     1      44.586   1.902   9.319  0.00  0.00    +0.000 NA
ATOM     10  C   UNL     1      45.293   2.271   8.307  0.00  0.00    +0.000 A 
ATOM     11  N   UNL     1      45.762   3.543   8.098  0.00  0.00    +0.000 N 
ATOM     12  C   UNL     1      45.579   4.555   9.008  0.00  0.00    +0.000 A 
ATOM     13  O   UNL     1      46.150   5.633   8.864  0.00  0.00    +0.000 OA
ATOM     14  C   UNL     1      44.739   4.209  10.136  0.00  0.00    +0.000 A 
ATOM     15  H   UNL     1      46.349   3.760   7.307  0.00  0.00    +0.000 HD
ENDBRANCH   2   5
BRANCH   3  16
ATOM     16  C   UNL     1      46.081   8.157  12.162  0.00  0.00    +0.000 C 
BRANCH  16  17
ATOM     17  C   UNL     1      47.574   8.332  12.050  0.00  0.00    +0.000 A 
ATOM     18  C   UNL     1      48.416   7.218  12.164  0.00  0.00    +0.000 A 
ATOM     19  C   UNL     1      49.798   7.351  12.025  0.00  0.00    +0.000 A 
ATOM     20  C   UNL     1      50.373   8.604  11.774  0.00  0.00    +0.000 A 
ATOM     21  C   UNL     1      49.533   9.723  11.689  0.00  0.00    +0.000 A 
ATOM     22  C   UNL     1      48.149   9.591  11.839  0.00  0.00    +0.000 A 
BRANCH  20  23
ATOM     23  C   UNL     1      51.865   8.740  11.552  0.00  0.00    +0.000 C 
BRANCH  23  24
ATOM     24  C   UNL     1      52.276   8.441  10.134  0.00  0.00    +0.000 A 
ATOM     25  C   UNL     1      52.361   7.129   9.659  0.00  0.00    +0.000 A 
ATOM     26  C   UNL     1      52.860   6.887   8.382  0.00  0.00    +0.000 A 
ATOM     27  C   UNL     1      53.241   7.971   7.609  0.00  0.00    +0.000 A 
ATOM     28  N   UNL     1      53.133   9.254   8.013  0.00  0.00    +0.000 NA
ATOM     29  C   UNL     1      52.661   9.459   9.265  0.00  0.00    +0.000 A 
ENDBRANCH  23  24
ENDBRANCH  20  23
ENDBRANCH  16  17
ENDBRANCH   3  16
TORSDOF 5
ENDMDL
