MODEL 1
REMARK VINA RESULT:    -8.226      0.000      0.000
REMARK INTER + INTRA:         -13.004
REMARK INTER:                 -11.592
REMARK INTRA:                  -1.412
REMARK UNBOUND:                -1.412
REMARK  Name = 
REMARK  8 active torsions:
REMARK  status: ('A' for Active; 'I' for Inactive)
REMARK    1  A    between atoms: C_1  and  O_2
REMARK    2  A    between atoms: O_2  and  C_3
REMARK    3  A    between atoms: C_10  and  C_11
REMARK    4  A    between atoms: N_13  and  C_14
REMARK    5  A    between atoms: C_14  and  C_15
REMARK    6  A    between atoms: C_18  and  N_19
REMARK    7  A    between atoms: N_19  and  C_20
REMARK    8  A    between atoms: C_20  and  C_21
REMARK                            x       y       z     vdW  Elec       q    Type
REMARK                         _______ _______ _______ _____ _____    ______ ____
ROOT
ATOM      1  C   UNL     1      46.703   7.995  13.114  0.00  0.00    +0.000 C 
ENDROOT
BRANCH   1   2
ATOM      2  C   UNL     1      46.083   6.986  12.182  0.00  0.00    +0.000 A 
ATOM      3  C   UNL     1      46.609   6.766  10.905  0.00  0.00    +0.000 A 
ATOM      4  C   UNL     1      46.098   5.751  10.084  0.00  0.00    +0.000 A 
ATOM      5  C   UNL     1      45.057   4.929  10.526  0.00  0.00    +0.000 A 
ATOM      6  C   UNL     1      44.450   5.241  11.747  0.00  0.00    +0.000 A 
ATOM      7  C   UNL     1      44.961   6.246  12.575  0.00  0.00    +0.000 A 
BRANCH   5   8
ATOM      8  N   UNL     1      44.558   3.839   9.806  0.00  0.00    +0.000 N 
ATOM      9  H   UNL     1      43.651   3.543  10.157  0.00  0.00    +0.000 HD
BRANCH   8  10
ATOM     10  C   UNL     1      44.607   3.886   8.349  0.00  0.00    +0.000 C 
BRANCH  10  11
ATOM     11  C   UNL     1      45.722   3.000   7.842  0.00  0.00    +0.000 A 
ATOM     12  C   UNL     1      46.745   3.503   7.035  0.00  0.00    +0.000 A 
ATOM     13  C   UNL     1      47.778   2.655   6.666  0.00  0.00    +0.000 A 
ATOM     14  N   UNL     1      47.864   1.361   7.039  0.00  0.00    +0.000 NA
ATOM     15  C   UNL     1      46.866   0.889   7.814  0.00  0.00    +0.000 A 
ATOM     16  C   UNL     1      45.791   1.658   8.235  0.00  0.00    +0.000 A 
ENDBRANCH  10  11
ENDBRANCH   8  10
ENDBRANCH   5   8
ENDBRANCH   1   2
BRANCH   1  19
ATOM     17  C   UNL     1      48.457   6.785  14.339  0.00  0.00    +0.000 C 
ATOM     18  O   UNL     1      49.183   6.766  13.346  0.00  0.00    +0.000 OA
ATOM     19  N   UNL     1      47.222   7.375  14.302  0.00  0.00    +0.000 N 
ATOM     20  H   UNL     1      46.618   7.343  15.112  0.00  0.00    +0.000 HD
BRANCH  17  28
ATOM     21  C   UNL     1      47.249   4.156  16.200  0.00  0.00    +0.000 A 
ATOM     22  N   UNL     1      47.005   3.179  17.094  0.00  0.00    +0.000 NA
ATOM     23  C   UNL     1      47.809   3.086  18.156  0.00  0.00    +0.000 A 
ATOM     24  N   UNL     1      48.848   3.865  18.446  0.00  0.00    +0.000 NA
ATOM     25  C   UNL     1      49.061   4.820  17.524  0.00  0.00    +0.000 A 
ATOM     26  S   UNL     1      50.344   5.913  17.733  0.00  0.00    +0.000 S 
ATOM     27  C   UNL     1      49.965   6.710  16.280  0.00  0.00    +0.000 A 
ATOM     28  C   UNL     1      48.873   6.171  15.610  0.00  0.00    +0.000 A 
ATOM     29  C   UNL     1      48.327   5.042  16.363  0.00  0.00    +0.000 A 
BRANCH  21  31
ATOM     30  C   UNL     1      46.941   3.542  13.960  0.00  0.00    +0.000 C 
ATOM     31  O   UNL     1      46.432   4.241  15.093  0.00  0.00    +0.000 OA
ENDBRANCH  21  31
ENDBRANCH  17  28
ENDBRANCH   1  19
TORSDOF 7
ENDMDL
MODEL 2
REMARK VINA RESULT:    -7.831      1.870      3.532
REMARK INTER + INTRA:         -12.448
REMARK INTER:                 -11.135
REMARK INTRA:                  -1.313
REMARK UNBOUND:                -1.412
REMARK  Name = 
REMARK  8 active torsions:
REMARK  status: ('A' for Active; 'I' for Inactive)
REMARK    1  A    between atoms: C_1  and  O_2
REMARK    2  A    between atoms: O_2  and  C_3
REMARK    3  A    between atoms: C_10  and  C_11
REMARK    4  A    between atoms: N_13  and  C_14
REMARK    5  A    between atoms: C_14  and  C_15
REMARK    6  A    between atoms: C_18  and  N_19
REMARK    7  A    between atoms: N_19  and  C_20
REMARK    8  A    between atoms: C_20  and  C_21
REMARK                            x       y       z     vdW  Elec       q    Type
REMARK                         _______ _______ _______ _____ _____    ______ ____
ROOT
ATOM      1  C   UNL     1      46.544   4.402  14.503  0.00  0.00    +0.000 C 
ENDROOT
BRANCH   1   2
ATOM      2  C   UNL     1      46.057   4.602  13.091  0.00  0.00    +0.000 A 
ATOM      3  C   UNL     1      46.343   5.779  12.390  0.00  0.00    +0.000 A 
ATOM      4  C   UNL     1      45.982   5.915  11.042  0.00  0.00    +0.000 A 
ATOM      5  C   UNL     1      45.337   4.876  10.364  0.00  0.00    +0.000 A 
ATOM      6  C   UNL     1      44.937   3.760  11.106  0.00  0.00    +0.000 A 
ATOM      7  C   UNL     1      45.303   3.613  12.449  0.00  0.00    +0.000 A 
BRANCH   5   8
ATOM      8  N   UNL     1      45.031   4.901   9.000  0.00  0.00    +0.000 N 
ATOM      9  H   UNL     1      45.751   5.380   8.464  0.00  0.00    +0.000 HD
BRANCH   8  10
ATOM     10  C   UNL     1      44.588   3.666   8.363  0.00  0.00    +0.000 C 
BRANCH  10  11
ATOM     11  C   UNL     1      45.783   2.892   7.853  0.00  0.00    +0.000 A 
ATOM     12  C   UNL     1      45.986   1.554   8.197  0.00  0.00    +0.000 A 
ATOM     13  C   UNL     1      47.060   0.879   7.635  0.00  0.00    +0.000 A 
ATOM     14  N   UNL     1      47.932   1.435   6.768  0.00  0.00    +0.000 NA
ATOM     15  C   UNL     1      47.725   2.730   6.451  0.00  0.00    +0.000 A 
ATOM     16  C   UNL     1      46.680   3.488   6.959  0.00  0.00    +0.000 A 
ENDBRANCH  10  11
ENDBRANCH   8  10
ENDBRANCH   5   8
ENDBRANCH   1   2
BRANCH   1  19
ATOM     17  C   UNL     1      48.260   5.415  15.942  0.00  0.00    +0.000 C 
ATOM     18  O   UNL     1      48.514   4.329  16.460  0.00  0.00    +0.000 OA
ATOM     19  N   UNL     1      47.303   5.530  14.969  0.00  0.00    +0.000 N 
ATOM     20  H   UNL     1      47.072   6.437  14.585  0.00  0.00    +0.000 HD
BRANCH  17  28
ATOM     21  C   UNL     1      50.019   7.812  14.210  0.00  0.00    +0.000 A 
ATOM     22  N   UNL     1      50.723   8.880  13.788  0.00  0.00    +0.000 NA
ATOM     23  C   UNL     1      51.121   9.768  14.702  0.00  0.00    +0.000 A 
ATOM     24  N   UNL     1      50.903   9.723  16.014  0.00  0.00    +0.000 NA
ATOM     25  C   UNL     1      50.190   8.647  16.390  0.00  0.00    +0.000 A 
ATOM     26  S   UNL     1      49.822   8.420  18.032  0.00  0.00    +0.000 S 
ATOM     27  C   UNL     1      48.983   6.981  17.695  0.00  0.00    +0.000 A 
ATOM     28  C   UNL     1      48.960   6.645  16.346  0.00  0.00    +0.000 A 
ATOM     29  C   UNL     1      49.693   7.642  15.567  0.00  0.00    +0.000 A 
BRANCH  21  31
ATOM     30  C   UNL     1      49.490   7.456  11.956  0.00  0.00    +0.000 C 
ATOM     31  O   UNL     1      49.590   6.904  13.266  0.00  0.00    +0.000 OA
ENDBRANCH  21  31
ENDBRANCH  17  28
ENDBRANCH   1  19
TORSDOF 7
ENDMDL
MODEL 3
REMARK VINA RESULT:    -7.755      2.075      2.832
REMARK INTER + INTRA:         -12.340
REMARK INTER:                 -11.227
REMARK INTRA:                  -1.112
REMARK UNBOUND:                -1.412
REMARK  Name = 
REMARK  8 active torsions:
REMARK  status: ('A' for Active; 'I' for Inactive)
REMARK    1  A    between atoms: C_1  and  O_2
REMARK    2  A    between atoms: O_2  and  C_3
REMARK    3  A    between atoms: C_10  and  C_11
REMARK    4  A    between atoms: N_13  and  C_14
REMARK    5  A    between atoms: C_14  and  C_15
REMARK    6  A    between atoms: C_18  and  N_19
REMARK    7  A    between atoms: N_19  and  C_20
REMARK    8  A    between atoms: C_20  and  C_21
REMARK                            x       y       z     vdW  Elec       q    Type
REMARK                         _______ _______ _______ _____ _____    ______ ____
ROOT
ATOM      1  C   UNL     1      47.516   6.701  13.505  0.00  0.00    +0.000 C 
ENDROOT
BRANCH   1   2
ATOM      2  C   UNL     1      46.617   5.884  12.614  0.00  0.00    +0.000 A 
ATOM      3  C   UNL     1      46.216   6.362  11.361  0.00  0.00    +0.000 A 
ATOM      4  C   UNL     1      45.471   5.554  10.491  0.00  0.00    +0.000 A 
ATOM      5  C   UNL     1      45.117   4.250  10.850  0.00  0.00    +0.000 A 
ATOM      6  C   UNL     1      45.406   3.829  12.153  0.00  0.00    +0.000 A 
ATOM      7  C   UNL     1      46.158   4.626  13.023  0.00  0.00    +0.000 A 
BRANCH   5   8
ATOM      8  N   UNL     1      44.459   3.354  10.002  0.00  0.00    +0.000 N 
ATOM      9  H   UNL     1      43.500   3.195  10.301  0.00  0.00    +0.000 HD
BRANCH   8  10
ATOM     10  C   UNL     1      44.572   3.547   8.561  0.00  0.00    +0.000 C 
BRANCH  10  11
ATOM     11  C   UNL     1      45.766   2.785   8.033  0.00  0.00    +0.000 A 
ATOM     12  C   UNL     1      45.897   1.408   8.228  0.00  0.00    +0.000 A 
ATOM     13  C   UNL     1      46.978   0.755   7.653  0.00  0.00    +0.000 A 
ATOM     14  N   UNL     1      47.922   1.368   6.907  0.00  0.00    +0.000 NA
ATOM     15  C   UNL     1      47.782   2.699   6.732  0.00  0.00    +0.000 A 
ATOM     16  C   UNL     1      46.738   3.439   7.266  0.00  0.00    +0.000 A 
ENDBRANCH  10  11
ENDBRANCH   8  10
ENDBRANCH   5   8
ENDBRANCH   1   2
BRANCH   1  19
ATOM     17  C   UNL     1      48.644   6.179  15.626  0.00  0.00    +0.000 C 
ATOM     18  O   UNL     1      49.723   6.572  15.187  0.00  0.00    +0.000 OA
ATOM     19  N   UNL     1      47.511   6.214  14.857  0.00  0.00    +0.000 N 
ATOM     20  H   UNL     1      46.640   5.845  15.215  0.00  0.00    +0.000 HD
BRANCH  17  28
ATOM     21  C   UNL     1      47.944   7.619  18.672  0.00  0.00    +0.000 A 
ATOM     22  N   UNL     1      47.677   7.911  19.959  0.00  0.00    +0.000 NA
ATOM     23  C   UNL     1      47.687   6.911  20.843  0.00  0.00    +0.000 A 
ATOM     24  N   UNL     1      47.939   5.628  20.601  0.00  0.00    +0.000 NA
ATOM     25  C   UNL     1      48.192   5.379  19.304  0.00  0.00    +0.000 A 
ATOM     26  S   UNL     1      48.542   3.793  18.809  0.00  0.00    +0.000 S 
ATOM     27  C   UNL     1      48.719   4.285  17.191  0.00  0.00    +0.000 A 
ATOM     28  C   UNL     1      48.515   5.645  16.991  0.00  0.00    +0.000 A 
ATOM     29  C   UNL     1      48.208   6.300  18.262  0.00  0.00    +0.000 A 
BRANCH  21  31
ATOM     30  C   UNL     1      49.168   9.309  17.606  0.00  0.00    +0.000 C 
ATOM     31  O   UNL     1      47.915   8.647  17.753  0.00  0.00    +0.000 OA
ENDBRANCH  21  31
ENDBRANCH  17  28
ENDBRANCH   1  19
TORSDOF 7
ENDMDL
MODEL 4
REMARK VINA RESULT:    -7.562      2.283      3.269
REMARK INTER + INTRA:         -12.068
REMARK INTER:                 -11.031
REMARK INTRA:                  -1.038
REMARK UNBOUND:                -1.412
REMARK  Name = 
REMARK  8 active torsions:
REMARK  status: ('A' for Active; 'I' for Inactive)
REMARK    1  A    between atoms: C_1  and  O_2
REMARK    2  A    between atoms: O_2  and  C_3
REMARK    3  A    between atoms: C_10  and  C_11
REMARK    4  A    between atoms: N_13  and  C_14
REMARK    5  A    between atoms: C_14  and  C_15
REMARK    6  A    between atoms: C_18  and  N_19
REMARK    7  A    between atoms: N_19  and  C_20
REMARK    8  A    between atoms: C_20  and  C_21
REMARK                            x       y       z     vdW  Elec       q    Type
REMARK                         _______ _______ _______ _____ _____    ______ ____
ROOT
ATOM      1  C   UNL     1      46.566   4.532  14.447  0.00  0.00    +0.000 C 
ENDROOT
BRANCH   1   2
ATOM      2  C   UNL     1      46.069   4.692  13.033  0.00  0.00    +0.000 A 
ATOM      3  C   UNL     1      46.368   5.838  12.289  0.00  0.00    +0.000 A 
ATOM      4  C   UNL     1      45.997   5.934  10.940  0.00  0.00    +0.000 A 
ATOM      5  C   UNL     1      45.327   4.884  10.305  0.00  0.00    +0.000 A 
ATOM      6  C   UNL     1      44.915   3.801  11.089  0.00  0.00    +0.000 A 
ATOM      7  C   UNL     1      45.291   3.694  12.433  0.00  0.00    +0.000 A 
BRANCH   5   8
ATOM      8  N   UNL     1      45.008   4.867   8.944  0.00  0.00    +0.000 N 
ATOM      9  H   UNL     1      45.712   5.346   8.389  0.00  0.00    +0.000 HD
BRANCH   8  10
ATOM     10  C   UNL     1      44.584   3.607   8.344  0.00  0.00    +0.000 C 
BRANCH  10  11
ATOM     11  C   UNL     1      45.788   2.851   7.830  0.00  0.00    +0.000 A 
ATOM     12  C   UNL     1      46.016   1.517   8.179  0.00  0.00    +0.000 A 
ATOM     13  C   UNL     1      47.098   0.858   7.614  0.00  0.00    +0.000 A 
ATOM     14  N   UNL     1      47.955   1.424   6.738  0.00  0.00    +0.000 NA
ATOM     15  C   UNL     1      47.723   2.713   6.415  0.00  0.00    +0.000 A 
ATOM     16  C   UNL     1      46.669   3.456   6.927  0.00  0.00    +0.000 A 
ENDBRANCH  10  11
ENDBRANCH   8  10
ENDBRANCH   5   8
ENDBRANCH   1   2
BRANCH   1  19
ATOM     17  C   UNL     1      48.327   5.573  15.809  0.00  0.00    +0.000 C 
ATOM     18  O   UNL     1      48.610   4.494  16.327  0.00  0.00    +0.000 OA
ATOM     19  N   UNL     1      47.333   5.671  14.873  0.00  0.00    +0.000 N 
ATOM     20  H   UNL     1      47.080   6.571  14.490  0.00  0.00    +0.000 HD
BRANCH  17  28
ATOM     21  C   UNL     1      48.303   7.570  18.611  0.00  0.00    +0.000 A 
ATOM     22  N   UNL     1      48.499   8.496  19.568  0.00  0.00    +0.000 NA
ATOM     23  C   UNL     1      49.360   9.485  19.316  0.00  0.00    +0.000 A 
ATOM     24  N   UNL     1      50.063   9.672  18.202  0.00  0.00    +0.000 NA
ATOM     25  C   UNL     1      49.844   8.721  17.277  0.00  0.00    +0.000 A 
ATOM     26  S   UNL     1      50.653   8.802  15.787  0.00  0.00    +0.000 S 
ATOM     27  C   UNL     1      49.901   7.376  15.247  0.00  0.00    +0.000 A 
ATOM     28  C   UNL     1      49.033   6.811  16.174  0.00  0.00    +0.000 A 
ATOM     29  C   UNL     1      48.994   7.626  17.388  0.00  0.00    +0.000 A 
BRANCH  21  31
ATOM     30  C   UNL     1      48.015   5.484  19.637  0.00  0.00    +0.000 C 
ATOM     31  O   UNL     1      47.429   6.537  18.877  0.00  0.00    +0.000 OA
ENDBRANCH  21  31
ENDBRANCH  17  28
ENDBRANCH   1  19
TORSDOF 7
ENDMDL
MODEL 5
REMARK VINA RESULT:    -7.414      1.711      2.227
REMARK INTER + INTRA:         -11.859
REMARK INTER:                 -10.800
REMARK INTRA:                  -1.059
REMARK UNBOUND:                -1.412
REMARK  Name = 
REMARK  8 active torsions:
REMARK  status: ('A' for Active; 'I' for Inactive)
REMARK    1  A    between atoms: C_1  and  O_2
REMARK    2  A    between atoms: O_2  and  C_3
REMARK    3  A    between atoms: C_10  and  C_11
REMARK    4  A    between atoms: N_13  and  C_14
REMARK    5  A    between atoms: C_14  and  C_15
REMARK    6  A    between atoms: C_18  and  N_19
REMARK    7  A    between atoms: N_19  and  C_20
REMARK    8  A    between atoms: C_20  and  C_21
REMARK                            x       y       z     vdW  Elec       q    Type
REMARK                         _______ _______ _______ _____ _____    ______ ____
ROOT
ATOM      1  C   UNL     1      48.300   7.008  13.327  0.00  0.00    +0.000 C 
ENDROOT
BRANCH   1   2
ATOM      2  C   UNL     1      47.190   6.260  12.636  0.00  0.00    +0.000 A 
ATOM      3  C   UNL     1      46.676   6.701  11.412  0.00  0.00    +0.000 A 
ATOM      4  C   UNL     1      45.721   5.943  10.720  0.00  0.00    +0.000 A 
ATOM      5  C   UNL     1      45.264   4.725  11.233  0.00  0.00    +0.000 A 
ATOM      6  C   UNL     1      45.681   4.359  12.518  0.00  0.00    +0.000 A 
ATOM      7  C   UNL     1      46.642   5.105  13.208  0.00  0.00    +0.000 A 
BRANCH   5   8
ATOM      8  N   UNL     1      44.386   3.870  10.561  0.00  0.00    +0.000 N 
ATOM      9  H   UNL     1      43.475   3.841  11.011  0.00  0.00    +0.000 HD
BRANCH   8  10
ATOM     10  C   UNL     1      44.290   3.972   9.109  0.00  0.00    +0.000 C 
BRANCH  10  11
ATOM     11  C   UNL     1      45.388   3.160   8.462  0.00  0.00    +0.000 A 
ATOM     12  C   UNL     1      45.496   1.782   8.669  0.00  0.00    +0.000 A 
ATOM     13  C   UNL     1      46.480   1.082   7.987  0.00  0.00    +0.000 A 
ATOM     14  N   UNL     1      47.350   1.648   7.124  0.00  0.00    +0.000 NA
ATOM     15  C   UNL     1      47.236   2.980   6.939  0.00  0.00    +0.000 A 
ATOM     16  C   UNL     1      46.286   3.766   7.575  0.00  0.00    +0.000 A 
ENDBRANCH  10  11
ENDBRANCH   8  10
ENDBRANCH   5   8
ENDBRANCH   1   2
BRANCH   1  19
ATOM     17  C   UNL     1      49.138   6.963  15.637  0.00  0.00    +0.000 C 
ATOM     18  O   UNL     1      50.297   6.824  15.250  0.00  0.00    +0.000 OA
ATOM     19  N   UNL     1      48.101   7.063  14.749  0.00  0.00    +0.000 N 
ATOM     20  H   UNL     1      47.148   7.132  15.083  0.00  0.00    +0.000 HD
BRANCH  17  28
ATOM     21  C   UNL     1      49.079   4.609  18.146  0.00  0.00    +0.000 A 
ATOM     22  N   UNL     1      48.994   3.913  19.295  0.00  0.00    +0.000 NA
ATOM     23  C   UNL     1      48.618   4.566  20.397  0.00  0.00    +0.000 A 
ATOM     24  N   UNL     1      48.306   5.856  20.498  0.00  0.00    +0.000 NA
ATOM     25  C   UNL     1      48.414   6.515  19.331  0.00  0.00    +0.000 A 
ATOM     26  S   UNL     1      48.050   8.172  19.269  0.00  0.00    +0.000 S 
ATOM     27  C   UNL     1      48.405   8.237  17.608  0.00  0.00    +0.000 A 
ATOM     28  C   UNL     1      48.806   7.020  17.070  0.00  0.00    +0.000 A 
ATOM     29  C   UNL     1      48.802   5.987  18.104  0.00  0.00    +0.000 A 
BRANCH  21  31
ATOM     30  C   UNL     1      49.348   2.526  17.109  0.00  0.00    +0.000 C 
ATOM     31  O   UNL     1      49.487   3.941  17.011  0.00  0.00    +0.000 OA
ENDBRANCH  21  31
ENDBRANCH  17  28
ENDBRANCH   1  19
TORSDOF 7
ENDMDL
MODEL 6
REMARK VINA RESULT:    -7.152      2.333      3.346
REMARK INTER + INTRA:         -11.490
REMARK INTER:                 -10.577
REMARK INTRA:                  -0.913
REMARK UNBOUND:                -1.412
REMARK  Name = 
REMARK  8 active torsions:
REMARK  status: ('A' for Active; 'I' for Inactive)
REMARK    1  A    between atoms: C_1  and  O_2
REMARK    2  A    between atoms: O_2  and  C_3
REMARK    3  A    between atoms: C_10  and  C_11
REMARK    4  A    between atoms: N_13  and  C_14
REMARK    5  A    between atoms: C_14  and  C_15
REMARK    6  A    between atoms: C_18  and  N_19
REMARK    7  A    between atoms: N_19  and  C_20
REMARK    8  A    between atoms: C_20  and  C_21
REMARK                            x       y       z     vdW  Elec       q    Type
REMARK                         _______ _______ _______ _____ _____    ______ ____
ROOT
ATOM      1  C   UNL     1      46.740   4.757  14.719  0.00  0.00    +0.000 C 
ENDROOT
BRANCH   1   2
ATOM      2  C   UNL     1      46.261   4.929  13.301  0.00  0.00    +0.000 A 
ATOM      3  C   UNL     1      46.680   6.015  12.525  0.00  0.00    +0.000 A 
ATOM      4  C   UNL     1      46.320   6.111  11.173  0.00  0.00    +0.000 A 
ATOM      5  C   UNL     1      45.541   5.121  10.566  0.00  0.00    +0.000 A 
ATOM      6  C   UNL     1      45.017   4.111  11.381  0.00  0.00    +0.000 A 
ATOM      7  C   UNL     1      45.381   4.003  12.727  0.00  0.00    +0.000 A 
BRANCH   5   8
ATOM      8  N   UNL     1      45.221   5.099   9.206  0.00  0.00    +0.000 N 
ATOM      9  H   UNL     1      45.982   5.461   8.637  0.00  0.00    +0.000 HD
BRANCH   8  10
ATOM     10  C   UNL     1      44.634   3.886   8.648  0.00  0.00    +0.000 C 
BRANCH  10  11
ATOM     11  C   UNL     1      45.711   3.036   8.015  0.00  0.00    +0.000 A 
ATOM     12  C   UNL     1      46.692   3.596   7.192  0.00  0.00    +0.000 A 
ATOM     13  C   UNL     1      47.696   2.774   6.702  0.00  0.00    +0.000 A 
ATOM     14  N   UNL     1      47.792   1.454   6.971  0.00  0.00    +0.000 NA
ATOM     15  C   UNL     1      46.834   0.929   7.763  0.00  0.00    +0.000 A 
ATOM     16  C   UNL     1      45.790   1.668   8.300  0.00  0.00    +0.000 A 
ENDBRANCH  10  11
ENDBRANCH   8  10
ENDBRANCH   5   8
ENDBRANCH   1   2
BRANCH   1  19
ATOM     17  C   UNL     1      48.446   5.675  16.231  0.00  0.00    +0.000 C 
ATOM     18  O   UNL     1      48.297   4.744  17.020  0.00  0.00    +0.000 OA
ATOM     19  N   UNL     1      47.717   5.750  15.075  0.00  0.00    +0.000 N 
ATOM     20  H   UNL     1      47.817   6.545  14.459  0.00  0.00    +0.000 HD
BRANCH  17  28
ATOM     21  C   UNL     1      51.748   5.727  17.199  0.00  0.00    +0.000 A 
ATOM     22  N   UNL     1      53.014   6.032  17.543  0.00  0.00    +0.000 NA
ATOM     23  C   UNL     1      53.352   7.322  17.608  0.00  0.00    +0.000 A 
ATOM     24  N   UNL     1      52.568   8.370  17.372  0.00  0.00    +0.000 NA
ATOM     25  C   UNL     1      51.317   8.022  17.023  0.00  0.00    +0.000 A 
ATOM     26  S   UNL     1      50.173   9.231  16.690  0.00  0.00    +0.000 S 
ATOM     27  C   UNL     1      48.973   8.074  16.362  0.00  0.00    +0.000 A 
ATOM     28  C   UNL     1      49.407   6.759  16.492  0.00  0.00    +0.000 A 
ATOM     29  C   UNL     1      50.811   6.732  16.898  0.00  0.00    +0.000 A 
BRANCH  21  31
ATOM     30  C   UNL     1      51.904   3.610  18.189  0.00  0.00    +0.000 C 
ATOM     31  O   UNL     1      51.402   4.396  17.111  0.00  0.00    +0.000 OA
ENDBRANCH  21  31
ENDBRANCH  17  28
ENDBRANCH   1  19
TORSDOF 7
ENDMDL
MODEL 7
REMARK VINA RESULT:    -6.985      2.704      3.582
REMARK INTER + INTRA:         -11.255
REMARK INTER:                  -9.880
REMARK INTRA:                  -1.375
REMARK UNBOUND:                -1.412
REMARK  Name = 
REMARK  8 active torsions:
REMARK  status: ('A' for Active; 'I' for Inactive)
REMARK    1  A    between atoms: C_1  and  O_2
REMARK    2  A    between atoms: O_2  and  C_3
REMARK    3  A    between atoms: C_10  and  C_11
REMARK    4  A    between atoms: N_13  and  C_14
REMARK    5  A    between atoms: C_14  and  C_15
REMARK    6  A    between atoms: C_18  and  N_19
REMARK    7  A    between atoms: N_19  and  C_20
REMARK    8  A    between atoms: C_20  and  C_21
REMARK                            x       y       z     vdW  Elec       q    Type
REMARK                         _______ _______ _______ _____ _____    ______ ____
ROOT
ATOM      1  C   UNL     1      48.482   6.811  14.080  0.00  0.00    +0.000 C 
ENDROOT
BRANCH   1   2
ATOM      2  C   UNL     1      47.408   6.053  13.343  0.00  0.00    +0.000 A 
ATOM      3  C   UNL     1      47.107   4.727  13.672  0.00  0.00    +0.000 A 
ATOM      4  C   UNL     1      46.035   4.063  13.059  0.00  0.00    +0.000 A 
ATOM      5  C   UNL     1      45.237   4.712  12.112  0.00  0.00    +0.000 A 
ATOM      6  C   UNL     1      45.626   5.989  11.693  0.00  0.00    +0.000 A 
ATOM      7  C   UNL     1      46.688   6.661  12.307  0.00  0.00    +0.000 A 
BRANCH   5   8
ATOM      8  N   UNL     1      44.098   4.150  11.529  0.00  0.00    +0.000 N 
ATOM      9  H   UNL     1      43.283   4.249  12.129  0.00  0.00    +0.000 HD
BRANCH   8  10
ATOM     10  C   UNL     1      43.806   4.457  10.133  0.00  0.00    +0.000 C 
BRANCH  10  11
ATOM     11  C   UNL     1      44.730   3.674   9.229  0.00  0.00    +0.000 A 
ATOM     12  C   UNL     1      45.606   4.316   8.350  0.00  0.00    +0.000 A 
ATOM     13  C   UNL     1      46.482   3.542   7.602  0.00  0.00    +0.000 A 
ATOM     14  N   UNL     1      46.546   2.196   7.667  0.00  0.00    +0.000 NA
ATOM     15  C   UNL     1      45.690   1.592   8.518  0.00  0.00    +0.000 A 
ATOM     16  C   UNL     1      44.779   2.277   9.307  0.00  0.00    +0.000 A 
ENDBRANCH  10  11
ENDBRANCH   8  10
ENDBRANCH   5   8
ENDBRANCH   1   2
BRANCH   1  19
ATOM     17  C   UNL     1      49.077   6.418  16.432  0.00  0.00    +0.000 C 
ATOM     18  O   UNL     1      50.146   5.902  16.110  0.00  0.00    +0.000 OA
ATOM     19  N   UNL     1      48.206   6.892  15.489  0.00  0.00    +0.000 N 
ATOM     20  H   UNL     1      47.311   7.272  15.766  0.00  0.00    +0.000 HD
BRANCH  17  28
ATOM     21  C   UNL     1      47.786   9.003  18.300  0.00  0.00    +0.000 A 
ATOM     22  N   UNL     1      47.267   9.817  19.239  0.00  0.00    +0.000 NA
ATOM     23  C   UNL     1      47.097   9.326  20.469  0.00  0.00    +0.000 A 
ATOM     24  N   UNL     1      47.390   8.099  20.891  0.00  0.00    +0.000 NA
ATOM     25  C   UNL     1      47.896   7.317  19.921  0.00  0.00    +0.000 A 
ATOM     26  S   UNL     1      48.335   5.717  20.279  0.00  0.00    +0.000 S 
ATOM     27  C   UNL     1      48.833   5.444  18.677  0.00  0.00    +0.000 A 
ATOM     28  C   UNL     1      48.677   6.545  17.843  0.00  0.00    +0.000 A 
ATOM     29  C   UNL     1      48.123   7.670  18.594  0.00  0.00    +0.000 A 
BRANCH  21  31
ATOM     30  C   UNL     1      49.170  10.202  16.840  0.00  0.00    +0.000 C 
ATOM     31  O   UNL     1      47.943   9.502  17.025  0.00  0.00    +0.000 OA
ENDBRANCH  21  31
ENDBRANCH  17  28
ENDBRANCH   1  19
TORSDOF 7
ENDMDL
MODEL 8
REMARK VINA RESULT:    -6.968      2.474      3.714
REMARK INTER + INTRA:         -11.232
REMARK INTER:                 -10.039
REMARK INTRA:                  -1.193
REMARK UNBOUND:                -1.412
REMARK  Name = 
REMARK  8 active torsions:
REMARK  status: ('A' for Active; 'I' for Inactive)
REMARK    1  A    between atoms: C_1  and  O_2
REMARK    2  A    between atoms: O_2  and  C_3
REMARK    3  A    between atoms: C_10  and  C_11
REMARK    4  A    between atoms: N_13  and  C_14
REMARK    5  A    between atoms: C_14  and  C_15
REMARK    6  A    between atoms: C_18  and  N_19
REMARK    7  A    between atoms: N_19  and  C_20
REMARK    8  A    between atoms: C_20  and  C_21
REMARK                            x       y       z     vdW  Elec       q    Type
REMARK                         _______ _______ _______ _____ _____    ______ ____
ROOT
ATOM      1  C   UNL     1      46.250   5.903  13.991  0.00  0.00    +0.000 C 
ENDROOT
BRANCH   1   2
ATOM      2  C   UNL     1      45.825   5.182  12.738  0.00  0.00    +0.000 A 
ATOM      3  C   UNL     1      45.436   3.838  12.776  0.00  0.00    +0.000 A 
ATOM      4  C   UNL     1      44.938   3.204  11.628  0.00  0.00    +0.000 A 
ATOM      5  C   UNL     1      44.811   3.900  10.422  0.00  0.00    +0.000 A 
ATOM      6  C   UNL     1      45.326   5.200  10.360  0.00  0.00    +0.000 A 
ATOM      7  C   UNL     1      45.815   5.842  11.503  0.00  0.00    +0.000 A 
BRANCH   5   8
ATOM      8  N   UNL     1      44.238   3.366   9.265  0.00  0.00    +0.000 N 
ATOM      9  H   UNL     1      43.222   3.370   9.315  0.00  0.00    +0.000 HD
BRANCH   8  10
ATOM     10  C   UNL     1      44.736   3.815   7.970  0.00  0.00    +0.000 C 
BRANCH  10  11
ATOM     11  C   UNL     1      45.860   2.915   7.510  0.00  0.00    +0.000 A 
ATOM     12  C   UNL     1      46.066   1.656   8.080  0.00  0.00    +0.000 A 
ATOM     13  C   UNL     1      47.067   0.848   7.561  0.00  0.00    +0.000 A 
ATOM     14  N   UNL     1      47.864   1.199   6.530  0.00  0.00    +0.000 NA
ATOM     15  C   UNL     1      47.655   2.420   5.995  0.00  0.00    +0.000 A 
ATOM     16  C   UNL     1      46.681   3.299   6.443  0.00  0.00    +0.000 A 
ENDBRANCH  10  11
ENDBRANCH   8  10
ENDBRANCH   5   8
ENDBRANCH   1   2
BRANCH   1  19
ATOM     17  C   UNL     1      47.830   7.763  13.705  0.00  0.00    +0.000 C 
ATOM     18  O   UNL     1      46.911   8.578  13.642  0.00  0.00    +0.000 OA
ATOM     19  N   UNL     1      47.583   6.428  13.878  0.00  0.00    +0.000 N 
ATOM     20  H   UNL     1      48.346   5.764  13.881  0.00  0.00    +0.000 HD
BRANCH  17  28
ATOM     21  C   UNL     1      50.673   7.013  15.492  0.00  0.00    +0.000 A 
ATOM     22  N   UNL     1      51.916   6.879  15.991  0.00  0.00    +0.000 NA
ATOM     23  C   UNL     1      52.904   7.557  15.402  0.00  0.00    +0.000 A 
ATOM     24  N   UNL     1      52.805   8.373  14.356  0.00  0.00    +0.000 NA
ATOM     25  C   UNL     1      51.550   8.471  13.883  0.00  0.00    +0.000 A 
ATOM     26  S   UNL     1      51.233   9.475  12.552  0.00  0.00    +0.000 S 
ATOM     27  C   UNL     1      49.581   9.074  12.582  0.00  0.00    +0.000 A 
ATOM     28  C   UNL     1      49.237   8.178  13.588  0.00  0.00    +0.000 A 
ATOM     29  C   UNL     1      50.419   7.825  14.373  0.00  0.00    +0.000 A 
BRANCH  21  31
ATOM     30  C   UNL     1      49.531   6.548  17.484  0.00  0.00    +0.000 C 
ATOM     31  O   UNL     1      49.655   6.299  16.086  0.00  0.00    +0.000 OA
ENDBRANCH  21  31
ENDBRANCH  17  28
ENDBRANCH   1  19
TORSDOF 7
ENDMDL
MODEL 9
REMARK VINA RESULT:    -6.815      1.738      2.172
REMARK INTER + INTRA:         -11.016
REMARK INTER:                  -9.761
REMARK INTRA:                  -1.255
REMARK UNBOUND:                -1.412
REMARK  Name = 
REMARK  8 active torsions:
REMARK  status: ('A' for Active; 'I' for Inactive)
REMARK    1  A    between atoms: C_1  and  O_2
REMARK    2  A    between atoms: O_2  and  C_3
REMARK    3  A    between atoms: C_10  and  C_11
REMARK    4  A    between atoms: N_13  and  C_14
REMARK    5  A    between atoms: C_14  and  C_15
REMARK    6  A    between atoms: C_18  and  N_19
REMARK    7  A    between atoms: N_19  and  C_20
REMARK    8  A    between atoms: C_20  and  C_21
REMARK                            x       y       z     vdW  Elec       q    Type
REMARK                         _______ _______ _______ _____ _____    ______ ____
ROOT
ATOM      1  C   UNL     1      47.941   8.995  14.214  0.00  0.00    +0.000 C 
ENDROOT
BRANCH   1   2
ATOM      2  C   UNL     1      47.117   8.300  13.161  0.00  0.00    +0.000 A 
ATOM      3  C   UNL     1      47.620   7.194  12.466  0.00  0.00    +0.000 A 
ATOM      4  C   UNL     1      46.811   6.485  11.567  0.00  0.00    +0.000 A 
ATOM      5  C   UNL     1      45.482   6.859  11.350  0.00  0.00    +0.000 A 
ATOM      6  C   UNL     1      45.030   8.041  11.945  0.00  0.00    +0.000 A 
ATOM      7  C   UNL     1      45.827   8.749  12.851  0.00  0.00    +0.000 A 
BRANCH   5   8
ATOM      8  N   UNL     1      44.588   6.147  10.544  0.00  0.00    +0.000 N 
ATOM      9  H   UNL     1      44.733   6.350   9.558  0.00  0.00    +0.000 HD
BRANCH   8  10
ATOM     10  C   UNL     1      44.399   4.725  10.801  0.00  0.00    +0.000 C 
BRANCH  10  11
ATOM     11  C   UNL     1      44.993   3.914   9.672  0.00  0.00    +0.000 A 
ATOM     12  C   UNL     1      45.644   4.525   8.599  0.00  0.00    +0.000 A 
ATOM     13  C   UNL     1      46.234   3.721   7.634  0.00  0.00    +0.000 A 
ATOM     14  N   UNL     1      46.221   2.372   7.663  0.00  0.00    +0.000 NA
ATOM     15  C   UNL     1      45.583   1.797   8.704  0.00  0.00    +0.000 A 
ATOM     16  C   UNL     1      44.965   2.515   9.717  0.00  0.00    +0.000 A 
ENDBRANCH  10  11
ENDBRANCH   8  10
ENDBRANCH   5   8
ENDBRANCH   1   2
BRANCH   1  19
ATOM     17  C   UNL     1      48.356   8.343  16.547  0.00  0.00    +0.000 C 
ATOM     18  O   UNL     1      47.871   9.394  16.962  0.00  0.00    +0.000 OA
ATOM     19  N   UNL     1      48.424   8.074  15.206  0.00  0.00    +0.000 N 
ATOM     20  H   UNL     1      48.868   7.227  14.877  0.00  0.00    +0.000 HD
BRANCH  17  28
ATOM     21  C   UNL     1      48.531   4.909  16.437  0.00  0.00    +0.000 A 
ATOM     22  N   UNL     1      48.748   3.595  16.639  0.00  0.00    +0.000 NA
ATOM     23  C   UNL     1      49.362   3.227  17.765  0.00  0.00    +0.000 A 
ATOM     24  N   UNL     1      49.794   4.022  18.741  0.00  0.00    +0.000 NA
ATOM     25  C   UNL     1      49.567   5.325  18.495  0.00  0.00    +0.000 A 
ATOM     26  S   UNL     1      50.047   6.488  19.635  0.00  0.00    +0.000 S 
ATOM     27  C   UNL     1      49.460   7.753  18.663  0.00  0.00    +0.000 A 
ATOM     28  C   UNL     1      48.897   7.328  17.465  0.00  0.00    +0.000 A 
ATOM     29  C   UNL     1      48.954   5.870  17.371  0.00  0.00    +0.000 A 
BRANCH  21  31
ATOM     30  C   UNL     1      46.981   4.333  14.778  0.00  0.00    +0.000 C 
ATOM     31  O   UNL     1      47.915   5.292  15.265  0.00  0.00    +0.000 OA
ENDBRANCH  21  31
ENDBRANCH  17  28
ENDBRANCH   1  19
TORSDOF 7
ENDMDL
