MODEL 1
REMARK VINA RESULT:    -7.650      0.000      0.000
REMARK INTER + INTRA:         -10.457
REMARK INTER:                  -9.886
REMARK INTRA:                  -0.571
REMARK UNBOUND:                -0.571
REMARK  Name = 
REMARK  5 active torsions:
REMARK  status: ('A' for Active; 'I' for Inactive)
REMARK    1  A    between atoms: C_2  and  C_3
REMARK    2  A    between atoms: N_7  and  C_8
REMARK    3  A    between atoms: C_8  and  C_9
REMARK    4  A    between atoms: C_9  and  C_11
REMARK    5  A    between atoms: C_15  and  C_16
REMARK                            x       y       z     vdW  Elec       q    Type
REMARK                         _______ _______ _______ _____ _____    ______ ____
ROOT
ATOM      1  C   UNL     1      43.471   5.257  10.317  0.00  0.00    +0.000 C 
ENDROOT
BRANCH   1   6
ATOM      2  C   UNL     1      46.539   2.515   7.516  0.00  0.00    +0.000 A 
ATOM      3  C   UNL     1      45.955   1.594   8.379  0.00  0.00    +0.000 A 
ATOM      4  C   UNL     1      45.004   2.032   9.308  0.00  0.00    +0.000 A 
ATOM      5  C   UNL     1      44.657   3.381   9.364  0.00  0.00    +0.000 A 
ATOM      6  N   UNL     1      43.656   3.790  10.266  0.00  0.00    +0.000 N 
ATOM      7  N   UNL     1      45.211   4.274   8.517  0.00  0.00    +0.000 NA
ATOM      8  C   UNL     1      46.134   3.833   7.623  0.00  0.00    +0.000 A 
ATOM      9  H   UNL     1      43.838   3.399  11.188  0.00  0.00    +0.000 HD
BRANCH   2  11
ATOM     10  N   UNL     1      48.309   1.808   5.760  0.00  0.00    +0.000 NA
ATOM     11  C   UNL     1      47.515   2.126   6.547  0.00  0.00    +0.000 C 
ENDBRANCH   2  11
ENDBRANCH   1   6
BRANCH   1  12
ATOM     12  C   UNL     1      43.525   5.792  11.763  0.00  0.00    +0.000 C 
ATOM     13  F   UNL     1      42.727   4.990  12.539  0.00  0.00    +0.000 F 
BRANCH  12  14
ATOM     14  C   UNL     1      44.947   5.855  12.293  0.00  0.00    +0.000 A 
ATOM     15  C   UNL     1      45.833   6.832  11.814  0.00  0.00    +0.000 A 
ATOM     16  C   UNL     1      47.148   6.895  12.280  0.00  0.00    +0.000 A 
ATOM     17  C   UNL     1      47.598   5.981  13.233  0.00  0.00    +0.000 A 
ATOM     18  C   UNL     1      46.730   5.001  13.726  0.00  0.00    +0.000 A 
ATOM     19  C   UNL     1      45.410   4.939  13.254  0.00  0.00    +0.000 A 
BRANCH  18  20
ATOM     20  C   UNL     1      47.190   4.064  14.711  0.00  0.00    +0.000 C 
ATOM     21  N   UNL     1      47.570   3.306  15.504  0.00  0.00    +0.000 NA
ENDBRANCH  18  20
ENDBRANCH  12  14
ENDBRANCH   1  12
TORSDOF 5
ENDMDL
MODEL 2
REMARK VINA RESULT:    -7.218      1.494      2.133
REMARK INTER + INTRA:          -9.899
REMARK INTER:                  -9.314
REMARK INTRA:                  -0.584
REMARK UNBOUND:                -0.571
REMARK  Name = 
REMARK  5 active torsions:
REMARK  status: ('A' for Active; 'I' for Inactive)
REMARK    1  A    between atoms: C_2  and  C_3
REMARK    2  A    between atoms: N_7  and  C_8
REMARK    3  A    between atoms: C_8  and  C_9
REMARK    4  A    between atoms: C_9  and  C_11
REMARK    5  A    between atoms: C_15  and  C_16
REMARK                            x       y       z     vdW  Elec       q    Type
REMARK                         _______ _______ _______ _____ _____    ______ ____
ROOT
ATOM      1  C   UNL     1      43.695   5.380  10.350  0.00  0.00    +0.000 C 
ENDROOT
BRANCH   1   6
ATOM      2  C   UNL     1      46.651   2.551   7.516  0.00  0.00    +0.000 A 
ATOM      3  C   UNL     1      45.994   1.639   8.335  0.00  0.00    +0.000 A 
ATOM      4  C   UNL     1      45.051   2.103   9.261  0.00  0.00    +0.000 A 
ATOM      5  C   UNL     1      44.786   3.469   9.356  0.00  0.00    +0.000 A 
ATOM      6  N   UNL     1      43.792   3.908  10.252  0.00  0.00    +0.000 N 
ATOM      7  N   UNL     1      45.411   4.354   8.552  0.00  0.00    +0.000 NA
ATOM      8  C   UNL     1      46.324   3.887   7.662  0.00  0.00    +0.000 A 
ATOM      9  H   UNL     1      43.930   3.476  11.164  0.00  0.00    +0.000 HD
BRANCH   2  11
ATOM     10  N   UNL     1      48.415   1.799   5.773  0.00  0.00    +0.000 NA
ATOM     11  C   UNL     1      47.623   2.136   6.554  0.00  0.00    +0.000 C 
ENDBRANCH   2  11
ENDBRANCH   1   6
BRANCH   1  12
ATOM     12  C   UNL     1      43.742   5.862  11.815  0.00  0.00    +0.000 C 
ATOM     13  F   UNL     1      42.909   5.057  12.551  0.00  0.00    +0.000 F 
BRANCH  12  14
ATOM     14  C   UNL     1      45.157   5.863  12.367  0.00  0.00    +0.000 A 
ATOM     15  C   UNL     1      45.499   5.010  13.427  0.00  0.00    +0.000 A 
ATOM     16  C   UNL     1      46.792   5.008  13.955  0.00  0.00    +0.000 A 
ATOM     17  C   UNL     1      47.764   5.862  13.432  0.00  0.00    +0.000 A 
ATOM     18  C   UNL     1      47.443   6.719  12.373  0.00  0.00    +0.000 A 
ATOM     19  C   UNL     1      46.143   6.719  11.846  0.00  0.00    +0.000 A 
BRANCH  18  20
ATOM     20  C   UNL     1      48.443   7.593  11.830  0.00  0.00    +0.000 C 
ATOM     21  N   UNL     1      49.256   8.294  11.385  0.00  0.00    +0.000 NA
ENDBRANCH  18  20
ENDBRANCH  12  14
ENDBRANCH   1  12
TORSDOF 5
ENDMDL
MODEL 3
REMARK VINA RESULT:    -6.738      2.512      6.002
REMARK INTER + INTRA:          -9.279
REMARK INTER:                  -8.663
REMARK INTRA:                  -0.615
REMARK UNBOUND:                -0.571
REMARK  Name = 
REMARK  5 active torsions:
REMARK  status: ('A' for Active; 'I' for Inactive)
REMARK    1  A    between atoms: C_2  and  C_3
REMARK    2  A    between atoms: N_7  and  C_8
REMARK    3  A    between atoms: C_8  and  C_9
REMARK    4  A    between atoms: C_9  and  C_11
REMARK    5  A    between atoms: C_15  and  C_16
REMARK                            x       y       z     vdW  Elec       q    Type
REMARK                         _______ _______ _______ _____ _____    ______ ____
ROOT
ATOM      1  C   UNL     1      44.663   4.157  12.338  0.00  0.00    +0.000 C 
ENDROOT
BRANCH   1   6
ATOM      2  C   UNL     1      47.554   8.205  12.157  0.00  0.00    +0.000 A 
ATOM      3  C   UNL     1      46.330   8.684  12.614  0.00  0.00    +0.000 A 
ATOM      4  C   UNL     1      45.272   7.787  12.805  0.00  0.00    +0.000 A 
ATOM      5  C   UNL     1      45.451   6.432  12.531  0.00  0.00    +0.000 A 
ATOM      6  N   UNL     1      44.392   5.540  12.786  0.00  0.00    +0.000 N 
ATOM      7  N   UNL     1      46.642   5.963  12.103  0.00  0.00    +0.000 NA
ATOM      8  C   UNL     1      47.657   6.846  11.920  0.00  0.00    +0.000 A 
ATOM      9  H   UNL     1      43.527   5.904  12.389  0.00  0.00    +0.000 HD
BRANCH   2  11
ATOM     10  N   UNL     1      49.578   9.777  11.772  0.00  0.00    +0.000 NA
ATOM     11  C   UNL     1      48.670   9.072  11.943  0.00  0.00    +0.000 C 
ENDBRANCH   2  11
ENDBRANCH   1   6
BRANCH   1  12
ATOM     12  C   UNL     1      43.867   3.800  11.065  0.00  0.00    +0.000 C 
ATOM     13  F   UNL     1      42.956   4.801  10.843  0.00  0.00    +0.000 F 
BRANCH  12  14
ATOM     14  C   UNL     1      44.776   3.587   9.868  0.00  0.00    +0.000 A 
ATOM     15  C   UNL     1      45.229   4.688   9.125  0.00  0.00    +0.000 A 
ATOM     16  C   UNL     1      46.055   4.508   8.013  0.00  0.00    +0.000 A 
ATOM     17  C   UNL     1      46.439   3.224   7.625  0.00  0.00    +0.000 A 
ATOM     18  C   UNL     1      46.000   2.113   8.355  0.00  0.00    +0.000 A 
ATOM     19  C   UNL     1      45.169   2.297   9.470  0.00  0.00    +0.000 A 
BRANCH  18  20
ATOM     20  C   UNL     1      46.400   0.793   7.961  0.00  0.00    +0.000 C 
ATOM     21  N   UNL     1      46.732  -0.274   7.642  0.00  0.00    +0.000 NA
ENDBRANCH  18  20
ENDBRANCH  12  14
ENDBRANCH   1  12
TORSDOF 5
ENDMDL
MODEL 4
REMARK VINA RESULT:    -6.658      1.828      6.679
REMARK INTER + INTRA:          -9.176
REMARK INTER:                  -8.893
REMARK INTRA:                  -0.283
REMARK UNBOUND:                -0.571
REMARK  Name = 
REMARK  5 active torsions:
REMARK  status: ('A' for Active; 'I' for Inactive)
REMARK    1  A    between atoms: C_2  and  C_3
REMARK    2  A    between atoms: N_7  and  C_8
REMARK    3  A    between atoms: C_8  and  C_9
REMARK    4  A    between atoms: C_9  and  C_11
REMARK    5  A    between atoms: C_15  and  C_16
REMARK                            x       y       z     vdW  Elec       q    Type
REMARK                         _______ _______ _______ _____ _____    ______ ____
ROOT
ATOM      1  C   UNL     1      44.703   3.849  12.281  0.00  0.00    +0.000 C 
ENDROOT
BRANCH   1   6
ATOM      2  C   UNL     1      48.065   5.394  15.611  0.00  0.00    +0.000 A 
ATOM      3  C   UNL     1      48.137   6.339  14.593  0.00  0.00    +0.000 A 
ATOM      4  C   UNL     1      47.292   6.218  13.483  0.00  0.00    +0.000 A 
ATOM      5  C   UNL     1      46.394   5.154  13.406  0.00  0.00    +0.000 A 
ATOM      6  N   UNL     1      45.513   5.085  12.310  0.00  0.00    +0.000 N 
ATOM      7  N   UNL     1      46.311   4.245  14.400  0.00  0.00    +0.000 NA
ATOM      8  C   UNL     1      47.140   4.375  15.468  0.00  0.00    +0.000 A 
ATOM      9  H   UNL     1      46.026   5.222  11.442  0.00  0.00    +0.000 HD
BRANCH   2  11
ATOM     10  N   UNL     1      49.585   5.523  17.705  0.00  0.00    +0.000 NA
ATOM     11  C   UNL     1      48.902   5.465  16.767  0.00  0.00    +0.000 C 
ENDBRANCH   2  11
ENDBRANCH   1   6
BRANCH   1  12
ATOM     12  C   UNL     1      43.903   3.717  10.968  0.00  0.00    +0.000 C 
ATOM     13  F   UNL     1      43.116   4.832  10.840  0.00  0.00    +0.000 F 
BRANCH  12  14
ATOM     14  C   UNL     1      44.813   3.527   9.766  0.00  0.00    +0.000 A 
ATOM     15  C   UNL     1      45.221   4.638   9.011  0.00  0.00    +0.000 A 
ATOM     16  C   UNL     1      46.046   4.479   7.895  0.00  0.00    +0.000 A 
ATOM     17  C   UNL     1      46.475   3.207   7.517  0.00  0.00    +0.000 A 
ATOM     18  C   UNL     1      46.082   2.087   8.258  0.00  0.00    +0.000 A 
ATOM     19  C   UNL     1      45.252   2.250   9.377  0.00  0.00    +0.000 A 
BRANCH  18  20
ATOM     20  C   UNL     1      46.528   0.779   7.872  0.00  0.00    +0.000 C 
ATOM     21  N   UNL     1      46.887  -0.279   7.552  0.00  0.00    +0.000 NA
ENDBRANCH  18  20
ENDBRANCH  12  14
ENDBRANCH   1  12
TORSDOF 5
ENDMDL
MODEL 5
REMARK VINA RESULT:    -6.250      1.550      1.840
REMARK INTER + INTRA:          -8.648
REMARK INTER:                  -8.143
REMARK INTRA:                  -0.504
REMARK UNBOUND:                -0.571
REMARK  Name = 
REMARK  5 active torsions:
REMARK  status: ('A' for Active; 'I' for Inactive)
REMARK    1  A    between atoms: C_2  and  C_3
REMARK    2  A    between atoms: N_7  and  C_8
REMARK    3  A    between atoms: C_8  and  C_9
REMARK    4  A    between atoms: C_9  and  C_11
REMARK    5  A    between atoms: C_15  and  C_16
REMARK                            x       y       z     vdW  Elec       q    Type
REMARK                         _______ _______ _______ _____ _____    ______ ____
ROOT
ATOM      1  C   UNL     1      43.699   4.444  11.436  0.00  0.00    +0.000 C 
ENDROOT
BRANCH   1   6
ATOM      2  C   UNL     1      46.184   2.836   7.434  0.00  0.00    +0.000 A 
ATOM      3  C   UNL     1      45.699   1.672   8.021  0.00  0.00    +0.000 A 
ATOM      4  C   UNL     1      44.921   1.762   9.182  0.00  0.00    +0.000 A 
ATOM      5  C   UNL     1      44.645   3.011   9.738  0.00  0.00    +0.000 A 
ATOM      6  N   UNL     1      43.811   3.082  10.870  0.00  0.00    +0.000 N 
ATOM      7  N   UNL     1      45.101   4.142   9.161  0.00  0.00    +0.000 NA
ATOM      8  C   UNL     1      45.857   4.037   8.037  0.00  0.00    +0.000 A 
ATOM      9  H   UNL     1      44.114   2.406  11.569  0.00  0.00    +0.000 HD
BRANCH   2  11
ATOM     10  N   UNL     1      47.632   2.781   5.285  0.00  0.00    +0.000 NA
ATOM     11  C   UNL     1      46.984   2.806   6.250  0.00  0.00    +0.000 C 
ENDBRANCH   2  11
ENDBRANCH   1   6
BRANCH   1  12
ATOM     12  C   UNL     1      44.489   4.584  12.754  0.00  0.00    +0.000 C 
ATOM     13  F   UNL     1      45.244   3.451  12.916  0.00  0.00    +0.000 F 
BRANCH  12  14
ATOM     14  C   UNL     1      45.343   5.840  12.774  0.00  0.00    +0.000 A 
ATOM     15  C   UNL     1      44.872   7.020  12.178  0.00  0.00    +0.000 A 
ATOM     16  C   UNL     1      45.650   8.179  12.175  0.00  0.00    +0.000 A 
ATOM     17  C   UNL     1      46.913   8.177  12.769  0.00  0.00    +0.000 A 
ATOM     18  C   UNL     1      47.399   7.012  13.372  0.00  0.00    +0.000 A 
ATOM     19  C   UNL     1      46.615   5.848  13.371  0.00  0.00    +0.000 A 
BRANCH  18  20
ATOM     20  C   UNL     1      48.695   7.010  13.988  0.00  0.00    +0.000 C 
ATOM     21  N   UNL     1      49.741   7.003  14.494  0.00  0.00    +0.000 NA
ENDBRANCH  18  20
ENDBRANCH  12  14
ENDBRANCH   1  12
TORSDOF 5
ENDMDL
MODEL 6
REMARK VINA RESULT:    -6.133      2.689      7.679
REMARK INTER + INTRA:          -8.497
REMARK INTER:                  -8.143
REMARK INTRA:                  -0.354
REMARK UNBOUND:                -0.571
REMARK  Name = 
REMARK  5 active torsions:
REMARK  status: ('A' for Active; 'I' for Inactive)
REMARK    1  A    between atoms: C_2  and  C_3
REMARK    2  A    between atoms: N_7  and  C_8
REMARK    3  A    between atoms: C_8  and  C_9
REMARK    4  A    between atoms: C_9  and  C_11
REMARK    5  A    between atoms: C_15  and  C_16
REMARK                            x       y       z     vdW  Elec       q    Type
REMARK                         _______ _______ _______ _____ _____    ______ ____
ROOT
ATOM      1  C   UNL     1      46.700   5.173  13.789  0.00  0.00    +0.000 C 
ENDROOT
BRANCH   1   6
ATOM      2  C   UNL     1      49.181   4.533  18.057  0.00  0.00    +0.000 A 
ATOM      3  C   UNL     1      48.353   3.418  17.977  0.00  0.00    +0.000 A 
ATOM      4  C   UNL     1      47.515   3.265  16.866  0.00  0.00    +0.000 A 
ATOM      5  C   UNL     1      47.514   4.229  15.857  0.00  0.00    +0.000 A 
ATOM      6  N   UNL     1      46.708   4.025  14.721  0.00  0.00    +0.000 N 
ATOM      7  N   UNL     1      48.329   5.303  15.925  0.00  0.00    +0.000 NA
ATOM      8  C   UNL     1      49.133   5.438  17.011  0.00  0.00    +0.000 A 
ATOM      9  H   UNL     1      45.766   3.763  15.006  0.00  0.00    +0.000 HD
BRANCH   2  11
ATOM     10  N   UNL     1      50.771   4.915  20.067  0.00  0.00    +0.000 NA
ATOM     11  C   UNL     1      50.058   4.743  19.166  0.00  0.00    +0.000 C 
ENDBRANCH   2  11
ENDBRANCH   1   6
BRANCH   1  12
ATOM     12  C   UNL     1      45.277   5.496  13.287  0.00  0.00    +0.000 C 
ATOM     13  F   UNL     1      45.245   6.821  12.936  0.00  0.00    +0.000 F 
BRANCH  12  14
ATOM     14  C   UNL     1      44.863   4.597  12.136  0.00  0.00    +0.000 A 
ATOM     15  C   UNL     1      43.929   3.570  12.347  0.00  0.00    +0.000 A 
ATOM     16  C   UNL     1      43.548   2.726  11.302  0.00  0.00    +0.000 A 
ATOM     17  C   UNL     1      44.095   2.894  10.029  0.00  0.00    +0.000 A 
ATOM     18  C   UNL     1      45.025   3.913   9.798  0.00  0.00    +0.000 A 
ATOM     19  C   UNL     1      45.408   4.759  10.850  0.00  0.00    +0.000 A 
BRANCH  18  20
ATOM     20  C   UNL     1      45.584   4.091   8.489  0.00  0.00    +0.000 C 
ATOM     21  N   UNL     1      46.043   4.229   7.430  0.00  0.00    +0.000 NA
ENDBRANCH  18  20
ENDBRANCH  12  14
ENDBRANCH   1  12
TORSDOF 5
ENDMDL
MODEL 7
REMARK VINA RESULT:    -5.945      2.307      6.920
REMARK INTER + INTRA:          -8.253
REMARK INTER:                  -7.876
REMARK INTRA:                  -0.378
REMARK UNBOUND:                -0.571
REMARK  Name = 
REMARK  5 active torsions:
REMARK  status: ('A' for Active; 'I' for Inactive)
REMARK    1  A    between atoms: C_2  and  C_3
REMARK    2  A    between atoms: N_7  and  C_8
REMARK    3  A    between atoms: C_8  and  C_9
REMARK    4  A    between atoms: C_9  and  C_11
REMARK    5  A    between atoms: C_15  and  C_16
REMARK                            x       y       z     vdW  Elec       q    Type
REMARK                         _______ _______ _______ _____ _____    ______ ____
ROOT
ATOM      1  C   UNL     1      44.827   5.167  10.921  0.00  0.00    +0.000 C 
ENDROOT
BRANCH   1   6
ATOM      2  C   UNL     1      48.027   7.531  13.914  0.00  0.00    +0.000 A 
ATOM      3  C   UNL     1      47.092   8.505  13.581  0.00  0.00    +0.000 A 
ATOM      4  C   UNL     1      46.016   8.169  12.751  0.00  0.00    +0.000 A 
ATOM      5  C   UNL     1      45.895   6.868  12.263  0.00  0.00    +0.000 A 
ATOM      6  N   UNL     1      44.774   6.536  11.479  0.00  0.00    +0.000 N 
ATOM      7  N   UNL     1      46.792   5.916  12.598  0.00  0.00    +0.000 NA
ATOM      8  C   UNL     1      47.832   6.261  13.402  0.00  0.00    +0.000 A 
ATOM      9  H   UNL     1      44.639   7.236  10.751  0.00  0.00    +0.000 HD
BRANCH   2  11
ATOM     10  N   UNL     1      50.054   8.050  15.443  0.00  0.00    +0.000 NA
ATOM     11  C   UNL     1      49.145   7.816  14.757  0.00  0.00    +0.000 C 
ENDBRANCH   2  11
ENDBRANCH   1   6
BRANCH   1  12
ATOM     12  C   UNL     1      45.235   5.169   9.433  0.00  0.00    +0.000 C 
ATOM     13  F   UNL     1      46.339   5.973   9.300  0.00  0.00    +0.000 F 
BRANCH  12  14
ATOM     14  C   UNL     1      45.492   3.766   8.913  0.00  0.00    +0.000 A 
ATOM     15  C   UNL     1      44.780   2.678   9.442  0.00  0.00    +0.000 A 
ATOM     16  C   UNL     1      45.014   1.380   8.985  0.00  0.00    +0.000 A 
ATOM     17  C   UNL     1      45.965   1.148   7.990  0.00  0.00    +0.000 A 
ATOM     18  C   UNL     1      46.684   2.219   7.447  0.00  0.00    +0.000 A 
ATOM     19  C   UNL     1      46.447   3.522   7.911  0.00  0.00    +0.000 A 
BRANCH  18  20
ATOM     20  C   UNL     1      47.657   1.982   6.421  0.00  0.00    +0.000 C 
ATOM     21  N   UNL     1      48.449   1.784   5.594  0.00  0.00    +0.000 NA
ENDBRANCH  18  20
ENDBRANCH  12  14
ENDBRANCH   1  12
TORSDOF 5
ENDMDL
MODEL 8
REMARK VINA RESULT:    -5.679      3.697      5.954
REMARK INTER + INTRA:          -7.910
REMARK INTER:                  -7.557
REMARK INTRA:                  -0.353
REMARK UNBOUND:                -0.571
REMARK  Name = 
REMARK  5 active torsions:
REMARK  status: ('A' for Active; 'I' for Inactive)
REMARK    1  A    between atoms: C_2  and  C_3
REMARK    2  A    between atoms: N_7  and  C_8
REMARK    3  A    between atoms: C_8  and  C_9
REMARK    4  A    between atoms: C_9  and  C_11
REMARK    5  A    between atoms: C_15  and  C_16
REMARK                            x       y       z     vdW  Elec       q    Type
REMARK                         _______ _______ _______ _____ _____    ______ ____
ROOT
ATOM      1  C   UNL     1      47.122   3.927  15.720  0.00  0.00    +0.000 C 
ENDROOT
BRANCH   1   6
ATOM      2  C   UNL     1      45.255   4.608  11.156  0.00  0.00    +0.000 A 
ATOM      3  C   UNL     1      45.662   5.879  11.549  0.00  0.00    +0.000 A 
ATOM      4  C   UNL     1      46.264   6.051  12.801  0.00  0.00    +0.000 A 
ATOM      5  C   UNL     1      46.445   4.952  13.641  0.00  0.00    +0.000 A 
ATOM      6  N   UNL     1      47.106   5.137  14.870  0.00  0.00    +0.000 N 
ATOM      7  N   UNL     1      46.066   3.716  13.256  0.00  0.00    +0.000 NA
ATOM      8  C   UNL     1      45.480   3.568  12.039  0.00  0.00    +0.000 A 
ATOM      9  H   UNL     1      46.712   5.938  15.360  0.00  0.00    +0.000 HD
BRANCH   2  11
ATOM     10  N   UNL     1      44.132   4.182   8.860  0.00  0.00    +0.000 NA
ATOM     11  C   UNL     1      44.634   4.373   9.891  0.00  0.00    +0.000 C 
ENDBRANCH   2  11
ENDBRANCH   1   6
BRANCH   1  12
ATOM     12  C   UNL     1      47.547   4.248  17.168  0.00  0.00    +0.000 C 
ATOM     13  F   UNL     1      46.923   3.351  17.999  0.00  0.00    +0.000 F 
BRANCH  12  14
ATOM     14  C   UNL     1      49.056   4.219  17.338  0.00  0.00    +0.000 A 
ATOM     15  C   UNL     1      49.777   5.420  17.418  0.00  0.00    +0.000 A 
ATOM     16  C   UNL     1      51.166   5.411  17.561  0.00  0.00    +0.000 A 
ATOM     17  C   UNL     1      51.856   4.200  17.624  0.00  0.00    +0.000 A 
ATOM     18  C   UNL     1      51.156   2.992  17.549  0.00  0.00    +0.000 A 
ATOM     19  C   UNL     1      49.760   3.004  17.404  0.00  0.00    +0.000 A 
BRANCH  18  20
ATOM     20  C   UNL     1      51.864   1.746  17.620  0.00  0.00    +0.000 C 
ATOM     21  N   UNL     1      52.437   0.736  17.669  0.00  0.00    +0.000 NA
ENDBRANCH  18  20
ENDBRANCH  12  14
ENDBRANCH   1  12
TORSDOF 5
ENDMDL
MODEL 9
REMARK VINA RESULT:    -5.676      2.488      5.823
REMARK INTER + INTRA:          -7.906
REMARK INTER:                  -7.623
REMARK INTRA:                  -0.283
REMARK UNBOUND:                -0.571
REMARK  Name = 
REMARK  5 active torsions:
REMARK  status: ('A' for Active; 'I' for Inactive)
REMARK    1  A    between atoms: C_2  and  C_3
REMARK    2  A    between atoms: N_7  and  C_8
REMARK    3  A    between atoms: C_8  and  C_9
REMARK    4  A    between atoms: C_9  and  C_11
REMARK    5  A    between atoms: C_15  and  C_16
REMARK                            x       y       z     vdW  Elec       q    Type
REMARK                         _______ _______ _______ _____ _____    ______ ____
ROOT
ATOM      1  C   UNL     1      43.415   5.582  13.116  0.00  0.00    +0.000 C 
ENDROOT
BRANCH   1   6
ATOM      2  C   UNL     1      47.758   7.871  12.292  0.00  0.00    +0.000 A 
ATOM      3  C   UNL     1      48.122   6.591  12.695  0.00  0.00    +0.000 A 
ATOM      4  C   UNL     1      47.123   5.656  12.994  0.00  0.00    +0.000 A 
ATOM      5  C   UNL     1      45.780   6.016  12.889  0.00  0.00    +0.000 A 
ATOM      6  N   UNL     1      44.792   5.044  13.137  0.00  0.00    +0.000 N 
ATOM      7  N   UNL     1      45.424   7.253  12.482  0.00  0.00    +0.000 NA
ATOM      8  C   UNL     1      46.406   8.149  12.200  0.00  0.00    +0.000 A 
ATOM      9  H   UNL     1      44.995   4.556  14.007  0.00  0.00    +0.000 HD
BRANCH   2  11
ATOM     10  N   UNL     1      49.525   9.677  11.720  0.00  0.00    +0.000 NA
ATOM     11  C   UNL     1      48.733   8.867  11.975  0.00  0.00    +0.000 C 
ENDBRANCH   2  11
ENDBRANCH   1   6
BRANCH   1  12
ATOM     12  C   UNL     1      42.706   5.294  11.776  0.00  0.00    +0.000 C 
ATOM     13  F   UNL     1      42.592   6.480  11.097  0.00  0.00    +0.000 F 
BRANCH  12  14
ATOM     14  C   UNL     1      43.438   4.244  10.960  0.00  0.00    +0.000 A 
ATOM     15  C   UNL     1      43.329   2.887  11.301  0.00  0.00    +0.000 A 
ATOM     16  C   UNL     1      44.007   1.909  10.569  0.00  0.00    +0.000 A 
ATOM     17  C   UNL     1      44.806   2.274   9.484  0.00  0.00    +0.000 A 
ATOM     18  C   UNL     1      44.925   3.621   9.127  0.00  0.00    +0.000 A 
ATOM     19  C   UNL     1      44.244   4.601   9.865  0.00  0.00    +0.000 A 
BRANCH  18  20
ATOM     20  C   UNL     1      45.742   3.997   8.008  0.00  0.00    +0.000 C 
ATOM     21  N   UNL     1      46.410   4.299   7.107  0.00  0.00    +0.000 NA
ENDBRANCH  18  20
ENDBRANCH  12  14
ENDBRANCH   1  12
TORSDOF 5
ENDMDL
