MODEL 1
REMARK VINA RESULT:    -8.997      0.000      0.000
REMARK INTER + INTRA:         -12.918
REMARK INTER:                 -12.152
REMARK INTRA:                  -0.766
REMARK UNBOUND:                -0.766
REMARK  Name = 
REMARK  6 active torsions:
REMARK  status: ('A' for Active; 'I' for Inactive)
REMARK    1  A    between atoms: C_2  and  C_4
REMARK    2  A    between atoms: N_8  and  C_9
REMARK    3  A    between atoms: C_9  and  C_10
REMARK    4  A    between atoms: C_10  and  C_13
REMARK    5  A    between atoms: C_18  and  N_19
REMARK    6  A    between atoms: N_19  and  C_20
REMARK                            x       y       z     vdW  Elec       q    Type
REMARK                         _______ _______ _______ _____ _____    ______ ____
ROOT
ATOM      1  C   UNL     1      43.152   5.468  12.127  0.00  0.00    +0.000 C 
ATOM      2  F   UNL     1      42.499   6.587  11.677  0.00  0.00    +0.000 F 
ATOM      3  F   UNL     1      42.388   5.006  13.161  0.00  0.00    +0.000 F 
ENDROOT
BRANCH   1   4
ATOM      4  C   UNL     1      44.570   5.775  12.569  0.00  0.00    +0.000 A 
ATOM      5  C   UNL     1      45.179   6.980  12.196  0.00  0.00    +0.000 A 
ATOM      6  C   UNL     1      46.465   7.284  12.638  0.00  0.00    +0.000 A 
ATOM      7  C   UNL     1      47.153   6.381  13.454  0.00  0.00    +0.000 A 
ATOM      8 CL   UNL     1      48.733   6.820  14.005  0.00  0.00    +0.000 Cl
ATOM      9  C   UNL     1      46.569   5.160  13.846  0.00  0.00    +0.000 A 
ATOM     10  C   UNL     1      45.278   4.870  13.380  0.00  0.00    +0.000 A 
BRANCH   9  11
ATOM     11  N   UNL     1      47.299   4.217  14.615  0.00  0.00    +0.000 N 
ATOM     12  H   UNL     1      48.246   4.099  14.246  0.00  0.00    +0.000 HD
BRANCH  11  13
ATOM     13  C   UNL     1      47.200   4.032  16.041  0.00  0.00    +0.000 C 
ATOM     14  C   UNL     1      48.098   4.971  16.857  0.00  0.00    +0.000 C 
ATOM     15  O   UNL     1      48.797   3.853  17.458  0.00  0.00    +0.000 OA
ATOM     16  C   UNL     1      48.109   2.923  16.584  0.00  0.00    +0.000 C 
ENDBRANCH  11  13
ENDBRANCH   9  11
ENDBRANCH   1   4
BRANCH   1  17
ATOM     17  C   UNL     1      43.150   4.426  10.981  0.00  0.00    +0.000 C 
BRANCH  17  22
ATOM     18  C   UNL     1      46.307   2.054   7.916  0.00  0.00    +0.000 A 
ATOM     19  C   UNL     1      46.338   3.378   7.490  0.00  0.00    +0.000 A 
ATOM     20  C   UNL     1      45.540   4.318   8.144  0.00  0.00    +0.000 A 
ATOM     21  C   UNL     1      44.739   3.929   9.216  0.00  0.00    +0.000 A 
ATOM     22  N   UNL     1      43.913   4.892   9.806  0.00  0.00    +0.000 N 
ATOM     23  N   UNL     1      44.696   2.645   9.627  0.00  0.00    +0.000 NA
ATOM     24  C   UNL     1      45.465   1.737   8.971  0.00  0.00    +0.000 A 
ATOM     25  H   UNL     1      44.430   5.747   9.997  0.00  0.00    +0.000 HD
BRANCH  18  27
ATOM     26  N   UNL     1      46.820  -0.308   7.652  0.00  0.00    +0.000 N 
ATOM     27  C   UNL     1      47.090   0.979   7.275  0.00  0.00    +0.000 C 
ATOM     28  O   UNL     1      47.929   1.222   6.418  0.00  0.00    +0.000 OA
ATOM     29  H   UNL     1      47.297  -1.038   7.138  0.00  0.00    +0.000 HD
ATOM     30  H   UNL     1      45.991  -0.567   8.168  0.00  0.00    +0.000 HD
ENDBRANCH  18  27
ENDBRANCH  17  22
ENDBRANCH   1  17
TORSDOF 6
ENDMDL
MODEL 2
REMARK VINA RESULT:    -8.774      2.670      3.754
REMARK INTER + INTRA:         -12.617
REMARK INTER:                 -11.849
REMARK INTRA:                  -0.768
REMARK UNBOUND:                -0.766
REMARK  Name = 
REMARK  6 active torsions:
REMARK  status: ('A' for Active; 'I' for Inactive)
REMARK    1  A    between atoms: C_2  and  C_4
REMARK    2  A    between atoms: N_8  and  C_9
REMARK    3  A    between atoms: C_9  and  C_10
REMARK    4  A    between atoms: C_10  and  C_13
REMARK    5  A    between atoms: C_18  and  N_19
REMARK    6  A    between atoms: N_19  and  C_20
REMARK                            x       y       z     vdW  Elec       q    Type
REMARK                         _______ _______ _______ _____ _____    ______ ____
ROOT
ATOM      1  C   UNL     1      43.351   4.606  12.635  0.00  0.00    +0.000 C 
ATOM      2  F   UNL     1      42.349   5.542  12.655  0.00  0.00    +0.000 F 
ATOM      3  F   UNL     1      43.029   3.725  13.628  0.00  0.00    +0.000 F 
ENDROOT
BRANCH   1   4
ATOM      4  C   UNL     1      44.717   5.228  12.857  0.00  0.00    +0.000 A 
ATOM      5  C   UNL     1      45.827   4.414  13.118  0.00  0.00    +0.000 A 
ATOM      6  C   UNL     1      47.090   4.979  13.278  0.00  0.00    +0.000 A 
ATOM      7  C   UNL     1      47.252   6.364  13.183  0.00  0.00    +0.000 A 
ATOM      8 CL   UNL     1      48.846   7.014  13.353  0.00  0.00    +0.000 Cl
ATOM      9  C   UNL     1      46.155   7.211  12.922  0.00  0.00    +0.000 A 
ATOM     10  C   UNL     1      44.891   6.621  12.776  0.00  0.00    +0.000 A 
BRANCH   9  11
ATOM     11  N   UNL     1      46.312   8.621  12.897  0.00  0.00    +0.000 N 
ATOM     12  H   UNL     1      47.180   8.900  13.362  0.00  0.00    +0.000 HD
BRANCH  11  13
ATOM     13  C   UNL     1      45.919   9.496  11.822  0.00  0.00    +0.000 C 
ATOM     14  C   UNL     1      46.425  10.936  11.969  0.00  0.00    +0.000 C 
ATOM     15  O   UNL     1      45.074  11.459  11.965  0.00  0.00    +0.000 OA
ATOM     16  C   UNL     1      44.530  10.117  12.008  0.00  0.00    +0.000 C 
ENDBRANCH  11  13
ENDBRANCH   9  11
ENDBRANCH   1   4
BRANCH   1  17
ATOM     17  C   UNL     1      43.295   3.883  11.267  0.00  0.00    +0.000 C 
BRANCH  17  22
ATOM     18  C   UNL     1      46.517   2.524   7.695  0.00  0.00    +0.000 A 
ATOM     19  C   UNL     1      46.412   3.904   7.561  0.00  0.00    +0.000 A 
ATOM     20  C   UNL     1      45.562   4.604   8.419  0.00  0.00    +0.000 A 
ATOM     21  C   UNL     1      44.845   3.923   9.402  0.00  0.00    +0.000 A 
ATOM     22  N   UNL     1      43.963   4.657  10.202  0.00  0.00    +0.000 N 
ATOM     23  N   UNL     1      44.934   2.583   9.529  0.00  0.00    +0.000 NA
ATOM     24  C   UNL     1      45.752   1.912   8.676  0.00  0.00    +0.000 A 
ATOM     25  H   UNL     1      44.410   5.498  10.560  0.00  0.00    +0.000 HD
BRANCH  18  27
ATOM     26  N   UNL     1      48.461   2.277   6.256  0.00  0.00    +0.000 N 
ATOM     27  C   UNL     1      47.364   1.688   6.821  0.00  0.00    +0.000 C 
ATOM     28  O   UNL     1      47.115   0.504   6.631  0.00  0.00    +0.000 OA
ATOM     29  H   UNL     1      49.083   1.669   5.737  0.00  0.00    +0.000 HD
ATOM     30  H   UNL     1      48.830   3.164   6.568  0.00  0.00    +0.000 HD
ENDBRANCH  18  27
ENDBRANCH  17  22
ENDBRANCH   1  17
TORSDOF 6
ENDMDL
MODEL 3
REMARK VINA RESULT:    -8.425      3.195      4.334
REMARK INTER + INTRA:         -12.146
REMARK INTER:                 -11.485
REMARK INTRA:                  -0.661
REMARK UNBOUND:                -0.766
REMARK  Name = 
REMARK  6 active torsions:
REMARK  status: ('A' for Active; 'I' for Inactive)
REMARK    1  A    between atoms: C_2  and  C_4
REMARK    2  A    between atoms: N_8  and  C_9
REMARK    3  A    between atoms: C_9  and  C_10
REMARK    4  A    between atoms: C_10  and  C_13
REMARK    5  A    between atoms: C_18  and  N_19
REMARK    6  A    between atoms: N_19  and  C_20
REMARK                            x       y       z     vdW  Elec       q    Type
REMARK                         _______ _______ _______ _____ _____    ______ ____
ROOT
ATOM      1  C   UNL     1      43.803   4.764  12.413  0.00  0.00    +0.000 C 
ATOM      2  F   UNL     1      42.788   4.984  13.310  0.00  0.00    +0.000 F 
ATOM      3  F   UNL     1      44.391   3.603  12.827  0.00  0.00    +0.000 F 
ENDROOT
BRANCH   1   4
ATOM      4  C   UNL     1      44.792   5.913  12.378  0.00  0.00    +0.000 A 
ATOM      5  C   UNL     1      46.154   5.664  12.168  0.00  0.00    +0.000 A 
ATOM      6  C   UNL     1      47.058   6.721  12.090  0.00  0.00    +0.000 A 
ATOM      7  C   UNL     1      46.607   8.036  12.228  0.00  0.00    +0.000 A 
ATOM      8 CL   UNL     1      47.764   9.315  12.088  0.00  0.00    +0.000 Cl
ATOM      9  C   UNL     1      45.243   8.321  12.441  0.00  0.00    +0.000 A 
ATOM     10  C   UNL     1      44.353   7.241  12.527  0.00  0.00    +0.000 A 
BRANCH   9  11
ATOM     11  N   UNL     1      44.801   9.653  12.651  0.00  0.00    +0.000 N 
ATOM     12  H   UNL     1      45.312  10.091  13.421  0.00  0.00    +0.000 HD
BRANCH  11  13
ATOM     13  C   UNL     1      44.387  10.577  11.625  0.00  0.00    +0.000 C 
ATOM     14  C   UNL     1      42.891  10.916  11.655  0.00  0.00    +0.000 C 
ATOM     15  O   UNL     1      42.705  10.414  10.309  0.00  0.00    +0.000 OA
ATOM     16  C   UNL     1      44.062   9.907  10.285  0.00  0.00    +0.000 C 
ENDBRANCH  11  13
ENDBRANCH   9  11
ENDBRANCH   1   4
BRANCH   1  17
ATOM     17  C   UNL     1      43.163   4.549  11.019  0.00  0.00    +0.000 C 
BRANCH  17  22
ATOM     18  C   UNL     1      46.300   2.142   7.961  0.00  0.00    +0.000 A 
ATOM     19  C   UNL     1      46.467   3.486   7.642  0.00  0.00    +0.000 A 
ATOM     20  C   UNL     1      45.710   4.441   8.322  0.00  0.00    +0.000 A 
ATOM     21  C   UNL     1      44.813   4.046   9.314  0.00  0.00    +0.000 A 
ATOM     22  N   UNL     1      44.034   5.032   9.929  0.00  0.00    +0.000 N 
ATOM     23  N   UNL     1      44.639   2.744   9.620  0.00  0.00    +0.000 NA
ATOM     24  C   UNL     1      45.371   1.823   8.939  0.00  0.00    +0.000 A 
ATOM     25  H   UNL     1      44.607   5.823  10.215  0.00  0.00    +0.000 HD
BRANCH  18  27
ATOM     26  N   UNL     1      46.717  -0.231   7.636  0.00  0.00    +0.000 N 
ATOM     27  C   UNL     1      47.030   1.052   7.283  0.00  0.00    +0.000 C 
ATOM     28  O   UNL     1      47.864   1.283   6.417  0.00  0.00    +0.000 OA
ATOM     29  H   UNL     1      47.157  -0.967   7.098  0.00  0.00    +0.000 HD
ATOM     30  H   UNL     1      45.887  -0.470   8.160  0.00  0.00    +0.000 HD
ENDBRANCH  18  27
ENDBRANCH  17  22
ENDBRANCH   1  17
TORSDOF 6
ENDMDL
MODEL 4
REMARK VINA RESULT:    -7.994      2.554      3.113
REMARK INTER + INTRA:         -11.563
REMARK INTER:                 -10.805
REMARK INTRA:                  -0.758
REMARK UNBOUND:                -0.766
REMARK  Name = 
REMARK  6 active torsions:
REMARK  status: ('A' for Active; 'I' for Inactive)
REMARK    1  A    between atoms: C_2  and  C_4
REMARK    2  A    between atoms: N_8  and  C_9
REMARK    3  A    between atoms: C_9  and  C_10
REMARK    4  A    between atoms: C_10  and  C_13
REMARK    5  A    between atoms: C_18  and  N_19
REMARK    6  A    between atoms: N_19  and  C_20
REMARK                            x       y       z     vdW  Elec       q    Type
REMARK                         _______ _______ _______ _____ _____    ______ ____
ROOT
ATOM      1  C   UNL     1      44.029   5.004  12.280  0.00  0.00    +0.000 C 
ATOM      2  F   UNL     1      43.027   4.868  13.206  0.00  0.00    +0.000 F 
ATOM      3  F   UNL     1      45.011   4.152  12.697  0.00  0.00    +0.000 F 
ENDROOT
BRANCH   1   4
ATOM      4  C   UNL     1      44.528   6.434  12.185  0.00  0.00    +0.000 A 
ATOM      5  C   UNL     1      44.018   7.294  11.204  0.00  0.00    +0.000 A 
ATOM      6  C   UNL     1      44.442   8.619  11.143  0.00  0.00    +0.000 A 
ATOM      7  C   UNL     1      45.383   9.093  12.060  0.00  0.00    +0.000 A 
ATOM      8 CL   UNL     1      45.850  10.756  11.965  0.00  0.00    +0.000 Cl
ATOM      9  C   UNL     1      45.916   8.253  13.059  0.00  0.00    +0.000 A 
ATOM     10  C   UNL     1      45.484   6.920  13.094  0.00  0.00    +0.000 A 
BRANCH   9  11
ATOM     11  N   UNL     1      46.924   8.720  13.943  0.00  0.00    +0.000 N 
ATOM     12  H   UNL     1      46.570   8.780  14.901  0.00  0.00    +0.000 HD
BRANCH  11  13
ATOM     13  C   UNL     1      48.330   8.417  13.858  0.00  0.00    +0.000 C 
ATOM     14  C   UNL     1      48.761   7.821  12.512  0.00  0.00    +0.000 C 
ATOM     15  O   UNL     1      49.246   6.615  13.151  0.00  0.00    +0.000 OA
ATOM     16  C   UNL     1      48.700   7.041  14.423  0.00  0.00    +0.000 C 
ENDBRANCH  11  13
ENDBRANCH   9  11
ENDBRANCH   1   4
BRANCH   1  17
ATOM     17  C   UNL     1      43.478   4.525  10.914  0.00  0.00    +0.000 C 
BRANCH  17  22
ATOM     18  C   UNL     1      46.468   2.790   7.303  0.00  0.00    +0.000 A 
ATOM     19  C   UNL     1      46.013   1.649   7.956  0.00  0.00    +0.000 A 
ATOM     20  C   UNL     1      45.150   1.791   9.044  0.00  0.00    +0.000 A 
ATOM     21  C   UNL     1      44.746   3.060   9.454  0.00  0.00    +0.000 A 
ATOM     22  N   UNL     1      43.926   3.158  10.584  0.00  0.00    +0.000 N 
ATOM     23  N   UNL     1      45.192   4.171   8.833  0.00  0.00    +0.000 NA
ATOM     24  C   UNL     1      46.044   4.019   7.785  0.00  0.00    +0.000 A 
ATOM     25  H   UNL     1      43.151   2.501  10.529  0.00  0.00    +0.000 HD
BRANCH  18  27
ATOM     26  N   UNL     1      48.703   2.416   6.422  0.00  0.00    +0.000 N 
ATOM     27  C   UNL     1      47.403   2.752   6.161  0.00  0.00    +0.000 C 
ATOM     28  O   UNL     1      47.028   2.981   5.019  0.00  0.00    +0.000 OA
ATOM     29  H   UNL     1      49.309   2.301   5.619  0.00  0.00    +0.000 HD
ATOM     30  H   UNL     1      48.998   1.995   7.292  0.00  0.00    +0.000 HD
ENDBRANCH  18  27
ENDBRANCH  17  22
ENDBRANCH   1  17
TORSDOF 6
ENDMDL
MODEL 5
REMARK VINA RESULT:    -6.973      2.862      8.140
REMARK INTER + INTRA:         -10.184
REMARK INTER:                  -9.607
REMARK INTRA:                  -0.577
REMARK UNBOUND:                -0.766
REMARK  Name = 
REMARK  6 active torsions:
REMARK  status: ('A' for Active; 'I' for Inactive)
REMARK    1  A    between atoms: C_2  and  C_4
REMARK    2  A    between atoms: N_8  and  C_9
REMARK    3  A    between atoms: C_9  and  C_10
REMARK    4  A    between atoms: C_10  and  C_13
REMARK    5  A    between atoms: C_18  and  N_19
REMARK    6  A    between atoms: N_19  and  C_20
REMARK                            x       y       z     vdW  Elec       q    Type
REMARK                         _______ _______ _______ _____ _____    ______ ____
ROOT
ATOM      1  C   UNL     1      47.565   7.017  12.221  0.00  0.00    +0.000 C 
ATOM      2  F   UNL     1      47.054   8.186  12.723  0.00  0.00    +0.000 F 
ATOM      3  F   UNL     1      48.121   7.362  11.022  0.00  0.00    +0.000 F 
ENDROOT
BRANCH   1   4
ATOM      4  C   UNL     1      46.497   5.951  12.059  0.00  0.00    +0.000 A 
ATOM      5  C   UNL     1      46.182   5.102  13.127  0.00  0.00    +0.000 A 
ATOM      6  C   UNL     1      45.172   4.152  12.996  0.00  0.00    +0.000 A 
ATOM      7  C   UNL     1      44.472   4.041  11.791  0.00  0.00    +0.000 A 
ATOM      8 CL   UNL     1      43.202   2.871  11.690  0.00  0.00    +0.000 Cl
ATOM      9  C   UNL     1      44.765   4.880  10.697  0.00  0.00    +0.000 A 
ATOM     10  C   UNL     1      45.794   5.821  10.849  0.00  0.00    +0.000 A 
BRANCH   9  11
ATOM     11  N   UNL     1      44.100   4.716   9.454  0.00  0.00    +0.000 N 
ATOM     12  H   UNL     1      43.672   5.595   9.151  0.00  0.00    +0.000 HD
BRANCH  11  13
ATOM     13  C   UNL     1      44.531   3.871   8.370  0.00  0.00    +0.000 C 
ATOM     14  C   UNL     1      44.944   2.459   8.803  0.00  0.00    +0.000 C 
ATOM     15  O   UNL     1      46.281   2.641   8.276  0.00  0.00    +0.000 OA
ATOM     16  C   UNL     1      46.010   4.039   8.007  0.00  0.00    +0.000 C 
ENDBRANCH  11  13
ENDBRANCH   9  11
ENDBRANCH   1   4
BRANCH   1  17
ATOM     17  C   UNL     1      48.677   6.534  13.184  0.00  0.00    +0.000 C 
BRANCH  17  22
ATOM     18  C   UNL     1      48.614   5.523  18.079  0.00  0.00    +0.000 A 
ATOM     19  C   UNL     1      48.689   6.910  18.012  0.00  0.00    +0.000 A 
ATOM     20  C   UNL     1      48.737   7.525  16.760  0.00  0.00    +0.000 A 
ATOM     21  C   UNL     1      48.696   6.753  15.600  0.00  0.00    +0.000 A 
ATOM     22  N   UNL     1      48.803   7.407  14.368  0.00  0.00    +0.000 N 
ATOM     23  N   UNL     1      48.635   5.407  15.659  0.00  0.00    +0.000 NA
ATOM     24  C   UNL     1      48.605   4.820  16.884  0.00  0.00    +0.000 A 
ATOM     25  H   UNL     1      48.177   8.208  14.325  0.00  0.00    +0.000 HD
BRANCH  18  27
ATOM     26  N   UNL     1      48.424   3.418  19.281  0.00  0.00    +0.000 N 
ATOM     27  C   UNL     1      48.587   4.774  19.352  0.00  0.00    +0.000 C 
ATOM     28  O   UNL     1      48.733   5.337  20.428  0.00  0.00    +0.000 OA
ATOM     29  H   UNL     1      48.501   2.909  20.153  0.00  0.00    +0.000 HD
ATOM     30  H   UNL     1      48.536   2.895  18.425  0.00  0.00    +0.000 HD
ENDBRANCH  18  27
ENDBRANCH  17  22
ENDBRANCH   1  17
TORSDOF 6
ENDMDL
MODEL 6
REMARK VINA RESULT:    -6.771      2.123      2.581
REMARK INTER + INTRA:          -9.912
REMARK INTER:                  -9.153
REMARK INTRA:                  -0.759
REMARK UNBOUND:                -0.766
REMARK  Name = 
REMARK  6 active torsions:
REMARK  status: ('A' for Active; 'I' for Inactive)
REMARK    1  A    between atoms: C_2  and  C_4
REMARK    2  A    between atoms: N_8  and  C_9
REMARK    3  A    between atoms: C_9  and  C_10
REMARK    4  A    between atoms: C_10  and  C_13
REMARK    5  A    between atoms: C_18  and  N_19
REMARK    6  A    between atoms: N_19  and  C_20
REMARK                            x       y       z     vdW  Elec       q    Type
REMARK                         _______ _______ _______ _____ _____    ______ ____
ROOT
ATOM      1  C   UNL     1      45.317   6.338  12.508  0.00  0.00    +0.000 C 
ATOM      2  F   UNL     1      44.484   7.299  13.020  0.00  0.00    +0.000 F 
ATOM      3  F   UNL     1      45.058   5.219  13.249  0.00  0.00    +0.000 F 
ENDROOT
BRANCH   1   4
ATOM      4  C   UNL     1      46.776   6.743  12.593  0.00  0.00    +0.000 A 
ATOM      5  C   UNL     1      47.439   7.229  11.459  0.00  0.00    +0.000 A 
ATOM      6  C   UNL     1      48.766   7.645  11.545  0.00  0.00    +0.000 A 
ATOM      7  C   UNL     1      49.442   7.571  12.766  0.00  0.00    +0.000 A 
ATOM      8 CL   UNL     1      51.077   8.131  12.829  0.00  0.00    +0.000 Cl
ATOM      9  C   UNL     1      48.804   7.085  13.925  0.00  0.00    +0.000 A 
ATOM     10  C   UNL     1      47.471   6.663  13.813  0.00  0.00    +0.000 A 
BRANCH   9  11
ATOM     11  N   UNL     1      49.515   6.946  15.145  0.00  0.00    +0.000 N 
ATOM     12  H   UNL     1      50.169   7.723  15.277  0.00  0.00    +0.000 HD
BRANCH  11  13
ATOM     13  C   UNL     1      48.989   6.411  16.375  0.00  0.00    +0.000 C 
ATOM     14  C   UNL     1      49.160   7.338  17.585  0.00  0.00    +0.000 C 
ATOM     15  O   UNL     1      49.938   6.343  18.293  0.00  0.00    +0.000 OA
ATOM     16  C   UNL     1      49.967   5.495  17.119  0.00  0.00    +0.000 C 
ENDBRANCH  11  13
ENDBRANCH   9  11
ENDBRANCH   1   4
BRANCH   1  17
ATOM     17  C   UNL     1      44.903   6.088  11.037  0.00  0.00    +0.000 C 
BRANCH  17  22
ATOM     18  C   UNL     1      46.478   3.170   7.296  0.00  0.00    +0.000 A 
ATOM     19  C   UNL     1      45.654   2.346   8.056  0.00  0.00    +0.000 A 
ATOM     20  C   UNL     1      45.053   2.864   9.204  0.00  0.00    +0.000 A 
ATOM     21  C   UNL     1      45.269   4.193   9.567  0.00  0.00    +0.000 A 
ATOM     22  N   UNL     1      44.692   4.654  10.756  0.00  0.00    +0.000 N 
ATOM     23  N   UNL     1      46.076   4.993   8.841  0.00  0.00    +0.000 NA
ATOM     24  C   UNL     1      46.668   4.471   7.735  0.00  0.00    +0.000 A 
ATOM     25  H   UNL     1      43.711   4.390  10.810  0.00  0.00    +0.000 HD
BRANCH  18  27
ATOM     26  N   UNL     1      48.522   2.458   6.188  0.00  0.00    +0.000 N 
ATOM     27  C   UNL     1      47.182   2.712   6.082  0.00  0.00    +0.000 C 
ATOM     28  O   UNL     1      46.589   2.538   5.025  0.00  0.00    +0.000 OA
ATOM     29  H   UNL     1      48.971   2.056   5.374  0.00  0.00    +0.000 HD
ATOM     30  H   UNL     1      48.994   2.361   7.076  0.00  0.00    +0.000 HD
ENDBRANCH  18  27
ENDBRANCH  17  22
ENDBRANCH   1  17
TORSDOF 6
ENDMDL
MODEL 7
REMARK VINA RESULT:    -6.687      3.899      5.825
REMARK INTER + INTRA:          -9.798
REMARK INTER:                  -8.821
REMARK INTRA:                  -0.977
REMARK UNBOUND:                -0.766
REMARK  Name = 
REMARK  6 active torsions:
REMARK  status: ('A' for Active; 'I' for Inactive)
REMARK    1  A    between atoms: C_2  and  C_4
REMARK    2  A    between atoms: N_8  and  C_9
REMARK    3  A    between atoms: C_9  and  C_10
REMARK    4  A    between atoms: C_10  and  C_13
REMARK    5  A    between atoms: C_18  and  N_19
REMARK    6  A    between atoms: N_19  and  C_20
REMARK                            x       y       z     vdW  Elec       q    Type
REMARK                         _______ _______ _______ _____ _____    ______ ____
ROOT
ATOM      1  C   UNL     1      49.092   8.032  15.564  0.00  0.00    +0.000 C 
ATOM      2  F   UNL     1      50.091   8.970  15.603  0.00  0.00    +0.000 F 
ATOM      3  F   UNL     1      47.947   8.745  15.349  0.00  0.00    +0.000 F 
ENDROOT
BRANCH   1   4
ATOM      4  C   UNL     1      49.019   7.223  16.846  0.00  0.00    +0.000 A 
ATOM      5  C   UNL     1      48.327   7.724  17.956  0.00  0.00    +0.000 A 
ATOM      6  C   UNL     1      48.219   6.965  19.118  0.00  0.00    +0.000 A 
ATOM      7  C   UNL     1      48.809   5.700  19.182  0.00  0.00    +0.000 A 
ATOM      8 CL   UNL     1      48.618   4.781  20.635  0.00  0.00    +0.000 Cl
ATOM      9  C   UNL     1      49.514   5.167  18.083  0.00  0.00    +0.000 A 
ATOM     10  C   UNL     1      49.618   5.954  16.927  0.00  0.00    +0.000 A 
BRANCH   9  11
ATOM     11  N   UNL     1      50.170   3.912  18.177  0.00  0.00    +0.000 N 
ATOM     12  H   UNL     1      50.803   3.890  18.980  0.00  0.00    +0.000 HD
BRANCH  11  13
ATOM     13  C   UNL     1      49.595   2.632  17.851  0.00  0.00    +0.000 C 
ATOM     14  C   UNL     1      50.450   1.786  16.898  0.00  0.00    +0.000 C 
ATOM     15  O   UNL     1      49.386   1.737  15.916  0.00  0.00    +0.000 OA
ATOM     16  C   UNL     1      48.600   2.680  16.686  0.00  0.00    +0.000 C 
ENDBRANCH  11  13
ENDBRANCH   9  11
ENDBRANCH   1   4
BRANCH   1  17
ATOM     17  C   UNL     1      49.359   7.108  14.350  0.00  0.00    +0.000 C 
BRANCH  17  22
ATOM     18  C   UNL     1      45.659   4.379  12.388  0.00  0.00    +0.000 A 
ATOM     19  C   UNL     1      45.730   5.504  11.573  0.00  0.00    +0.000 A 
ATOM     20  C   UNL     1      46.674   6.491  11.863  0.00  0.00    +0.000 A 
ATOM     21  C   UNL     1      47.536   6.335  12.948  0.00  0.00    +0.000 A 
ATOM     22  N   UNL     1      48.428   7.375  13.235  0.00  0.00    +0.000 N 
ATOM     23  N   UNL     1      47.464   5.252  13.748  0.00  0.00    +0.000 NA
ATOM     24  C   UNL     1      46.530   4.307  13.464  0.00  0.00    +0.000 A 
ATOM     25  H   UNL     1      48.911   7.683  12.395  0.00  0.00    +0.000 HD
BRANCH  18  27
ATOM     26  N   UNL     1      44.741   2.602  11.006  0.00  0.00    +0.000 N 
ATOM     27  C   UNL     1      44.679   3.293  12.185  0.00  0.00    +0.000 C 
ATOM     28  O   UNL     1      43.862   2.999  13.047  0.00  0.00    +0.000 OA
ATOM     29  H   UNL     1      44.127   1.801  10.920  0.00  0.00    +0.000 HD
ATOM     30  H   UNL     1      45.533   2.650  10.381  0.00  0.00    +0.000 HD
ENDBRANCH  18  27
ENDBRANCH  17  22
ENDBRANCH   1  17
TORSDOF 6
ENDMDL
MODEL 8
REMARK VINA RESULT:    -6.642      2.933      4.329
REMARK INTER + INTRA:          -9.737
REMARK INTER:                  -8.945
REMARK INTRA:                  -0.792
REMARK UNBOUND:                -0.766
REMARK  Name = 
REMARK  6 active torsions:
REMARK  status: ('A' for Active; 'I' for Inactive)
REMARK    1  A    between atoms: C_2  and  C_4
REMARK    2  A    between atoms: N_8  and  C_9
REMARK    3  A    between atoms: C_9  and  C_10
REMARK    4  A    between atoms: C_10  and  C_13
REMARK    5  A    between atoms: C_18  and  N_19
REMARK    6  A    between atoms: N_19  and  C_20
REMARK                            x       y       z     vdW  Elec       q    Type
REMARK                         _______ _______ _______ _____ _____    ______ ____
ROOT
ATOM      1  C   UNL     1      48.005   7.804  13.156  0.00  0.00    +0.000 C 
ATOM      2  F   UNL     1      48.594   6.805  12.424  0.00  0.00    +0.000 F 
ATOM      3  F   UNL     1      48.449   8.964  12.590  0.00  0.00    +0.000 F 
ENDROOT
BRANCH   1   4
ATOM      4  C   UNL     1      48.367   7.722  14.627  0.00  0.00    +0.000 A 
ATOM      5  C   UNL     1      48.311   8.868  15.431  0.00  0.00    +0.000 A 
ATOM      6  C   UNL     1      48.599   8.786  16.792  0.00  0.00    +0.000 A 
ATOM      7  C   UNL     1      48.952   7.558  17.357  0.00  0.00    +0.000 A 
ATOM      8 CL   UNL     1      49.266   7.503  19.057  0.00  0.00    +0.000 Cl
ATOM      9  C   UNL     1      49.019   6.387  16.576  0.00  0.00    +0.000 A 
ATOM     10  C   UNL     1      48.735   6.495  15.207  0.00  0.00    +0.000 A 
BRANCH   9  11
ATOM     11  N   UNL     1      49.445   5.157  17.141  0.00  0.00    +0.000 N 
ATOM     12  H   UNL     1      50.366   5.255  17.576  0.00  0.00    +0.000 HD
BRANCH  11  13
ATOM     13  C   UNL     1      48.598   4.182  17.780  0.00  0.00    +0.000 C 
ATOM     14  C   UNL     1      48.109   3.069  16.844  0.00  0.00    +0.000 C 
ATOM     15  O   UNL     1      46.723   3.413  17.087  0.00  0.00    +0.000 OA
ATOM     16  C   UNL     1      47.121   4.588  17.835  0.00  0.00    +0.000 C 
ENDBRANCH  11  13
ENDBRANCH   9  11
ENDBRANCH   1   4
BRANCH   1  17
ATOM     17  C   UNL     1      46.472   7.690  12.963  0.00  0.00    +0.000 C 
BRANCH  17  22
ATOM     18  C   UNL     1      44.885   3.808  10.244  0.00  0.00    +0.000 A 
ATOM     19  C   UNL     1      44.659   3.425  11.562  0.00  0.00    +0.000 A 
ATOM     20  C   UNL     1      45.012   4.299  12.591  0.00  0.00    +0.000 A 
ATOM     21  C   UNL     1      45.569   5.542  12.291  0.00  0.00    +0.000 A 
ATOM     22  N   UNL     1      45.960   6.363  13.355  0.00  0.00    +0.000 N 
ATOM     23  N   UNL     1      45.801   5.914  11.016  0.00  0.00    +0.000 NA
ATOM     24  C   UNL     1      45.468   5.047  10.025  0.00  0.00    +0.000 A 
ATOM     25  H   UNL     1      45.226   6.424  14.056  0.00  0.00    +0.000 HD
BRANCH  18  27
ATOM     26  N   UNL     1      44.216   3.565   7.920  0.00  0.00    +0.000 N 
ATOM     27  C   UNL     1      44.574   2.947   9.086  0.00  0.00    +0.000 C 
ATOM     28  O   UNL     1      44.659   1.728   9.153  0.00  0.00    +0.000 OA
ATOM     29  H   UNL     1      44.098   2.968   7.110  0.00  0.00    +0.000 HD
ATOM     30  H   UNL     1      44.360   4.551   7.753  0.00  0.00    +0.000 HD
ENDBRANCH  18  27
ENDBRANCH  17  22
ENDBRANCH   1  17
TORSDOF 6
ENDMDL
MODEL 9
REMARK VINA RESULT:    -6.574      4.199      6.361
REMARK INTER + INTRA:          -9.646
REMARK INTER:                  -9.006
REMARK INTRA:                  -0.640
REMARK UNBOUND:                -0.766
REMARK  Name = 
REMARK  6 active torsions:
REMARK  status: ('A' for Active; 'I' for Inactive)
REMARK    1  A    between atoms: C_2  and  C_4
REMARK    2  A    between atoms: N_8  and  C_9
REMARK    3  A    between atoms: C_9  and  C_10
REMARK    4  A    between atoms: C_10  and  C_13
REMARK    5  A    between atoms: C_18  and  N_19
REMARK    6  A    between atoms: N_19  and  C_20
REMARK                            x       y       z     vdW  Elec       q    Type
REMARK                         _______ _______ _______ _____ _____    ______ ____
ROOT
ATOM      1  C   UNL     1      48.025   4.605  17.094  0.00  0.00    +0.000 C 
ATOM      2  F   UNL     1      48.270   5.948  16.965  0.00  0.00    +0.000 F 
ATOM      3  F   UNL     1      47.145   4.507  18.135  0.00  0.00    +0.000 F 
ENDROOT
BRANCH   1   4
ATOM      4  C   UNL     1      49.294   3.816  17.354  0.00  0.00    +0.000 A 
ATOM      5  C   UNL     1      49.414   2.501  16.887  0.00  0.00    +0.000 A 
ATOM      6  C   UNL     1      50.595   1.790  17.085  0.00  0.00    +0.000 A 
ATOM      7  C   UNL     1      51.664   2.387  17.759  0.00  0.00    +0.000 A 
ATOM      8 CL   UNL     1      53.121   1.475  17.949  0.00  0.00    +0.000 Cl
ATOM      9  C   UNL     1      51.575   3.708  18.243  0.00  0.00    +0.000 A 
ATOM     10  C   UNL     1      50.372   4.401  18.041  0.00  0.00    +0.000 A 
BRANCH   9  11
ATOM     11  N   UNL     1      52.637   4.285  18.987  0.00  0.00    +0.000 N 
ATOM     12  H   UNL     1      53.030   3.609  19.646  0.00  0.00    +0.000 HD
BRANCH  11  13
ATOM     13  C   UNL     1      53.594   5.241  18.491  0.00  0.00    +0.000 C 
ATOM     14  C   UNL     1      53.498   5.498  16.982  0.00  0.00    +0.000 C 
ATOM     15  O   UNL     1      54.864   5.063  16.776  0.00  0.00    +0.000 OA
ATOM     16  C   UNL     1      54.959   4.631  18.156  0.00  0.00    +0.000 C 
ENDBRANCH  11  13
ENDBRANCH   9  11
ENDBRANCH   1   4
BRANCH   1  17
ATOM     17  C   UNL     1      47.338   4.123  15.793  0.00  0.00    +0.000 C 
BRANCH  17  22
ATOM     18  C   UNL     1      45.052   4.278  11.350  0.00  0.00    +0.000 A 
ATOM     19  C   UNL     1      45.609   5.544  11.498  0.00  0.00    +0.000 A 
ATOM     20  C   UNL     1      46.320   5.838  12.663  0.00  0.00    +0.000 A 
ATOM     21  C   UNL     1      46.476   4.866  13.650  0.00  0.00    +0.000 A 
ATOM     22  N   UNL     1      47.147   5.222  14.826  0.00  0.00    +0.000 N 
ATOM     23  N   UNL     1      45.928   3.641  13.518  0.00  0.00    +0.000 NA
ATOM     24  C   UNL     1      45.225   3.373  12.386  0.00  0.00    +0.000 A 
ATOM     25  H   UNL     1      48.016   5.706  14.616  0.00  0.00    +0.000 HD
BRANCH  18  27
ATOM     26  N   UNL     1      44.144   4.779   9.151  0.00  0.00    +0.000 N 
ATOM     27  C   UNL     1      44.259   3.875  10.171  0.00  0.00    +0.000 C 
ATOM     28  O   UNL     1      43.749   2.766  10.092  0.00  0.00    +0.000 OA
ATOM     29  H   UNL     1      43.678   4.455   8.312  0.00  0.00    +0.000 HD
ATOM     30  H   UNL     1      44.732   5.596   9.071  0.00  0.00    +0.000 HD
ENDBRANCH  18  27
ENDBRANCH  17  22
ENDBRANCH   1  17
TORSDOF 6
ENDMDL
