MODEL 1
REMARK VINA RESULT:    -8.410      0.000      0.000
REMARK INTER + INTRA:         -11.518
REMARK INTER:                 -10.869
REMARK INTRA:                  -0.649
REMARK UNBOUND:                -0.649
REMARK  Name = 
REMARK  9 active torsions:
REMARK  status: ('A' for Active; 'I' for Inactive)
REMARK    1  A    between atoms: C_1  and  C_2
REMARK    2  A    between atoms: N_4  and  C_5
REMARK    3  A    between atoms: C_9  and  C_10
REMARK    4  A    between atoms: C_10  and  C_11
REMARK    5  A    between atoms: C_10  and  C_12
REMARK    6  A    between atoms: C_10  and  C_13
REMARK    7  A    between atoms: C_13  and  N_14
REMARK    8  A    between atoms: C_18  and  C_19
REMARK    9  A    between atoms: C_26  and  C_27
REMARK                            x       y       z     vdW  Elec       q    Type
REMARK                         _______ _______ _______ _____ _____    ______ ____
ROOT
ATOM      1  C   UNL     1      44.155   4.443  12.251  0.00  0.00    +0.000 C 
ATOM      2  C   UNL     1      45.227   3.348  12.490  0.00  0.00    +0.000 C 
ATOM      3  C   UNL     1      43.149   4.437  13.422  0.00  0.00    +0.000 C 
ENDROOT
BRANCH   1   8
ATOM      4  C   UNL     1      47.018   7.063  12.268  0.00  0.00    +0.000 A 
ATOM      5  C   UNL     1      46.324   8.210  11.874  0.00  0.00    +0.000 A 
ATOM      6  C   UNL     1      44.947   8.192  11.664  0.00  0.00    +0.000 A 
ATOM      7  C   UNL     1      44.231   7.005  11.812  0.00  0.00    +0.000 A 
ATOM      8  C   UNL     1      44.874   5.816  12.187  0.00  0.00    +0.000 A 
ATOM      9  C   UNL     1      46.260   5.895  12.450  0.00  0.00    +0.000 A 
BRANCH   4  13
ATOM     10  C   UNL     1      49.204  10.022  11.531  0.00  0.00    +0.000 C 
ATOM     11  C   UNL     1      50.069   8.779  11.735  0.00  0.00    +0.000 C 
ATOM     12  C   UNL     1      49.336   7.463  11.407  0.00  0.00    +0.000 C 
ATOM     13  N   UNL     1      48.384   7.099  12.463  0.00  0.00    +0.000 N 
ATOM     14  C   UNL     1      48.944   7.130  13.825  0.00  0.00    +0.000 C 
ATOM     15  C   UNL     1      49.677   8.467  14.081  0.00  0.00    +0.000 C 
ATOM     16  C   UNL     1      50.421   8.423  15.410  0.00  0.00    +0.000 C 
ATOM     17  O   UNL     1      50.646   8.754  13.055  0.00  0.00    +0.000 OA
ENDBRANCH   4  13
ENDBRANCH   1   8
BRANCH   1  18
ATOM     18  C   UNL     1      43.408   4.123  10.918  0.00  0.00    +0.000 C 
BRANCH  18  19
ATOM     19  N   UNL     1      43.969   4.771   9.738  0.00  0.00    +0.000 N 
ATOM     20  C   UNL     1      44.913   4.085   8.986  0.00  0.00    +0.000 A 
ATOM     21  C   UNL     1      44.940   2.693   8.824  0.00  0.00    +0.000 A 
ATOM     22  N   UNL     1      45.830   2.025   8.041  0.00  0.00    +0.000 NA
ATOM     23  C   UNL     1      46.703   2.827   7.383  0.00  0.00    +0.000 A 
ATOM     24  C   UNL     1      46.689   4.207   7.522  0.00  0.00    +0.000 A 
ATOM     25  N   UNL     1      45.806   4.856   8.330  0.00  0.00    +0.000 NA
ATOM     26  H   UNL     1      44.306   5.725   9.844  0.00  0.00    +0.000 HD
BRANCH  23  27
ATOM     27  C   UNL     1      47.687   2.178   6.476  0.00  0.00    +0.000 C 
ATOM     28  N   UNL     1      47.948   2.827   5.297  0.00  0.00    +0.000 N 
ATOM     29  O   UNL     1      48.238   1.123   6.760  0.00  0.00    +0.000 OA
ATOM     30  H   UNL     1      47.488   3.705   5.078  0.00  0.00    +0.000 HD
ATOM     31  H   UNL     1      48.616   2.437   4.653  0.00  0.00    +0.000 HD
ENDBRANCH  23  27
ENDBRANCH  18  19
ENDBRANCH   1  18
TORSDOF 5
ENDMDL
MODEL 2
REMARK VINA RESULT:    -7.592      3.288      7.837
REMARK INTER + INTRA:         -10.461
REMARK INTER:                  -9.476
REMARK INTRA:                  -0.985
REMARK UNBOUND:                -0.649
REMARK  Name = 
REMARK  9 active torsions:
REMARK  status: ('A' for Active; 'I' for Inactive)
REMARK    1  A    between atoms: C_1  and  C_2
REMARK    2  A    between atoms: N_4  and  C_5
REMARK    3  A    between atoms: C_9  and  C_10
REMARK    4  A    between atoms: C_10  and  C_11
REMARK    5  A    between atoms: C_10  and  C_12
REMARK    6  A    between atoms: C_10  and  C_13
REMARK    7  A    between atoms: C_13  and  N_14
REMARK    8  A    between atoms: C_18  and  C_19
REMARK    9  A    between atoms: C_26  and  C_27
REMARK                            x       y       z     vdW  Elec       q    Type
REMARK                         _______ _______ _______ _____ _____    ______ ____
ROOT
ATOM      1  C   UNL     1      49.141   8.599  12.561  0.00  0.00    +0.000 C 
ATOM      2  C   UNL     1      49.981   7.439  11.966  0.00  0.00    +0.000 C 
ATOM      3  C   UNL     1      49.573   9.929  11.906  0.00  0.00    +0.000 C 
ENDROOT
BRANCH   1   8
ATOM      4  C   UNL     1      45.875   6.643  11.806  0.00  0.00    +0.000 A 
ATOM      5  C   UNL     1      44.931   7.670  11.890  0.00  0.00    +0.000 A 
ATOM      6  C   UNL     1      45.310   8.990  12.117  0.00  0.00    +0.000 A 
ATOM      7  C   UNL     1      46.654   9.312  12.300  0.00  0.00    +0.000 A 
ATOM      8  C   UNL     1      47.647   8.324  12.247  0.00  0.00    +0.000 A 
ATOM      9  C   UNL     1      47.224   7.009  11.952  0.00  0.00    +0.000 A 
BRANCH   4  13
ATOM     10  C   UNL     1      42.309   5.478  11.725  0.00  0.00    +0.000 C 
ATOM     11  C   UNL     1      43.244   4.274  11.837  0.00  0.00    +0.000 C 
ATOM     12  C   UNL     1      44.594   4.606  12.502  0.00  0.00    +0.000 C 
ATOM     13  N   UNL     1      45.480   5.338  11.589  0.00  0.00    +0.000 N 
ATOM     14  C   UNL     1      45.623   4.726  10.258  0.00  0.00    +0.000 C 
ATOM     15  C   UNL     1      44.236   4.404   9.656  0.00  0.00    +0.000 C 
ATOM     16  C   UNL     1      44.384   3.596   8.372  0.00  0.00    +0.000 C 
ATOM     17  O   UNL     1      43.423   3.631  10.559  0.00  0.00    +0.000 OA
ENDBRANCH   4  13
ENDBRANCH   1   8
BRANCH   1  18
ATOM     18  C   UNL     1      49.402   8.664  14.099  0.00  0.00    +0.000 C 
BRANCH  18  19
ATOM     19  N   UNL     1      50.177   7.549  14.629  0.00  0.00    +0.000 N 
ATOM     20  C   UNL     1      49.535   6.605  15.419  0.00  0.00    +0.000 A 
ATOM     21  C   UNL     1      48.194   6.225  15.269  0.00  0.00    +0.000 A 
ATOM     22  N   UNL     1      47.579   5.259  16.004  0.00  0.00    +0.000 NA
ATOM     23  C   UNL     1      48.387   4.648  16.906  0.00  0.00    +0.000 A 
ATOM     24  C   UNL     1      49.718   5.001  17.065  0.00  0.00    +0.000 A 
ATOM     25  N   UNL     1      50.309   5.989  16.336  0.00  0.00    +0.000 NA
ATOM     26  H   UNL     1      51.061   7.767  15.083  0.00  0.00    +0.000 HD
BRANCH  23  27
ATOM     27  C   UNL     1      47.801   3.554  17.726  0.00  0.00    +0.000 C 
ATOM     28  N   UNL     1      48.469   3.235  18.880  0.00  0.00    +0.000 N 
ATOM     29  O   UNL     1      46.780   2.967  17.395  0.00  0.00    +0.000 OA
ATOM     30  H   UNL     1      49.311   3.735  19.144  0.00  0.00    +0.000 HD
ATOM     31  H   UNL     1      48.108   2.511  19.478  0.00  0.00    +0.000 HD
ENDBRANCH  23  27
ENDBRANCH  18  19
ENDBRANCH   1  18
TORSDOF 5
ENDMDL
MODEL 3
REMARK VINA RESULT:    -7.254      3.660      6.250
REMARK INTER + INTRA:         -10.024
REMARK INTER:                  -9.019
REMARK INTRA:                  -1.004
REMARK UNBOUND:                -0.649
REMARK  Name = 
REMARK  9 active torsions:
REMARK  status: ('A' for Active; 'I' for Inactive)
REMARK    1  A    between atoms: C_1  and  C_2
REMARK    2  A    between atoms: N_4  and  C_5
REMARK    3  A    between atoms: C_9  and  C_10
REMARK    4  A    between atoms: C_10  and  C_11
REMARK    5  A    between atoms: C_10  and  C_12
REMARK    6  A    between atoms: C_10  and  C_13
REMARK    7  A    between atoms: C_13  and  N_14
REMARK    8  A    between atoms: C_18  and  C_19
REMARK    9  A    between atoms: C_26  and  C_27
REMARK                            x       y       z     vdW  Elec       q    Type
REMARK                         _______ _______ _______ _____ _____    ______ ____
ROOT
ATOM      1  C   UNL     1      48.884   8.108  13.508  0.00  0.00    +0.000 C 
ATOM      2  C   UNL     1      48.667   9.640  13.611  0.00  0.00    +0.000 C 
ATOM      3  C   UNL     1      49.346   7.753  12.079  0.00  0.00    +0.000 C 
ENDROOT
BRANCH   1   8
ATOM      4  C   UNL     1      50.636   6.276  16.447  0.00  0.00    +0.000 A 
ATOM      5  C   UNL     1      51.948   6.731  16.292  0.00  0.00    +0.000 A 
ATOM      6  C   UNL     1      52.285   7.662  15.313  0.00  0.00    +0.000 A 
ATOM      7  C   UNL     1      51.313   8.140  14.436  0.00  0.00    +0.000 A 
ATOM      8  C   UNL     1      49.982   7.706  14.527  0.00  0.00    +0.000 A 
ATOM      9  C   UNL     1      49.674   6.810  15.574  0.00  0.00    +0.000 A 
BRANCH   4  13
ATOM     10  C   UNL     1      47.605   4.066  16.388  0.00  0.00    +0.000 C 
ATOM     11  C   UNL     1      48.236   4.040  17.779  0.00  0.00    +0.000 C 
ATOM     12  C   UNL     1      49.033   5.316  18.115  0.00  0.00    +0.000 C 
ATOM     13  N   UNL     1      50.323   5.345  17.418  0.00  0.00    +0.000 N 
ATOM     14  C   UNL     1      51.117   4.112  17.553  0.00  0.00    +0.000 C 
ATOM     15  C   UNL     1      50.256   2.872  17.219  0.00  0.00    +0.000 C 
ATOM     16  C   UNL     1      51.014   1.591  17.548  0.00  0.00    +0.000 C 
ATOM     17  O   UNL     1      49.029   2.851  17.971  0.00  0.00    +0.000 OA
ENDBRANCH   4  13
ENDBRANCH   1   8
BRANCH   1  18
ATOM     18  C   UNL     1      47.529   7.393  13.813  0.00  0.00    +0.000 C 
BRANCH  18  19
ATOM     19  N   UNL     1      46.579   7.399  12.707  0.00  0.00    +0.000 N 
ATOM     20  C   UNL     1      45.984   6.202  12.332  0.00  0.00    +0.000 A 
ATOM     21  C   UNL     1      45.683   5.155  13.213  0.00  0.00    +0.000 A 
ATOM     22  N   UNL     1      45.047   4.005  12.858  0.00  0.00    +0.000 NA
ATOM     23  C   UNL     1      44.689   3.951  11.551  0.00  0.00    +0.000 A 
ATOM     24  C   UNL     1      44.969   4.978  10.663  0.00  0.00    +0.000 A 
ATOM     25  N   UNL     1      45.628   6.111  11.034  0.00  0.00    +0.000 NA
ATOM     26  H   UNL     1      46.859   7.875  11.853  0.00  0.00    +0.000 HD
BRANCH  23  27
ATOM     27  C   UNL     1      43.956   2.742  11.087  0.00  0.00    +0.000 C 
ATOM     28  N   UNL     1      44.436   2.137   9.954  0.00  0.00    +0.000 N 
ATOM     29  O   UNL     1      42.979   2.305  11.680  0.00  0.00    +0.000 OA
ATOM     30  H   UNL     1      45.252   2.508   9.478  0.00  0.00    +0.000 HD
ATOM     31  H   UNL     1      43.985   1.308   9.606  0.00  0.00    +0.000 HD
ENDBRANCH  23  27
ENDBRANCH  18  19
ENDBRANCH   1  18
TORSDOF 5
ENDMDL
MODEL 4
REMARK VINA RESULT:    -7.185      3.739      6.354
REMARK INTER + INTRA:          -9.935
REMARK INTER:                  -8.738
REMARK INTRA:                  -1.196
REMARK UNBOUND:                -0.649
REMARK  Name = 
REMARK  9 active torsions:
REMARK  status: ('A' for Active; 'I' for Inactive)
REMARK    1  A    between atoms: C_1  and  C_2
REMARK    2  A    between atoms: N_4  and  C_5
REMARK    3  A    between atoms: C_9  and  C_10
REMARK    4  A    between atoms: C_10  and  C_11
REMARK    5  A    between atoms: C_10  and  C_12
REMARK    6  A    between atoms: C_10  and  C_13
REMARK    7  A    between atoms: C_13  and  N_14
REMARK    8  A    between atoms: C_18  and  C_19
REMARK    9  A    between atoms: C_26  and  C_27
REMARK                            x       y       z     vdW  Elec       q    Type
REMARK                         _______ _______ _______ _____ _____    ______ ____
ROOT
ATOM      1  C   UNL     1      49.326   8.403  14.052  0.00  0.00    +0.000 C 
ATOM      2  C   UNL     1      48.653   9.658  13.437  0.00  0.00    +0.000 C 
ATOM      3  C   UNL     1      50.859   8.583  14.029  0.00  0.00    +0.000 C 
ENDROOT
BRANCH   1   8
ATOM      4  C   UNL     1      48.708   6.853  17.556  0.00  0.00    +0.000 A 
ATOM      5  C   UNL     1      48.202   7.959  18.244  0.00  0.00    +0.000 A 
ATOM      6  C   UNL     1      47.988   9.178  17.606  0.00  0.00    +0.000 A 
ATOM      7  C   UNL     1      48.309   9.330  16.258  0.00  0.00    +0.000 A 
ATOM      8  C   UNL     1      48.838   8.263  15.517  0.00  0.00    +0.000 A 
ATOM      9  C   UNL     1      48.981   7.028  16.189  0.00  0.00    +0.000 A 
BRANCH   4  13
ATOM     10  C   UNL     1      47.629   3.498  16.268  0.00  0.00    +0.000 C 
ATOM     11  C   UNL     1      48.012   3.387  17.743  0.00  0.00    +0.000 C 
ATOM     12  C   UNL     1      47.846   4.708  18.520  0.00  0.00    +0.000 C 
ATOM     13  N   UNL     1      48.922   5.655  18.207  0.00  0.00    +0.000 N 
ATOM     14  C   UNL     1      50.279   5.090  18.303  0.00  0.00    +0.000 C 
ATOM     15  C   UNL     1      50.371   3.761  17.518  0.00  0.00    +0.000 C 
ATOM     16  C   UNL     1      51.709   3.079  17.777  0.00  0.00    +0.000 C 
ATOM     17  O   UNL     1      49.335   2.838  17.901  0.00  0.00    +0.000 OA
ENDBRANCH   4  13
ENDBRANCH   1   8
BRANCH   1  18
ATOM     18  C   UNL     1      48.933   7.159  13.194  0.00  0.00    +0.000 C 
BRANCH  18  19
ATOM     19  N   UNL     1      47.755   7.349  12.355  0.00  0.00    +0.000 N 
ATOM     20  C   UNL     1      46.888   6.282  12.169  0.00  0.00    +0.000 A 
ATOM     21  C   UNL     1      46.636   5.288  13.125  0.00  0.00    +0.000 A 
ATOM     22  N   UNL     1      45.743   4.273  12.966  0.00  0.00    +0.000 NA
ATOM     23  C   UNL     1      45.070   4.305  11.789  0.00  0.00    +0.000 A 
ATOM     24  C   UNL     1      45.297   5.283  10.833  0.00  0.00    +0.000 A 
ATOM     25  N   UNL     1      46.213   6.277  11.001  0.00  0.00    +0.000 NA
ATOM     26  H   UNL     1      47.895   7.784  11.446  0.00  0.00    +0.000 HD
BRANCH  23  27
ATOM     27  C   UNL     1      44.048   3.251  11.552  0.00  0.00    +0.000 C 
ATOM     28  N   UNL     1      43.767   2.426  12.611  0.00  0.00    +0.000 N 
ATOM     29  O   UNL     1      43.484   3.121  10.474  0.00  0.00    +0.000 OA
ATOM     30  H   UNL     1      44.238   2.551  13.500  0.00  0.00    +0.000 HD
ATOM     31  H   UNL     1      43.073   1.705  12.507  0.00  0.00    +0.000 HD
ENDBRANCH  23  27
ENDBRANCH  18  19
ENDBRANCH   1  18
TORSDOF 5
ENDMDL
MODEL 5
REMARK VINA RESULT:    -7.164      3.100      5.461
REMARK INTER + INTRA:          -9.908
REMARK INTER:                  -8.602
REMARK INTRA:                  -1.306
REMARK UNBOUND:                -0.649
REMARK  Name = 
REMARK  9 active torsions:
REMARK  status: ('A' for Active; 'I' for Inactive)
REMARK    1  A    between atoms: C_1  and  C_2
REMARK    2  A    between atoms: N_4  and  C_5
REMARK    3  A    between atoms: C_9  and  C_10
REMARK    4  A    between atoms: C_10  and  C_11
REMARK    5  A    between atoms: C_10  and  C_12
REMARK    6  A    between atoms: C_10  and  C_13
REMARK    7  A    between atoms: C_13  and  N_14
REMARK    8  A    between atoms: C_18  and  C_19
REMARK    9  A    between atoms: C_26  and  C_27
REMARK                            x       y       z     vdW  Elec       q    Type
REMARK                         _______ _______ _______ _____ _____    ______ ____
ROOT
ATOM      1  C   UNL     1      48.439   4.445  17.144  0.00  0.00    +0.000 C 
ATOM      2  C   UNL     1      49.085   3.037  17.063  0.00  0.00    +0.000 C 
ATOM      3  C   UNL     1      48.084   4.759  18.614  0.00  0.00    +0.000 C 
ENDROOT
BRANCH   1   8
ATOM      4  C   UNL     1      49.874   7.577  15.357  0.00  0.00    +0.000 A 
ATOM      5  C   UNL     1      51.199   7.544  15.799  0.00  0.00    +0.000 A 
ATOM      6  C   UNL     1      51.673   6.511  16.604  0.00  0.00    +0.000 A 
ATOM      7  C   UNL     1      50.815   5.493  17.016  0.00  0.00    +0.000 A 
ATOM      8  C   UNL     1      49.469   5.480  16.622  0.00  0.00    +0.000 A 
ATOM      9  C   UNL     1      49.047   6.513  15.756  0.00  0.00    +0.000 A 
BRANCH   4  13
ATOM     10  C   UNL     1      50.045   7.641  11.610  0.00  0.00    +0.000 C 
ATOM     11  C   UNL     1      49.736   9.042  12.137  0.00  0.00    +0.000 C 
ATOM     12  C   UNL     1      50.256   9.287  13.567  0.00  0.00    +0.000 C 
ATOM     13  N   UNL     1      49.420   8.614  14.568  0.00  0.00    +0.000 N 
ATOM     14  C   UNL     1      47.976   8.865  14.424  0.00  0.00    +0.000 C 
ATOM     15  C   UNL     1      47.524   8.618  12.966  0.00  0.00    +0.000 C 
ATOM     16  C   UNL     1      46.080   9.065  12.770  0.00  0.00    +0.000 C 
ATOM     17  O   UNL     1      48.332   9.346  12.022  0.00  0.00    +0.000 OA
ENDBRANCH   4  13
ENDBRANCH   1   8
BRANCH   1  18
ATOM     18  C   UNL     1      47.137   4.444  16.281  0.00  0.00    +0.000 C 
BRANCH  18  19
ATOM     19  N   UNL     1      47.221   3.650  15.060  0.00  0.00    +0.000 N 
ATOM     20  C   UNL     1      46.420   3.998  13.981  0.00  0.00    +0.000 A 
ATOM     21  C   UNL     1      46.031   5.309  13.672  0.00  0.00    +0.000 A 
ATOM     22  N   UNL     1      45.294   5.658  12.582  0.00  0.00    +0.000 NA
ATOM     23  C   UNL     1      44.973   4.618  11.773  0.00  0.00    +0.000 A 
ATOM     24  C   UNL     1      45.354   3.316  12.055  0.00  0.00    +0.000 A 
ATOM     25  N   UNL     1      46.071   2.983  13.164  0.00  0.00    +0.000 NA
ATOM     26  H   UNL     1      47.172   2.639  15.156  0.00  0.00    +0.000 HD
BRANCH  23  27
ATOM     27  C   UNL     1      44.198   4.920  10.539  0.00  0.00    +0.000 C 
ATOM     28  N   UNL     1      44.896   4.884   9.359  0.00  0.00    +0.000 N 
ATOM     29  O   UNL     1      43.004   5.185  10.568  0.00  0.00    +0.000 OA
ATOM     30  H   UNL     1      45.884   4.656   9.351  0.00  0.00    +0.000 HD
ATOM     31  H   UNL     1      44.416   5.067   8.494  0.00  0.00    +0.000 HD
ENDBRANCH  23  27
ENDBRANCH  18  19
ENDBRANCH   1  18
TORSDOF 5
ENDMDL
MODEL 6
REMARK VINA RESULT:    -6.688      3.818      6.020
REMARK INTER + INTRA:          -9.292
REMARK INTER:                  -8.308
REMARK INTRA:                  -0.984
REMARK UNBOUND:                -0.649
REMARK  Name = 
REMARK  9 active torsions:
REMARK  status: ('A' for Active; 'I' for Inactive)
REMARK    1  A    between atoms: C_1  and  C_2
REMARK    2  A    between atoms: N_4  and  C_5
REMARK    3  A    between atoms: C_9  and  C_10
REMARK    4  A    between atoms: C_10  and  C_11
REMARK    5  A    between atoms: C_10  and  C_12
REMARK    6  A    between atoms: C_10  and  C_13
REMARK    7  A    between atoms: C_13  and  N_14
REMARK    8  A    between atoms: C_18  and  C_19
REMARK    9  A    between atoms: C_26  and  C_27
REMARK                            x       y       z     vdW  Elec       q    Type
REMARK                         _______ _______ _______ _____ _____    ______ ____
ROOT
ATOM      1  C   UNL     1      48.313   3.405  16.943  0.00  0.00    +0.000 C 
ATOM      2  C   UNL     1      48.937   2.155  16.271  0.00  0.00    +0.000 C 
ATOM      3  C   UNL     1      47.519   2.970  18.194  0.00  0.00    +0.000 C 
ENDROOT
BRANCH   1   8
ATOM      4  C   UNL     1      50.382   6.662  17.367  0.00  0.00    +0.000 A 
ATOM      5  C   UNL     1      51.379   6.224  18.242  0.00  0.00    +0.000 A 
ATOM      6  C   UNL     1      51.453   4.897  18.657  0.00  0.00    +0.000 A 
ATOM      7  C   UNL     1      50.503   3.974  18.226  0.00  0.00    +0.000 A 
ATOM      8  C   UNL     1      49.466   4.355  17.361  0.00  0.00    +0.000 A 
ATOM      9  C   UNL     1      49.465   5.696  16.918  0.00  0.00    +0.000 A 
BRANCH   4  13
ATOM     10  C   UNL     1      48.289   7.950  14.532  0.00  0.00    +0.000 C 
ATOM     11  C   UNL     1      49.305   9.013  14.949  0.00  0.00    +0.000 C 
ATOM     12  C   UNL     1      50.574   8.426  15.599  0.00  0.00    +0.000 C 
ATOM     13  N   UNL     1      50.319   7.984  16.975  0.00  0.00    +0.000 N 
ATOM     14  C   UNL     1      49.640   8.981  17.820  0.00  0.00    +0.000 C 
ATOM     15  C   UNL     1      48.390   9.540  17.103  0.00  0.00    +0.000 C 
ATOM     16  C   UNL     1      47.801  10.707  17.886  0.00  0.00    +0.000 C 
ATOM     17  O   UNL     1      48.697  10.020  15.781  0.00  0.00    +0.000 OA
ENDBRANCH   4  13
ENDBRANCH   1   8
BRANCH   1  18
ATOM     18  C   UNL     1      47.348   4.088  15.923  0.00  0.00    +0.000 C 
BRANCH  18  19
ATOM     19  N   UNL     1      47.266   3.423  14.628  0.00  0.00    +0.000 N 
ATOM     20  C   UNL     1      46.334   3.873  13.703  0.00  0.00    +0.000 A 
ATOM     21  C   UNL     1      45.918   5.206  13.581  0.00  0.00    +0.000 A 
ATOM     22  N   UNL     1      45.048   5.660  12.638  0.00  0.00    +0.000 NA
ATOM     23  C   UNL     1      44.616   4.705  11.777  0.00  0.00    +0.000 A 
ATOM     24  C   UNL     1      45.021   3.383  11.873  0.00  0.00    +0.000 A 
ATOM     25  N   UNL     1      45.874   2.944  12.840  0.00  0.00    +0.000 NA
ATOM     26  H   UNL     1      47.222   2.406  14.627  0.00  0.00    +0.000 HD
BRANCH  23  27
ATOM     27  C   UNL     1      43.690   5.125  10.691  0.00  0.00    +0.000 C 
ATOM     28  N   UNL     1      43.964   4.643   9.437  0.00  0.00    +0.000 N 
ATOM     29  O   UNL     1      42.733   5.859  10.898  0.00  0.00    +0.000 OA
ATOM     30  H   UNL     1      44.758   4.030   9.282  0.00  0.00    +0.000 HD
ATOM     31  H   UNL     1      43.361   4.886   8.669  0.00  0.00    +0.000 HD
ENDBRANCH  23  27
ENDBRANCH  18  19
ENDBRANCH   1  18
TORSDOF 5
ENDMDL
MODEL 7
REMARK VINA RESULT:    -6.577      3.924      6.570
REMARK INTER + INTRA:          -9.149
REMARK INTER:                  -7.955
REMARK INTRA:                  -1.194
REMARK UNBOUND:                -0.649
REMARK  Name = 
REMARK  9 active torsions:
REMARK  status: ('A' for Active; 'I' for Inactive)
REMARK    1  A    between atoms: C_1  and  C_2
REMARK    2  A    between atoms: N_4  and  C_5
REMARK    3  A    between atoms: C_9  and  C_10
REMARK    4  A    between atoms: C_10  and  C_11
REMARK    5  A    between atoms: C_10  and  C_12
REMARK    6  A    between atoms: C_10  and  C_13
REMARK    7  A    between atoms: C_13  and  N_14
REMARK    8  A    between atoms: C_18  and  C_19
REMARK    9  A    between atoms: C_26  and  C_27
REMARK                            x       y       z     vdW  Elec       q    Type
REMARK                         _______ _______ _______ _____ _____    ______ ____
ROOT
ATOM      1  C   UNL     1      45.724   5.977  12.264  0.00  0.00    +0.000 C 
ATOM      2  C   UNL     1      44.376   5.738  12.992  0.00  0.00    +0.000 C 
ATOM      3  C   UNL     1      45.611   5.485  10.806  0.00  0.00    +0.000 C 
ENDROOT
BRANCH   1   8
ATOM      4  C   UNL     1      47.723   9.304  12.288  0.00  0.00    +0.000 A 
ATOM      5  C   UNL     1      46.693  10.228  12.093  0.00  0.00    +0.000 A 
ATOM      6  C   UNL     1      45.361   9.828  12.019  0.00  0.00    +0.000 A 
ATOM      7  C   UNL     1      45.028   8.478  12.105  0.00  0.00    +0.000 A 
ATOM      8  C   UNL     1      46.019   7.500  12.281  0.00  0.00    +0.000 A 
ATOM      9  C   UNL     1      47.349   7.956  12.413  0.00  0.00    +0.000 A 
BRANCH   4  13
ATOM     10  C   UNL     1      50.184   8.217  14.903  0.00  0.00    +0.000 C 
ATOM     11  C   UNL     1      50.734   9.426  14.147  0.00  0.00    +0.000 C 
ATOM     12  C   UNL     1      49.634  10.324  13.545  0.00  0.00    +0.000 C 
ATOM     13  N   UNL     1      49.039   9.718  12.349  0.00  0.00    +0.000 N 
ATOM     14  C   UNL     1      50.016   9.249  11.352  0.00  0.00    +0.000 C 
ATOM     15  C   UNL     1      51.097   8.370  12.023  0.00  0.00    +0.000 C 
ATOM     16  C   UNL     1      52.213   8.048  11.036  0.00  0.00    +0.000 C 
ATOM     17  O   UNL     1      51.699   9.027  13.154  0.00  0.00    +0.000 OA
ENDBRANCH   4  13
ENDBRANCH   1   8
BRANCH   1  18
ATOM     18  C   UNL     1      46.837   5.169  13.004  0.00  0.00    +0.000 C 
BRANCH  18  19
ATOM     19  N   UNL     1      46.369   4.407  14.155  0.00  0.00    +0.000 N 
ATOM     20  C   UNL     1      47.135   4.405  15.312  0.00  0.00    +0.000 A 
ATOM     21  C   UNL     1      47.925   5.480  15.743  0.00  0.00    +0.000 A 
ATOM     22  N   UNL     1      48.631   5.502  16.906  0.00  0.00    +0.000 NA
ATOM     23  C   UNL     1      48.493   4.383  17.660  0.00  0.00    +0.000 A 
ATOM     24  C   UNL     1      47.711   3.311  17.258  0.00  0.00    +0.000 A 
ATOM     25  N   UNL     1      47.031   3.299  16.078  0.00  0.00    +0.000 NA
ATOM     26  H   UNL     1      46.072   3.448  13.991  0.00  0.00    +0.000 HD
BRANCH  23  27
ATOM     27  C   UNL     1      49.204   4.341  18.966  0.00  0.00    +0.000 C 
ATOM     28  N   UNL     1      48.583   3.651  19.975  0.00  0.00    +0.000 N 
ATOM     29  O   UNL     1      50.285   4.889  19.137  0.00  0.00    +0.000 OA
ATOM     30  H   UNL     1      47.690   3.197  19.815  0.00  0.00    +0.000 HD
ATOM     31  H   UNL     1      49.028   3.580  20.874  0.00  0.00    +0.000 HD
ENDBRANCH  23  27
ENDBRANCH  18  19
ENDBRANCH   1  18
TORSDOF 5
ENDMDL
MODEL 8
REMARK VINA RESULT:    -6.037      3.710      9.415
REMARK INTER + INTRA:          -8.451
REMARK INTER:                  -7.879
REMARK INTRA:                  -0.572
REMARK UNBOUND:                -0.649
REMARK  Name = 
REMARK  9 active torsions:
REMARK  status: ('A' for Active; 'I' for Inactive)
REMARK    1  A    between atoms: C_1  and  C_2
REMARK    2  A    between atoms: N_4  and  C_5
REMARK    3  A    between atoms: C_9  and  C_10
REMARK    4  A    between atoms: C_10  and  C_11
REMARK    5  A    between atoms: C_10  and  C_12
REMARK    6  A    between atoms: C_10  and  C_13
REMARK    7  A    between atoms: C_13  and  N_14
REMARK    8  A    between atoms: C_18  and  C_19
REMARK    9  A    between atoms: C_26  and  C_27
REMARK                            x       y       z     vdW  Elec       q    Type
REMARK                         _______ _______ _______ _____ _____    ______ ____
ROOT
ATOM      1  C   UNL     1      47.639   8.314  12.896  0.00  0.00    +0.000 C 
ATOM      2  C   UNL     1      48.708   8.070  11.799  0.00  0.00    +0.000 C 
ATOM      3  C   UNL     1      46.377   8.926  12.252  0.00  0.00    +0.000 C 
ENDROOT
BRANCH   1   8
ATOM      4  C   UNL     1      45.887   4.898  13.470  0.00  0.00    +0.000 A 
ATOM      5  C   UNL     1      46.695   4.356  14.473  0.00  0.00    +0.000 A 
ATOM      6  C   UNL     1      47.752   5.076  15.024  0.00  0.00    +0.000 A 
ATOM      7  C   UNL     1      48.049   6.355  14.557  0.00  0.00    +0.000 A 
ATOM      8  C   UNL     1      47.287   6.947  13.539  0.00  0.00    +0.000 A 
ATOM      9  C   UNL     1      46.187   6.206  13.053  0.00  0.00    +0.000 A 
BRANCH   4  13
ATOM     10  C   UNL     1      43.206   6.308  11.255  0.00  0.00    +0.000 C 
ATOM     11  C   UNL     1      42.794   4.921  11.747  0.00  0.00    +0.000 C 
ATOM     12  C   UNL     1      43.438   4.532  13.092  0.00  0.00    +0.000 C 
ATOM     13  N   UNL     1      44.849   4.166  12.928  0.00  0.00    +0.000 N 
ATOM     14  C   UNL     1      45.105   3.188  11.857  0.00  0.00    +0.000 C 
ATOM     15  C   UNL     1      44.419   3.630  10.544  0.00  0.00    +0.000 C 
ATOM     16  C   UNL     1      44.516   2.530   9.494  0.00  0.00    +0.000 C 
ATOM     17  O   UNL     1      43.022   3.919  10.737  0.00  0.00    +0.000 OA
ENDBRANCH   4  13
ENDBRANCH   1   8
BRANCH   1  18
ATOM     18  C   UNL     1      48.225   9.308  13.948  0.00  0.00    +0.000 C 
BRANCH  18  19
ATOM     19  N   UNL     1      47.545   9.295  15.238  0.00  0.00    +0.000 N 
ATOM     20  C   UNL     1      48.289   9.524  16.387  0.00  0.00    +0.000 A 
ATOM     21  C   UNL     1      49.417  10.355  16.450  0.00  0.00    +0.000 A 
ATOM     22  N   UNL     1      50.113  10.625  17.588  0.00  0.00    +0.000 NA
ATOM     23  C   UNL     1      49.609  10.037  18.701  0.00  0.00    +0.000 A 
ATOM     24  C   UNL     1      48.491   9.218  18.663  0.00  0.00    +0.000 A 
ATOM     25  N   UNL     1      47.821   8.940  17.510  0.00  0.00    +0.000 NA
ATOM     26  H   UNL     1      46.926   8.512  15.432  0.00  0.00    +0.000 HD
BRANCH  23  27
ATOM     27  C   UNL     1      50.291  10.311  19.994  0.00  0.00    +0.000 C 
ATOM     28  N   UNL     1      50.959   9.257  20.565  0.00  0.00    +0.000 N 
ATOM     29  O   UNL     1      50.261  11.412  20.525  0.00  0.00    +0.000 OA
ATOM     30  H   UNL     1      50.979   8.352  20.108  0.00  0.00    +0.000 HD
ATOM     31  H   UNL     1      51.448   9.393  21.433  0.00  0.00    +0.000 HD
ENDBRANCH  23  27
ENDBRANCH  18  19
ENDBRANCH   1  18
TORSDOF 5
ENDMDL
MODEL 9
REMARK VINA RESULT:    -5.775      3.207      5.526
REMARK INTER + INTRA:          -8.112
REMARK INTER:                  -7.216
REMARK INTRA:                  -0.896
REMARK UNBOUND:                -0.649
REMARK  Name = 
REMARK  9 active torsions:
REMARK  status: ('A' for Active; 'I' for Inactive)
REMARK    1  A    between atoms: C_1  and  C_2
REMARK    2  A    between atoms: N_4  and  C_5
REMARK    3  A    between atoms: C_9  and  C_10
REMARK    4  A    between atoms: C_10  and  C_11
REMARK    5  A    between atoms: C_10  and  C_12
REMARK    6  A    between atoms: C_10  and  C_13
REMARK    7  A    between atoms: C_13  and  N_14
REMARK    8  A    between atoms: C_18  and  C_19
REMARK    9  A    between atoms: C_26  and  C_27
REMARK                            x       y       z     vdW  Elec       q    Type
REMARK                         _______ _______ _______ _____ _____    ______ ____
ROOT
ATOM      1  C   UNL     1      47.979   8.256  13.172  0.00  0.00    +0.000 C 
ATOM      2  C   UNL     1      48.398   8.818  11.789  0.00  0.00    +0.000 C 
ATOM      3  C   UNL     1      48.764   6.957  13.454  0.00  0.00    +0.000 C 
ENDROOT
BRANCH   1   8
ATOM      4  C   UNL     1      48.649   9.832  16.655  0.00  0.00    +0.000 A 
ATOM      5  C   UNL     1      49.138  11.087  16.283  0.00  0.00    +0.000 A 
ATOM      6  C   UNL     1      49.202  11.477  14.948  0.00  0.00    +0.000 A 
ATOM      7  C   UNL     1      48.804  10.599  13.941  0.00  0.00    +0.000 A 
ATOM      8  C   UNL     1      48.322   9.318  14.249  0.00  0.00    +0.000 A 
ATOM      9  C   UNL     1      48.217   8.988  15.618  0.00  0.00    +0.000 A 
BRANCH   4  13
ATOM     10  C   UNL     1      48.465   6.288  17.874  0.00  0.00    +0.000 C 
ATOM     11  C   UNL     1      48.130   7.246  19.016  0.00  0.00    +0.000 C 
ATOM     12  C   UNL     1      47.555   8.594  18.537  0.00  0.00    +0.000 C 
ATOM     13  N   UNL     1      48.602   9.460  17.983  0.00  0.00    +0.000 N 
ATOM     14  C   UNL     1      49.789   9.606  18.842  0.00  0.00    +0.000 C 
ATOM     15  C   UNL     1      50.303   8.222  19.300  0.00  0.00    +0.000 C 
ATOM     16  C   UNL     1      51.405   8.378  20.341  0.00  0.00    +0.000 C 
ATOM     17  O   UNL     1      49.258   7.429  19.894  0.00  0.00    +0.000 OA
ENDBRANCH   4  13
ENDBRANCH   1   8
BRANCH   1  18
ATOM     18  C   UNL     1      46.449   7.945  13.139  0.00  0.00    +0.000 C 
BRANCH  18  19
ATOM     19  N   UNL     1      46.111   6.544  13.356  0.00  0.00    +0.000 N 
ATOM     20  C   UNL     1      45.676   5.787  12.277  0.00  0.00    +0.000 A 
ATOM     21  C   UNL     1      46.099   5.976  10.954  0.00  0.00    +0.000 A 
ATOM     22  N   UNL     1      45.718   5.198   9.904  0.00  0.00    +0.000 NA
ATOM     23  C   UNL     1      44.894   4.175  10.240  0.00  0.00    +0.000 A 
ATOM     24  C   UNL     1      44.470   3.964  11.543  0.00  0.00    +0.000 A 
ATOM     25  N   UNL     1      44.843   4.769  12.577  0.00  0.00    +0.000 NA
ATOM     26  H   UNL     1      45.500   6.326  14.140  0.00  0.00    +0.000 HD
BRANCH  23  27
ATOM     27  C   UNL     1      44.460   3.255   9.155  0.00  0.00    +0.000 C 
ATOM     28  N   UNL     1      44.181   3.832   7.943  0.00  0.00    +0.000 N 
ATOM     29  O   UNL     1      44.356   2.048   9.328  0.00  0.00    +0.000 OA
ATOM     30  H   UNL     1      44.278   4.833   7.814  0.00  0.00    +0.000 HD
ATOM     31  H   UNL     1      43.896   3.252   7.172  0.00  0.00    +0.000 HD
ENDBRANCH  23  27
ENDBRANCH  18  19
ENDBRANCH   1  18
TORSDOF 5
ENDMDL
