MODEL 1
REMARK VINA RESULT:    -8.185      0.000      0.000
REMARK INTER + INTRA:         -11.915
REMARK INTER:                 -11.057
REMARK INTRA:                  -0.858
REMARK UNBOUND:                -0.858
REMARK  Name = 
REMARK  6 active torsions:
REMARK  status: ('A' for Active; 'I' for Inactive)
REMARK    1  A    between atoms: C_2  and  C_25
REMARK    2  A    between atoms: N_3  and  C_4
REMARK    3  A    between atoms: C_4  and  C_5
REMARK    4  A    between atoms: C_8  and  C_9
REMARK    5  A    between atoms: C_9  and  N_10
REMARK    6  A    between atoms: C_11  and  C_13
REMARK                            x       y       z     vdW  Elec       q    Type
REMARK                         _______ _______ _______ _____ _____    ______ ____
ROOT
ATOM      1  C   UNL     1      44.599   4.995  11.374  0.00  0.00    +0.000 A 
ATOM      2  C   UNL     1      44.166   6.318  11.397  0.00  0.00    +0.000 A 
ATOM      3  C   UNL     1      44.956   7.281  12.029  0.00  0.00    +0.000 A 
ATOM      4  C   UNL     1      46.151   6.906  12.646  0.00  0.00    +0.000 A 
ATOM      5  C   UNL     1      46.506   5.565  12.569  0.00  0.00    +0.000 A 
ATOM      6  N   UNL     1      45.759   4.609  11.963  0.00  0.00    +0.000 NA
ENDROOT
BRANCH   1   7
ATOM      7  C   UNL     1      43.798   3.938  10.652  0.00  0.00    +0.000 C 
BRANCH   7  10
ATOM      8  O   UNL     1      44.872   4.389   8.172  0.00  0.00    +0.000 OA
ATOM      9  C   UNL     1      45.133   3.309   8.709  0.00  0.00    +0.000 C 
ATOM     10  N   UNL     1      44.602   2.970   9.936  0.00  0.00    +0.000 N 
ATOM     11  H   UNL     1      44.987   2.167  10.421  0.00  0.00    +0.000 HD
BRANCH   9  12
ATOM     12  C   UNL     1      45.997   2.323   8.095  0.00  0.00    +0.000 A 
ATOM     13  C   UNL     1      46.970   2.469   7.123  0.00  0.00    +0.000 A 
ATOM     14  C   UNL     1      47.469   1.176   6.844  0.00  0.00    +0.000 A 
ATOM     15  C   UNL     1      46.781   0.317   7.668  0.00  0.00    +0.000 A 
ATOM     16  O   UNL     1      45.893   0.999   8.439  0.00  0.00    +0.000 OA
ENDBRANCH   9  12
ENDBRANCH   7  10
ENDBRANCH   1   7
BRANCH   4  17
ATOM     17  C   UNL     1      47.024   7.904  13.349  0.00  0.00    +0.000 C 
BRANCH  17  18
ATOM     18  N   UNL     1      47.544   7.390  14.591  0.00  0.00    +0.000 N 
ATOM     19  C   UNL     1      48.839   6.937  14.680  0.00  0.00    +0.000 C 
ATOM     20  O   UNL     1      49.613   6.996  13.726  0.00  0.00    +0.000 OA
ATOM     21  H   UNL     1      46.874   7.106  15.298  0.00  0.00    +0.000 HD
BRANCH  19  22
ATOM     22  C   UNL     1      49.276   6.437  15.989  0.00  0.00    +0.000 A 
ATOM     23  C   UNL     1      50.326   7.061  16.650  0.00  0.00    +0.000 A 
ATOM     24  S   UNL     1      50.673   6.381  18.176  0.00  0.00    +0.000 S 
ATOM     25  C   UNL     1      49.469   5.196  17.983  0.00  0.00    +0.000 A 
ATOM     26  N   UNL     1      49.258   4.249  18.938  0.00  0.00    +0.000 NA
ATOM     27  C   UNL     1      48.339   3.392  18.643  0.00  0.00    +0.000 A 
ATOM     28  N   UNL     1      47.605   3.399  17.485  0.00  0.00    +0.000 N 
ATOM     29  C   UNL     1      47.759   4.356  16.511  0.00  0.00    +0.000 A 
ATOM     30  O   UNL     1      47.049   4.364  15.508  0.00  0.00    +0.000 OA
ATOM     31  C   UNL     1      48.795   5.331  16.782  0.00  0.00    +0.000 A 
ATOM     32  H   UNL     1      46.891   2.704  17.322  0.00  0.00    +0.000 HD
ENDBRANCH  19  22
ENDBRANCH  17  18
ENDBRANCH   4  17
TORSDOF 6
ENDMDL
MODEL 2
REMARK VINA RESULT:    -7.343      1.811      2.162
REMARK INTER + INTRA:         -10.777
REMARK INTER:                  -9.822
REMARK INTRA:                  -0.955
REMARK UNBOUND:                -0.858
REMARK  Name = 
REMARK  6 active torsions:
REMARK  status: ('A' for Active; 'I' for Inactive)
REMARK    1  A    between atoms: C_2  and  C_25
REMARK    2  A    between atoms: N_3  and  C_4
REMARK    3  A    between atoms: C_4  and  C_5
REMARK    4  A    between atoms: C_8  and  C_9
REMARK    5  A    between atoms: C_9  and  N_10
REMARK    6  A    between atoms: C_11  and  C_13
REMARK                            x       y       z     vdW  Elec       q    Type
REMARK                         _______ _______ _______ _____ _____    ______ ____
ROOT
ATOM      1  C   UNL     1      45.612   4.697  12.027  0.00  0.00    +0.000 A 
ATOM      2  C   UNL     1      46.043   4.237  13.270  0.00  0.00    +0.000 A 
ATOM      3  C   UNL     1      46.904   5.033  14.027  0.00  0.00    +0.000 A 
ATOM      4  C   UNL     1      47.341   6.261  13.525  0.00  0.00    +0.000 A 
ATOM      5  C   UNL     1      46.856   6.640  12.280  0.00  0.00    +0.000 A 
ATOM      6  N   UNL     1      46.020   5.888  11.522  0.00  0.00    +0.000 NA
ENDROOT
BRANCH   1   7
ATOM      7  C   UNL     1      44.637   3.888  11.206  0.00  0.00    +0.000 C 
BRANCH   7  10
ATOM      8  O   UNL     1      44.965   4.388   8.532  0.00  0.00    +0.000 OA
ATOM      9  C   UNL     1      45.418   3.325   8.964  0.00  0.00    +0.000 C 
ATOM     10  N   UNL     1      45.262   2.962  10.286  0.00  0.00    +0.000 N 
ATOM     11  H   UNL     1      45.805   2.181  10.637  0.00  0.00    +0.000 HD
BRANCH   9  12
ATOM     12  C   UNL     1      46.130   2.383   8.125  0.00  0.00    +0.000 A 
ATOM     13  C   UNL     1      46.862   2.592   6.971  0.00  0.00    +0.000 A 
ATOM     14  C   UNL     1      47.294   1.323   6.523  0.00  0.00    +0.000 A 
ATOM     15  C   UNL     1      46.810   0.414   7.435  0.00  0.00    +0.000 A 
ATOM     16  O   UNL     1      46.112   1.043   8.416  0.00  0.00    +0.000 OA
ENDBRANCH   9  12
ENDBRANCH   7  10
ENDBRANCH   1   7
BRANCH   4  17
ATOM     17  C   UNL     1      48.277   7.142  14.299  0.00  0.00    +0.000 C 
BRANCH  17  18
ATOM     18  N   UNL     1      48.119   6.983  15.723  0.00  0.00    +0.000 N 
ATOM     19  C   UNL     1      48.761   7.824  16.601  0.00  0.00    +0.000 C 
ATOM     20  O   UNL     1      49.451   8.763  16.212  0.00  0.00    +0.000 OA
ATOM     21  H   UNL     1      47.772   6.091  16.059  0.00  0.00    +0.000 HD
BRANCH  19  22
ATOM     22  C   UNL     1      48.533   7.583  18.031  0.00  0.00    +0.000 A 
ATOM     23  C   UNL     1      48.119   8.627  18.849  0.00  0.00    +0.000 A 
ATOM     24  S   UNL     1      47.858   8.163  20.469  0.00  0.00    +0.000 S 
ATOM     25  C   UNL     1      48.343   6.565  20.148  0.00  0.00    +0.000 A 
ATOM     26  N   UNL     1      48.384   5.633  21.139  0.00  0.00    +0.000 NA
ATOM     27  C   UNL     1      48.805   4.473  20.761  0.00  0.00    +0.000 A 
ATOM     28  N   UNL     1      49.181   4.156  19.481  0.00  0.00    +0.000 N 
ATOM     29  C   UNL     1      49.121   5.055  18.442  0.00  0.00    +0.000 A 
ATOM     30  O   UNL     1      49.415   4.725  17.296  0.00  0.00    +0.000 OA
ATOM     31  C   UNL     1      48.675   6.381  18.818  0.00  0.00    +0.000 A 
ATOM     32  H   UNL     1      49.490   3.224  19.249  0.00  0.00    +0.000 HD
ENDBRANCH  19  22
ENDBRANCH  17  18
ENDBRANCH   4  17
TORSDOF 6
ENDMDL
MODEL 3
REMARK VINA RESULT:    -7.149      2.033      2.433
REMARK INTER + INTRA:         -10.514
REMARK INTER:                  -9.639
REMARK INTRA:                  -0.876
REMARK UNBOUND:                -0.858
REMARK  Name = 
REMARK  6 active torsions:
REMARK  status: ('A' for Active; 'I' for Inactive)
REMARK    1  A    between atoms: C_2  and  C_25
REMARK    2  A    between atoms: N_3  and  C_4
REMARK    3  A    between atoms: C_4  and  C_5
REMARK    4  A    between atoms: C_8  and  C_9
REMARK    5  A    between atoms: C_9  and  N_10
REMARK    6  A    between atoms: C_11  and  C_13
REMARK                            x       y       z     vdW  Elec       q    Type
REMARK                         _______ _______ _______ _____ _____    ______ ____
ROOT
ATOM      1  C   UNL     1      45.330   6.044  11.253  0.00  0.00    +0.000 A 
ATOM      2  C   UNL     1      45.091   7.406  11.414  0.00  0.00    +0.000 A 
ATOM      3  C   UNL     1      45.900   8.140  12.283  0.00  0.00    +0.000 A 
ATOM      4  C   UNL     1      46.917   7.501  12.994  0.00  0.00    +0.000 A 
ATOM      5  C   UNL     1      47.086   6.141  12.767  0.00  0.00    +0.000 A 
ATOM      6  N   UNL     1      46.316   5.403  11.930  0.00  0.00    +0.000 NA
ENDROOT
BRANCH   1   7
ATOM      7  C   UNL     1      44.510   5.230  10.280  0.00  0.00    +0.000 C 
BRANCH   7  10
ATOM      8  O   UNL     1      44.688   2.544   9.768  0.00  0.00    +0.000 OA
ATOM      9  C   UNL     1      45.265   3.304   8.987  0.00  0.00    +0.000 C 
ATOM     10  N   UNL     1      45.273   4.669   9.186  0.00  0.00    +0.000 N 
ATOM     11  H   UNL     1      45.592   5.263   8.428  0.00  0.00    +0.000 HD
BRANCH   9  12
ATOM     12  C   UNL     1      45.979   2.827   7.820  0.00  0.00    +0.000 A 
ATOM     13  C   UNL     1      46.711   1.668   7.633  0.00  0.00    +0.000 A 
ATOM     14  C   UNL     1      47.246   1.727   6.326  0.00  0.00    +0.000 A 
ATOM     15  C   UNL     1      46.801   2.911   5.787  0.00  0.00    +0.000 A 
ATOM     16  O   UNL     1      46.024   3.583   6.677  0.00  0.00    +0.000 OA
ENDBRANCH   9  12
ENDBRANCH   7  10
ENDBRANCH   1   7
BRANCH   4  17
ATOM     17  C   UNL     1      47.803   8.248  13.949  0.00  0.00    +0.000 C 
BRANCH  17  18
ATOM     18  N   UNL     1      47.861   7.615  15.242  0.00  0.00    +0.000 N 
ATOM     19  C   UNL     1      48.985   6.934  15.644  0.00  0.00    +0.000 C 
ATOM     20  O   UNL     1      49.994   6.879  14.944  0.00  0.00    +0.000 OA
ATOM     21  H   UNL     1      46.981   7.436  15.716  0.00  0.00    +0.000 HD
BRANCH  19  22
ATOM     22  C   UNL     1      48.948   6.328  16.981  0.00  0.00    +0.000 A 
ATOM     23  C   UNL     1      49.357   5.012  17.153  0.00  0.00    +0.000 A 
ATOM     24  S   UNL     1      49.291   4.482  18.773  0.00  0.00    +0.000 S 
ATOM     25  C   UNL     1      48.661   5.974  19.293  0.00  0.00    +0.000 A 
ATOM     26  N   UNL     1      48.340   6.182  20.599  0.00  0.00    +0.000 NA
ATOM     27  C   UNL     1      47.837   7.345  20.845  0.00  0.00    +0.000 A 
ATOM     28  N   UNL     1      47.635   8.324  19.906  0.00  0.00    +0.000 N 
ATOM     29  C   UNL     1      47.977   8.171  18.584  0.00  0.00    +0.000 A 
ATOM     30  O   UNL     1      47.830   9.085  17.777  0.00  0.00    +0.000 OA
ATOM     31  C   UNL     1      48.525   6.872  18.250  0.00  0.00    +0.000 A 
ATOM     32  H   UNL     1      47.248   9.219  20.168  0.00  0.00    +0.000 HD
ENDBRANCH  19  22
ENDBRANCH  17  18
ENDBRANCH   4  17
TORSDOF 6
ENDMDL
MODEL 4
REMARK VINA RESULT:    -7.084      3.237      8.631
REMARK INTER + INTRA:         -10.428
REMARK INTER:                  -9.505
REMARK INTRA:                  -0.922
REMARK UNBOUND:                -0.858
REMARK  Name = 
REMARK  6 active torsions:
REMARK  status: ('A' for Active; 'I' for Inactive)
REMARK    1  A    between atoms: C_2  and  C_25
REMARK    2  A    between atoms: N_3  and  C_4
REMARK    3  A    between atoms: C_4  and  C_5
REMARK    4  A    between atoms: C_8  and  C_9
REMARK    5  A    between atoms: C_9  and  N_10
REMARK    6  A    between atoms: C_11  and  C_13
REMARK                            x       y       z     vdW  Elec       q    Type
REMARK                         _______ _______ _______ _____ _____    ______ ____
ROOT
ATOM      1  C   UNL     1      49.948   7.010  15.628  0.00  0.00    +0.000 A 
ATOM      2  C   UNL     1      50.267   8.037  14.742  0.00  0.00    +0.000 A 
ATOM      3  C   UNL     1      49.463   8.239  13.619  0.00  0.00    +0.000 A 
ATOM      4  C   UNL     1      48.369   7.403  13.385  0.00  0.00    +0.000 A 
ATOM      5  C   UNL     1      48.125   6.409  14.324  0.00  0.00    +0.000 A 
ATOM      6  N   UNL     1      48.889   6.188  15.423  0.00  0.00    +0.000 NA
ENDROOT
BRANCH   1   7
ATOM      7  C   UNL     1      50.764   6.797  16.881  0.00  0.00    +0.000 C 
BRANCH   7  10
ATOM      8  O   UNL     1      49.874   4.773  18.500  0.00  0.00    +0.000 OA
ATOM      9  C   UNL     1      50.846   4.530  17.779  0.00  0.00    +0.000 C 
ATOM     10  N   UNL     1      51.396   5.498  16.964  0.00  0.00    +0.000 N 
ATOM     11  H   UNL     1      52.063   5.209  16.258  0.00  0.00    +0.000 HD
BRANCH   9  12
ATOM     12  C   UNL     1      51.482   3.230  17.742  0.00  0.00    +0.000 A 
ATOM     13  C   UNL     1      50.995   2.010  17.310  0.00  0.00    +0.000 A 
ATOM     14  C   UNL     1      52.009   1.055  17.549  0.00  0.00    +0.000 A 
ATOM     15  C   UNL     1      53.060   1.748  18.103  0.00  0.00    +0.000 A 
ATOM     16  O   UNL     1      52.758   3.068  18.216  0.00  0.00    +0.000 OA
ENDBRANCH   9  12
ENDBRANCH   7  10
ENDBRANCH   1   7
BRANCH   4  17
ATOM     17  C   UNL     1      47.485   7.575  12.185  0.00  0.00    +0.000 C 
BRANCH  17  18
ATOM     18  N   UNL     1      46.811   6.352  11.828  0.00  0.00    +0.000 N 
ATOM     19  C   UNL     1      45.439   6.278  11.825  0.00  0.00    +0.000 C 
ATOM     20  O   UNL     1      44.737   7.255  12.079  0.00  0.00    +0.000 OA
ATOM     21  H   UNL     1      47.351   5.493  11.861  0.00  0.00    +0.000 HD
BRANCH  19  22
ATOM     22  C   UNL     1      44.848   4.990  11.442  0.00  0.00    +0.000 A 
ATOM     23  C   UNL     1      44.086   4.280  12.362  0.00  0.00    +0.000 A 
ATOM     24  S   UNL     1      43.440   2.830  11.739  0.00  0.00    +0.000 S 
ATOM     25  C   UNL     1      44.201   3.072  10.237  0.00  0.00    +0.000 A 
ATOM     26  N   UNL     1      44.081   2.157   9.236  0.00  0.00    +0.000 NA
ATOM     27  C   UNL     1      44.740   2.451   8.166  0.00  0.00    +0.000 A 
ATOM     28  N   UNL     1      45.501   3.579   8.000  0.00  0.00    +0.000 N 
ATOM     29  C   UNL     1      45.621   4.546   8.970  0.00  0.00    +0.000 A 
ATOM     30  O   UNL     1      46.269   5.570   8.772  0.00  0.00    +0.000 OA
ATOM     31  C   UNL     1      44.917   4.254  10.203  0.00  0.00    +0.000 A 
ATOM     32  H   UNL     1      45.983   3.755   7.131  0.00  0.00    +0.000 HD
ENDBRANCH  19  22
ENDBRANCH  17  18
ENDBRANCH   4  17
TORSDOF 6
ENDMDL
MODEL 5
REMARK VINA RESULT:    -7.067      2.434      3.032
REMARK INTER + INTRA:         -10.405
REMARK INTER:                  -9.550
REMARK INTRA:                  -0.855
REMARK UNBOUND:                -0.858
REMARK  Name = 
REMARK  6 active torsions:
REMARK  status: ('A' for Active; 'I' for Inactive)
REMARK    1  A    between atoms: C_2  and  C_25
REMARK    2  A    between atoms: N_3  and  C_4
REMARK    3  A    between atoms: C_4  and  C_5
REMARK    4  A    between atoms: C_8  and  C_9
REMARK    5  A    between atoms: C_9  and  N_10
REMARK    6  A    between atoms: C_11  and  C_13
REMARK                            x       y       z     vdW  Elec       q    Type
REMARK                         _______ _______ _______ _____ _____    ______ ____
ROOT
ATOM      1  C   UNL     1      45.461   5.025  11.551  0.00  0.00    +0.000 A 
ATOM      2  C   UNL     1      46.114   6.082  12.180  0.00  0.00    +0.000 A 
ATOM      3  C   UNL     1      46.705   5.871  13.426  0.00  0.00    +0.000 A 
ATOM      4  C   UNL     1      46.616   4.618  14.036  0.00  0.00    +0.000 A 
ATOM      5  C   UNL     1      45.950   3.621  13.333  0.00  0.00    +0.000 A 
ATOM      6  N   UNL     1      45.367   3.798  12.123  0.00  0.00    +0.000 NA
ENDROOT
BRANCH   1   7
ATOM      7  C   UNL     1      44.859   5.202  10.178  0.00  0.00    +0.000 C 
BRANCH   7  10
ATOM      8  O   UNL     1      44.494   2.696   9.131  0.00  0.00    +0.000 OA
ATOM      9  C   UNL     1      45.369   3.398   8.617  0.00  0.00    +0.000 C 
ATOM     10  N   UNL     1      45.659   4.656   9.103  0.00  0.00    +0.000 N 
ATOM     11  H   UNL     1      46.244   5.265   8.541  0.00  0.00    +0.000 HD
BRANCH   9  12
ATOM     12  C   UNL     1      46.155   2.956   7.484  0.00  0.00    +0.000 A 
ATOM     13  C   UNL     1      46.890   1.798   7.304  0.00  0.00    +0.000 A 
ATOM     14  C   UNL     1      47.512   1.899   6.039  0.00  0.00    +0.000 A 
ATOM     15  C   UNL     1      47.113   3.107   5.515  0.00  0.00    +0.000 A 
ATOM     16  O   UNL     1      46.283   3.753   6.376  0.00  0.00    +0.000 OA
ENDBRANCH   9  12
ENDBRANCH   7  10
ENDBRANCH   1   7
BRANCH   4  17
ATOM     17  C   UNL     1      47.225   4.349  15.381  0.00  0.00    +0.000 C 
BRANCH  17  18
ATOM     18  N   UNL     1      47.655   5.560  16.033  0.00  0.00    +0.000 N 
ATOM     19  C   UNL     1      48.883   5.632  16.648  0.00  0.00    +0.000 C 
ATOM     20  O   UNL     1      49.674   4.692  16.626  0.00  0.00    +0.000 OA
ATOM     21  H   UNL     1      46.942   6.240  16.276  0.00  0.00    +0.000 HD
BRANCH  19  22
ATOM     22  C   UNL     1      49.231   6.911  17.280  0.00  0.00    +0.000 A 
ATOM     23  C   UNL     1      50.248   7.691  16.745  0.00  0.00    +0.000 A 
ATOM     24  S   UNL     1      50.490   9.161  17.575  0.00  0.00    +0.000 S 
ATOM     25  C   UNL     1      49.283   8.782  18.711  0.00  0.00    +0.000 A 
ATOM     26  N   UNL     1      49.000   9.626  19.741  0.00  0.00    +0.000 NA
ATOM     27  C   UNL     1      48.089   9.195  20.547  0.00  0.00    +0.000 A 
ATOM     28  N   UNL     1      47.427   8.002  20.414  0.00  0.00    +0.000 N 
ATOM     29  C   UNL     1      47.654   7.136  19.371  0.00  0.00    +0.000 A 
ATOM     30  O   UNL     1      47.008   6.098  19.252  0.00  0.00    +0.000 OA
ATOM     31  C   UNL     1      48.686   7.562  18.448  0.00  0.00    +0.000 A 
ATOM     32  H   UNL     1      46.714   7.729  21.075  0.00  0.00    +0.000 HD
ENDBRANCH  19  22
ENDBRANCH  17  18
ENDBRANCH   4  17
TORSDOF 6
ENDMDL
MODEL 6
REMARK VINA RESULT:    -7.021      3.665      8.242
REMARK INTER + INTRA:         -10.342
REMARK INTER:                  -9.515
REMARK INTRA:                  -0.827
REMARK UNBOUND:                -0.858
REMARK  Name = 
REMARK  6 active torsions:
REMARK  status: ('A' for Active; 'I' for Inactive)
REMARK    1  A    between atoms: C_2  and  C_25
REMARK    2  A    between atoms: N_3  and  C_4
REMARK    3  A    between atoms: C_4  and  C_5
REMARK    4  A    between atoms: C_8  and  C_9
REMARK    5  A    between atoms: C_9  and  N_10
REMARK    6  A    between atoms: C_11  and  C_13
REMARK                            x       y       z     vdW  Elec       q    Type
REMARK                         _______ _______ _______ _____ _____    ______ ____
ROOT
ATOM      1  C   UNL     1      50.170   7.002  15.696  0.00  0.00    +0.000 A 
ATOM      2  C   UNL     1      50.832   7.902  14.864  0.00  0.00    +0.000 A 
ATOM      3  C   UNL     1      50.251   8.257  13.646  0.00  0.00    +0.000 A 
ATOM      4  C   UNL     1      49.031   7.693  13.266  0.00  0.00    +0.000 A 
ATOM      5  C   UNL     1      48.440   6.809  14.160  0.00  0.00    +0.000 A 
ATOM      6  N   UNL     1      48.982   6.445  15.348  0.00  0.00    +0.000 NA
ENDROOT
BRANCH   1   7
ATOM      7  C   UNL     1      50.743   6.638  17.044  0.00  0.00    +0.000 C 
BRANCH   7  10
ATOM      8  O   UNL     1      49.842   4.496  18.498  0.00  0.00    +0.000 OA
ATOM      9  C   UNL     1      50.852   4.324  17.809  0.00  0.00    +0.000 C 
ATOM     10  N   UNL     1      51.408   5.353  17.079  0.00  0.00    +0.000 N 
ATOM     11  H   UNL     1      52.115   5.125  16.388  0.00  0.00    +0.000 HD
BRANCH   9  12
ATOM     12  C   UNL     1      51.527   3.045  17.724  0.00  0.00    +0.000 A 
ATOM     13  C   UNL     1      51.052   1.810  17.321  0.00  0.00    +0.000 A 
ATOM     14  C   UNL     1      52.111   0.889  17.487  0.00  0.00    +0.000 A 
ATOM     15  C   UNL     1      53.173   1.616  17.972  0.00  0.00    +0.000 A 
ATOM     16  O   UNL     1      52.837   2.925  18.110  0.00  0.00    +0.000 OA
ENDBRANCH   9  12
ENDBRANCH   7  10
ENDBRANCH   1   7
BRANCH   4  17
ATOM     17  C   UNL     1      48.375   8.035  11.961  0.00  0.00    +0.000 C 
BRANCH  17  18
ATOM     18  N   UNL     1      47.659   6.915  11.403  0.00  0.00    +0.000 N 
ATOM     19  C   UNL     1      46.285   6.895  11.385  0.00  0.00    +0.000 C 
ATOM     20  O   UNL     1      45.618   7.842  11.796  0.00  0.00    +0.000 OA
ATOM     21  H   UNL     1      48.166   6.043  11.294  0.00  0.00    +0.000 HD
BRANCH  19  22
ATOM     22  C   UNL     1      45.650   5.712  10.792  0.00  0.00    +0.000 A 
ATOM     23  C   UNL     1      45.761   5.480   9.427  0.00  0.00    +0.000 A 
ATOM     24  S   UNL     1      45.003   4.041   8.913  0.00  0.00    +0.000 S 
ATOM     25  C   UNL     1      44.453   3.706  10.487  0.00  0.00    +0.000 A 
ATOM     26  N   UNL     1      43.692   2.606  10.743  0.00  0.00    +0.000 NA
ATOM     27  C   UNL     1      43.313   2.496  11.972  0.00  0.00    +0.000 A 
ATOM     28  N   UNL     1      43.633   3.378  12.971  0.00  0.00    +0.000 N 
ATOM     29  C   UNL     1      44.427   4.481  12.766  0.00  0.00    +0.000 A 
ATOM     30  O   UNL     1      44.738   5.225  13.693  0.00  0.00    +0.000 OA
ATOM     31  C   UNL     1      44.861   4.664  11.396  0.00  0.00    +0.000 A 
ATOM     32  H   UNL     1      43.313   3.227  13.917  0.00  0.00    +0.000 HD
ENDBRANCH  19  22
ENDBRANCH  17  18
ENDBRANCH   4  17
TORSDOF 6
ENDMDL
MODEL 7
REMARK VINA RESULT:    -7.019      3.459      4.242
REMARK INTER + INTRA:         -10.340
REMARK INTER:                  -9.353
REMARK INTRA:                  -0.987
REMARK UNBOUND:                -0.858
REMARK  Name = 
REMARK  6 active torsions:
REMARK  status: ('A' for Active; 'I' for Inactive)
REMARK    1  A    between atoms: C_2  and  C_25
REMARK    2  A    between atoms: N_3  and  C_4
REMARK    3  A    between atoms: C_4  and  C_5
REMARK    4  A    between atoms: C_8  and  C_9
REMARK    5  A    between atoms: C_9  and  N_10
REMARK    6  A    between atoms: C_11  and  C_13
REMARK                            x       y       z     vdW  Elec       q    Type
REMARK                         _______ _______ _______ _____ _____    ______ ____
ROOT
ATOM      1  C   UNL     1      44.683   4.885  11.662  0.00  0.00    +0.000 A 
ATOM      2  C   UNL     1      45.778   4.945  12.521  0.00  0.00    +0.000 A 
ATOM      3  C   UNL     1      46.207   6.187  12.989  0.00  0.00    +0.000 A 
ATOM      4  C   UNL     1      45.554   7.351  12.578  0.00  0.00    +0.000 A 
ATOM      5  C   UNL     1      44.470   7.195  11.724  0.00  0.00    +0.000 A 
ATOM      6  N   UNL     1      44.031   6.002  11.252  0.00  0.00    +0.000 NA
ENDROOT
BRANCH   1   7
ATOM      7  C   UNL     1      44.158   3.554  11.179  0.00  0.00    +0.000 C 
BRANCH   7  10
ATOM      8  O   UNL     1      44.299   4.085   8.494  0.00  0.00    +0.000 OA
ATOM      9  C   UNL     1      45.071   3.231   8.939  0.00  0.00    +0.000 C 
ATOM     10  N   UNL     1      45.044   2.862  10.268  0.00  0.00    +0.000 N 
ATOM     11  H   UNL     1      45.811   2.304  10.627  0.00  0.00    +0.000 HD
BRANCH   9  12
ATOM     12  C   UNL     1      46.045   2.554   8.110  0.00  0.00    +0.000 A 
ATOM     13  C   UNL     1      46.310   1.204   7.964  0.00  0.00    +0.000 A 
ATOM     14  C   UNL     1      47.401   1.093   7.073  0.00  0.00    +0.000 A 
ATOM     15  C   UNL     1      47.734   2.379   6.718  0.00  0.00    +0.000 A 
ATOM     16  O   UNL     1      46.914   3.274   7.331  0.00  0.00    +0.000 OA
ENDBRANCH   9  12
ENDBRANCH   7  10
ENDBRANCH   1   7
BRANCH   4  17
ATOM     17  C   UNL     1      45.989   8.709  13.046  0.00  0.00    +0.000 C 
BRANCH  17  18
ATOM     18  N   UNL     1      47.407   8.910  12.884  0.00  0.00    +0.000 N 
ATOM     19  C   UNL     1      48.232   9.027  13.977  0.00  0.00    +0.000 C 
ATOM     20  O   UNL     1      47.806   8.919  15.124  0.00  0.00    +0.000 OA
ATOM     21  H   UNL     1      47.733   9.244  11.983  0.00  0.00    +0.000 HD
BRANCH  19  22
ATOM     22  C   UNL     1      49.661   9.225  13.707  0.00  0.00    +0.000 A 
ATOM     23  C   UNL     1      50.395  10.110  14.487  0.00  0.00    +0.000 A 
ATOM     24  S   UNL     1      52.046  10.185  14.067  0.00  0.00    +0.000 S 
ATOM     25  C   UNL     1      51.828   9.080  12.792  0.00  0.00    +0.000 A 
ATOM     26  N   UNL     1      52.867   8.726  11.988  0.00  0.00    +0.000 NA
ATOM     27  C   UNL     1      52.551   7.908  11.040  0.00  0.00    +0.000 A 
ATOM     28  N   UNL     1      51.293   7.406  10.827  0.00  0.00    +0.000 N 
ATOM     29  C   UNL     1      50.223   7.708  11.635  0.00  0.00    +0.000 A 
ATOM     30  O   UNL     1      49.120   7.201  11.449  0.00  0.00    +0.000 OA
ATOM     31  C   UNL     1      50.520   8.641  12.704  0.00  0.00    +0.000 A 
ATOM     32  H   UNL     1      51.115   6.760  10.072  0.00  0.00    +0.000 HD
ENDBRANCH  19  22
ENDBRANCH  17  18
ENDBRANCH   4  17
TORSDOF 6
ENDMDL
MODEL 8
REMARK VINA RESULT:    -6.995      1.952      3.324
REMARK INTER + INTRA:         -10.307
REMARK INTER:                  -9.303
REMARK INTRA:                  -1.004
REMARK UNBOUND:                -0.858
REMARK  Name = 
REMARK  6 active torsions:
REMARK  status: ('A' for Active; 'I' for Inactive)
REMARK    1  A    between atoms: C_2  and  C_25
REMARK    2  A    between atoms: N_3  and  C_4
REMARK    3  A    between atoms: C_4  and  C_5
REMARK    4  A    between atoms: C_8  and  C_9
REMARK    5  A    between atoms: C_9  and  N_10
REMARK    6  A    between atoms: C_11  and  C_13
REMARK                            x       y       z     vdW  Elec       q    Type
REMARK                         _______ _______ _______ _____ _____    ______ ____
ROOT
ATOM      1  C   UNL     1      45.506   5.028  11.525  0.00  0.00    +0.000 A 
ATOM      2  C   UNL     1      46.173   6.082  12.145  0.00  0.00    +0.000 A 
ATOM      3  C   UNL     1      46.724   5.885  13.412  0.00  0.00    +0.000 A 
ATOM      4  C   UNL     1      46.582   4.651  14.050  0.00  0.00    +0.000 A 
ATOM      5  C   UNL     1      45.906   3.657  13.354  0.00  0.00    +0.000 A 
ATOM      6  N   UNL     1      45.359   3.820  12.124  0.00  0.00    +0.000 NA
ENDROOT
BRANCH   1   7
ATOM      7  C   UNL     1      44.945   5.189  10.132  0.00  0.00    +0.000 C 
BRANCH   7  10
ATOM      8  O   UNL     1      44.516   2.705   9.056  0.00  0.00    +0.000 OA
ATOM      9  C   UNL     1      45.443   3.369   8.586  0.00  0.00    +0.000 C 
ATOM     10  N   UNL     1      45.767   4.611   9.091  0.00  0.00    +0.000 N 
ATOM     11  H   UNL     1      46.403   5.195   8.559  0.00  0.00    +0.000 HD
BRANCH   9  12
ATOM     12  C   UNL     1      46.259   2.897   7.487  0.00  0.00    +0.000 A 
ATOM     13  C   UNL     1      46.438   3.419   6.218  0.00  0.00    +0.000 A 
ATOM     14  C   UNL     1      47.293   2.532   5.525  0.00  0.00    +0.000 A 
ATOM     15  C   UNL     1      47.595   1.526   6.413  0.00  0.00    +0.000 A 
ATOM     16  O   UNL     1      46.984   1.739   7.608  0.00  0.00    +0.000 OA
ENDBRANCH   9  12
ENDBRANCH   7  10
ENDBRANCH   1   7
BRANCH   4  17
ATOM     17  C   UNL     1      47.147   4.398  15.417  0.00  0.00    +0.000 C 
BRANCH  17  18
ATOM     18  N   UNL     1      47.877   5.535  15.920  0.00  0.00    +0.000 N 
ATOM     19  C   UNL     1      48.989   5.365  16.711  0.00  0.00    +0.000 C 
ATOM     20  O   UNL     1      49.428   4.249  16.980  0.00  0.00    +0.000 OA
ATOM     21  H   UNL     1      47.404   6.432  15.923  0.00  0.00    +0.000 HD
BRANCH  19  22
ATOM     22  C   UNL     1      49.665   6.584  17.170  0.00  0.00    +0.000 A 
ATOM     23  C   UNL     1      49.788   6.835  18.531  0.00  0.00    +0.000 A 
ATOM     24  S   UNL     1      50.638   8.269  18.887  0.00  0.00    +0.000 S 
ATOM     25  C   UNL     1      50.823   8.635  17.237  0.00  0.00    +0.000 A 
ATOM     26  N   UNL     1      51.449   9.776  16.838  0.00  0.00    +0.000 NA
ATOM     27  C   UNL     1      51.486   9.944  15.559  0.00  0.00    +0.000 A 
ATOM     28  N   UNL     1      50.962   9.071  14.640  0.00  0.00    +0.000 N 
ATOM     29  C   UNL     1      50.354   7.891  14.996  0.00  0.00    +0.000 A 
ATOM     30  O   UNL     1      49.940   7.105  14.147  0.00  0.00    +0.000 OA
ATOM     31  C   UNL     1      50.266   7.664  16.425  0.00  0.00    +0.000 A 
ATOM     32  H   UNL     1      51.035   9.256  13.651  0.00  0.00    +0.000 HD
ENDBRANCH  19  22
ENDBRANCH  17  18
ENDBRANCH   4  17
TORSDOF 6
ENDMDL
MODEL 9
REMARK VINA RESULT:    -6.973      2.169      3.085
REMARK INTER + INTRA:         -10.277
REMARK INTER:                  -9.306
REMARK INTRA:                  -0.971
REMARK UNBOUND:                -0.858
REMARK  Name = 
REMARK  6 active torsions:
REMARK  status: ('A' for Active; 'I' for Inactive)
REMARK    1  A    between atoms: C_2  and  C_25
REMARK    2  A    between atoms: N_3  and  C_4
REMARK    3  A    between atoms: C_4  and  C_5
REMARK    4  A    between atoms: C_8  and  C_9
REMARK    5  A    between atoms: C_9  and  N_10
REMARK    6  A    between atoms: C_11  and  C_13
REMARK                            x       y       z     vdW  Elec       q    Type
REMARK                         _______ _______ _______ _____ _____    ______ ____
ROOT
ATOM      1  C   UNL     1      44.886   5.054  11.631  0.00  0.00    +0.000 A 
ATOM      2  C   UNL     1      45.865   4.690  12.552  0.00  0.00    +0.000 A 
ATOM      3  C   UNL     1      46.575   5.690  13.219  0.00  0.00    +0.000 A 
ATOM      4  C   UNL     1      46.315   7.033  12.942  0.00  0.00    +0.000 A 
ATOM      5  C   UNL     1      45.318   7.302  12.012  0.00  0.00    +0.000 A 
ATOM      6  N   UNL     1      44.614   6.353  11.349  0.00  0.00    +0.000 NA
ENDROOT
BRANCH   1   7
ATOM      7  C   UNL     1      44.061   4.000  10.931  0.00  0.00    +0.000 C 
BRANCH   7  10
ATOM      8  O   UNL     1      44.728   4.425   8.307  0.00  0.00    +0.000 OA
ATOM      9  C   UNL     1      45.155   3.395   8.836  0.00  0.00    +0.000 C 
ATOM     10  N   UNL     1      44.835   3.070  10.138  0.00  0.00    +0.000 N 
ATOM     11  H   UNL     1      45.354   2.324  10.588  0.00  0.00    +0.000 HD
BRANCH   9  12
ATOM     12  C   UNL     1      46.005   2.456   8.136  0.00  0.00    +0.000 A 
ATOM     13  C   UNL     1      46.924   2.665   7.124  0.00  0.00    +0.000 A 
ATOM     14  C   UNL     1      47.434   1.398   6.762  0.00  0.00    +0.000 A 
ATOM     15  C   UNL     1      46.805   0.489   7.580  0.00  0.00    +0.000 A 
ATOM     16  O   UNL     1      45.945   1.117   8.425  0.00  0.00    +0.000 OA
ENDBRANCH   9  12
ENDBRANCH   7  10
ENDBRANCH   1   7
BRANCH   4  17
ATOM     17  C   UNL     1      47.062   8.140  13.625  0.00  0.00    +0.000 C 
BRANCH  17  18
ATOM     18  N   UNL     1      48.223   7.657  14.330  0.00  0.00    +0.000 N 
ATOM     19  C   UNL     1      48.588   8.195  15.541  0.00  0.00    +0.000 C 
ATOM     20  O   UNL     1      47.920   9.070  16.088  0.00  0.00    +0.000 OA
ATOM     21  H   UNL     1      48.909   7.131  13.798  0.00  0.00    +0.000 HD
BRANCH  19  22
ATOM     22  C   UNL     1      49.783   7.631  16.181  0.00  0.00    +0.000 A 
ATOM     23  C   UNL     1      49.697   7.115  17.468  0.00  0.00    +0.000 A 
ATOM     24  S   UNL     1      51.164   6.461  18.041  0.00  0.00    +0.000 S 
ATOM     25  C   UNL     1      51.979   6.895  16.612  0.00  0.00    +0.000 A 
ATOM     26  N   UNL     1      53.308   6.645  16.460  0.00  0.00    +0.000 NA
ATOM     27  C   UNL     1      53.804   7.060  15.343  0.00  0.00    +0.000 A 
ATOM     28  N   UNL     1      53.090   7.694  14.359  0.00  0.00    +0.000 N 
ATOM     29  C   UNL     1      51.740   7.934  14.454  0.00  0.00    +0.000 A 
ATOM     30  O   UNL     1      51.120   8.459  13.533  0.00  0.00    +0.000 OA
ATOM     31  C   UNL     1      51.138   7.507  15.701  0.00  0.00    +0.000 A 
ATOM     32  H   UNL     1      53.537   7.983  13.501  0.00  0.00    +0.000 HD
ENDBRANCH  19  22
ENDBRANCH  17  18
ENDBRANCH   4  17
TORSDOF 6
ENDMDL
