MODEL 1
REMARK VINA RESULT:    -7.082      0.000      0.000
REMARK INTER + INTRA:         -11.005
REMARK INTER:                 -10.187
REMARK INTRA:                  -0.818
REMARK UNBOUND:                -0.818
REMARK  Name = 
REMARK  9 active torsions:
REMARK  status: ('A' for Active; 'I' for Inactive)
REMARK    1  A    between atoms: C_1  and  C_2
REMARK    2  A    between atoms: C_2  and  O_3
REMARK    3  A    between atoms: C_5  and  O_6
REMARK    4  A    between atoms: O_6  and  C_7
REMARK    5  A    between atoms: C_11  and  C_12
REMARK    6  A    between atoms: C_12  and  C_13
REMARK    7  A    between atoms: C_13  and  N_14
REMARK    8  A    between atoms: N_14  and  C_15
REMARK    9  A    between atoms: C_20  and  C_21
REMARK                            x       y       z     vdW  Elec       q    Type
REMARK                         _______ _______ _______ _____ _____    ______ ____
ROOT
ATOM      1  C   UNL     1      46.912   5.003  13.627  0.00  0.00    +0.000 A 
ATOM      2  C   UNL     1      46.963   6.143  12.832  0.00  0.00    +0.000 A 
ATOM      3  C   UNL     1      46.125   6.251  11.719  0.00  0.00    +0.000 A 
ATOM      4  C   UNL     1      45.272   5.194  11.370  0.00  0.00    +0.000 A 
ATOM      5  C   UNL     1      45.264   4.013  12.123  0.00  0.00    +0.000 A 
ATOM      6  C   UNL     1      46.069   3.960  13.270  0.00  0.00    +0.000 A 
ENDROOT
BRANCH   1   7
ATOM      7  O   UNL     1      47.740   4.923  14.718  0.00  0.00    +0.000 OA
BRANCH   7  11
ATOM      8  C   UNL     1      48.996   3.539  18.808  0.00  0.00    +0.000 C 
ATOM      9  C   UNL     1      48.764   4.049  17.397  0.00  0.00    +0.000 C 
ATOM     10  C   UNL     1      47.555   5.007  17.277  0.00  0.00    +0.000 C 
ATOM     11  C   UNL     1      47.211   4.317  15.932  0.00  0.00    +0.000 C 
ATOM     12  C   UNL     1      48.007   3.092  16.438  0.00  0.00    +0.000 C 
BRANCH   9  13
ATOM     13  O   UNL     1      50.013   4.551  16.872  0.00  0.00    +0.000 OA
ATOM     14  H   UNL     1      49.895   4.578  15.907  0.00  0.00    +0.000 HD
ENDBRANCH   9  13
ENDBRANCH   7  11
ENDBRANCH   1   7
BRANCH   5  15
ATOM     15  C   UNL     1      44.465   2.796  11.676  0.00  0.00    +0.000 C 
BRANCH  15  16
ATOM     16  C   UNL     1      44.144   2.797  10.170  0.00  0.00    +0.000 C 
BRANCH  16  17
ATOM     17  N   UNL     1      44.890   1.795   9.396  0.00  0.00    +0.000 N 
ATOM     18  H   UNL     1      44.260   1.172   8.899  0.00  0.00    +0.000 HD
BRANCH  17  19
ATOM     19  C   UNL     1      45.740   2.416   8.441  0.00  0.00    +0.000 A 
ATOM     20  N   UNL     1      45.686   3.768   8.345  0.00  0.00    +0.000 NA
ATOM     21  C   UNL     1      46.461   4.399   7.444  0.00  0.00    +0.000 A 
ATOM     22  C   UNL     1      47.351   3.745   6.622  0.00  0.00    +0.000 A 
ATOM     23  C   UNL     1      47.429   2.361   6.718  0.00  0.00    +0.000 A 
ATOM     24  C   UNL     1      46.610   1.677   7.631  0.00  0.00    +0.000 A 
BRANCH  24  25
ATOM     25  C   UNL     1      46.701   0.244   7.676  0.00  0.00    +0.000 C 
ATOM     26  N   UNL     1      46.711  -0.913   7.656  0.00  0.00    +0.000 NA
ENDBRANCH  24  25
ENDBRANCH  17  19
ENDBRANCH  16  17
ENDBRANCH  15  16
ENDBRANCH   5  15
TORSDOF 8
ENDMDL
MODEL 2
REMARK VINA RESULT:    -6.995      1.489      2.480
REMARK INTER + INTRA:         -10.880
REMARK INTER:                 -10.259
REMARK INTRA:                  -0.621
REMARK UNBOUND:                -0.818
REMARK  Name = 
REMARK  9 active torsions:
REMARK  status: ('A' for Active; 'I' for Inactive)
REMARK    1  A    between atoms: C_1  and  C_2
REMARK    2  A    between atoms: C_2  and  O_3
REMARK    3  A    between atoms: C_5  and  O_6
REMARK    4  A    between atoms: O_6  and  C_7
REMARK    5  A    between atoms: C_11  and  C_12
REMARK    6  A    between atoms: C_12  and  C_13
REMARK    7  A    between atoms: C_13  and  N_14
REMARK    8  A    between atoms: N_14  and  C_15
REMARK    9  A    between atoms: C_20  and  C_21
REMARK                            x       y       z     vdW  Elec       q    Type
REMARK                         _______ _______ _______ _____ _____    ______ ____
ROOT
ATOM      1  C   UNL     1      47.330   5.119  14.357  0.00  0.00    +0.000 A 
ATOM      2  C   UNL     1      48.123   6.243  14.567  0.00  0.00    +0.000 A 
ATOM      3  C   UNL     1      47.890   7.404  13.825  0.00  0.00    +0.000 A 
ATOM      4  C   UNL     1      46.898   7.425  12.834  0.00  0.00    +0.000 A 
ATOM      5  C   UNL     1      46.141   6.277  12.567  0.00  0.00    +0.000 A 
ATOM      6  C   UNL     1      46.355   5.147  13.370  0.00  0.00    +0.000 A 
ENDROOT
BRANCH   1   7
ATOM      7  O   UNL     1      47.574   3.993  15.102  0.00  0.00    +0.000 OA
BRANCH   7  11
ATOM      8  C   UNL     1      48.991   4.057  19.369  0.00  0.00    +0.000 C 
ATOM      9  C   UNL     1      48.704   4.036  17.878  0.00  0.00    +0.000 C 
ATOM     10  C   UNL     1      47.615   5.044  17.444  0.00  0.00    +0.000 C 
ATOM     11  C   UNL     1      47.078   3.962  16.471  0.00  0.00    +0.000 C 
ATOM     12  C   UNL     1      47.760   2.911  17.377  0.00  0.00    +0.000 C 
BRANCH   9  13
ATOM     13  O   UNL     1      49.957   4.123  17.162  0.00  0.00    +0.000 OA
ATOM     14  H   UNL     1      49.842   4.850  16.528  0.00  0.00    +0.000 HD
ENDBRANCH   9  13
ENDBRANCH   7  11
ENDBRANCH   1   7
BRANCH   5  15
ATOM     15  C   UNL     1      45.170   6.226  11.395  0.00  0.00    +0.000 C 
BRANCH  15  16
ATOM     16  C   UNL     1      45.845   5.872  10.058  0.00  0.00    +0.000 C 
BRANCH  16  17
ATOM     17  N   UNL     1      44.949   5.238   9.080  0.00  0.00    +0.000 N 
ATOM     18  H   UNL     1      44.779   5.850   8.288  0.00  0.00    +0.000 HD
BRANCH  17  19
ATOM     19  C   UNL     1      45.503   4.025   8.590  0.00  0.00    +0.000 A 
ATOM     20  N   UNL     1      46.388   4.114   7.565  0.00  0.00    +0.000 NA
ATOM     21  C   UNL     1      46.926   2.990   7.057  0.00  0.00    +0.000 A 
ATOM     22  C   UNL     1      46.656   1.733   7.547  0.00  0.00    +0.000 A 
ATOM     23  C   UNL     1      45.763   1.626   8.607  0.00  0.00    +0.000 A 
ATOM     24  C   UNL     1      45.165   2.781   9.136  0.00  0.00    +0.000 A 
BRANCH  24  25
ATOM     25  C   UNL     1      44.225   2.622  10.210  0.00  0.00    +0.000 C 
ATOM     26  N   UNL     1      43.406   2.490  11.017  0.00  0.00    +0.000 NA
ENDBRANCH  24  25
ENDBRANCH  17  19
ENDBRANCH  16  17
ENDBRANCH  15  16
ENDBRANCH   5  15
TORSDOF 8
ENDMDL
MODEL 3
REMARK VINA RESULT:    -6.935      3.809      7.308
REMARK INTER + INTRA:         -10.793
REMARK INTER:                  -9.238
REMARK INTRA:                  -1.556
REMARK UNBOUND:                -0.818
REMARK  Name = 
REMARK  9 active torsions:
REMARK  status: ('A' for Active; 'I' for Inactive)
REMARK    1  A    between atoms: C_1  and  C_2
REMARK    2  A    between atoms: C_2  and  O_3
REMARK    3  A    between atoms: C_5  and  O_6
REMARK    4  A    between atoms: O_6  and  C_7
REMARK    5  A    between atoms: C_11  and  C_12
REMARK    6  A    between atoms: C_12  and  C_13
REMARK    7  A    between atoms: C_13  and  N_14
REMARK    8  A    between atoms: N_14  and  C_15
REMARK    9  A    between atoms: C_20  and  C_21
REMARK                            x       y       z     vdW  Elec       q    Type
REMARK                         _______ _______ _______ _____ _____    ______ ____
ROOT
ATOM      1  C   UNL     1      44.876   3.700  10.548  0.00  0.00    +0.000 A 
ATOM      2  C   UNL     1      44.248   2.878  11.478  0.00  0.00    +0.000 A 
ATOM      3  C   UNL     1      43.220   3.391  12.275  0.00  0.00    +0.000 A 
ATOM      4  C   UNL     1      42.856   4.742  12.179  0.00  0.00    +0.000 A 
ATOM      5  C   UNL     1      43.530   5.595  11.295  0.00  0.00    +0.000 A 
ATOM      6  C   UNL     1      44.513   5.038  10.464  0.00  0.00    +0.000 A 
ENDROOT
BRANCH   1   7
ATOM      7  O   UNL     1      45.877   3.173   9.773  0.00  0.00    +0.000 OA
BRANCH   7  11
ATOM      8  C   UNL     1      46.734   2.780   5.376  0.00  0.00    +0.000 C 
ATOM      9  C   UNL     1      46.571   3.066   6.859  0.00  0.00    +0.000 C 
ATOM     10  C   UNL     1      46.638   1.798   7.743  0.00  0.00    +0.000 C 
ATOM     11  C   UNL     1      45.494   2.401   8.599  0.00  0.00    +0.000 C 
ATOM     12  C   UNL     1      45.117   3.253   7.365  0.00  0.00    +0.000 C 
BRANCH   9  13
ATOM     13  O   UNL     1      47.472   4.134   7.228  0.00  0.00    +0.000 OA
ATOM     14  H   UNL     1      47.311   4.291   8.174  0.00  0.00    +0.000 HD
ENDBRANCH   9  13
ENDBRANCH   7  11
ENDBRANCH   1   7
BRANCH   5  15
ATOM     15  C   UNL     1      43.261   7.094  11.285  0.00  0.00    +0.000 C 
BRANCH  15  16
ATOM     16  C   UNL     1      44.537   7.943  11.422  0.00  0.00    +0.000 C 
BRANCH  16  17
ATOM     17  N   UNL     1      45.176   7.861  12.743  0.00  0.00    +0.000 N 
ATOM     18  H   UNL     1      44.810   7.080  13.279  0.00  0.00    +0.000 HD
BRANCH  17  19
ATOM     19  C   UNL     1      46.582   7.691  12.620  0.00  0.00    +0.000 A 
ATOM     20  N   UNL     1      47.286   8.708  12.063  0.00  0.00    +0.000 NA
ATOM     21  C   UNL     1      48.617   8.586  11.912  0.00  0.00    +0.000 A 
ATOM     22  C   UNL     1      49.328   7.484  12.330  0.00  0.00    +0.000 A 
ATOM     23  C   UNL     1      48.624   6.439  12.916  0.00  0.00    +0.000 A 
ATOM     24  C   UNL     1      47.230   6.530  13.058  0.00  0.00    +0.000 A 
BRANCH  24  25
ATOM     25  C   UNL     1      46.537   5.414  13.642  0.00  0.00    +0.000 C 
ATOM     26  N   UNL     1      46.046   4.467  14.090  0.00  0.00    +0.000 NA
ENDBRANCH  24  25
ENDBRANCH  17  19
ENDBRANCH  16  17
ENDBRANCH  15  16
ENDBRANCH   5  15
TORSDOF 8
ENDMDL
MODEL 4
REMARK VINA RESULT:    -6.807      3.881      8.154
REMARK INTER + INTRA:         -10.610
REMARK INTER:                  -9.816
REMARK INTRA:                  -0.794
REMARK UNBOUND:                -0.818
REMARK  Name = 
REMARK  9 active torsions:
REMARK  status: ('A' for Active; 'I' for Inactive)
REMARK    1  A    between atoms: C_1  and  C_2
REMARK    2  A    between atoms: C_2  and  O_3
REMARK    3  A    between atoms: C_5  and  O_6
REMARK    4  A    between atoms: O_6  and  C_7
REMARK    5  A    between atoms: C_11  and  C_12
REMARK    6  A    between atoms: C_12  and  C_13
REMARK    7  A    between atoms: C_13  and  N_14
REMARK    8  A    between atoms: N_14  and  C_15
REMARK    9  A    between atoms: C_20  and  C_21
REMARK                            x       y       z     vdW  Elec       q    Type
REMARK                         _______ _______ _______ _____ _____    ______ ____
ROOT
ATOM      1  C   UNL     1      44.241   4.600  10.209  0.00  0.00    +0.000 A 
ATOM      2  C   UNL     1      43.408   3.852  11.034  0.00  0.00    +0.000 A 
ATOM      3  C   UNL     1      43.372   4.116  12.406  0.00  0.00    +0.000 A 
ATOM      4  C   UNL     1      44.211   5.093  12.962  0.00  0.00    +0.000 A 
ATOM      5  C   UNL     1      45.104   5.803  12.150  0.00  0.00    +0.000 A 
ATOM      6  C   UNL     1      45.072   5.561  10.769  0.00  0.00    +0.000 A 
ENDROOT
BRANCH   1   7
ATOM      7  O   UNL     1      44.255   4.327   8.864  0.00  0.00    +0.000 OA
BRANCH   7  11
ATOM      8  C   UNL     1      47.569   2.119   6.777  0.00  0.00    +0.000 C 
ATOM      9  C   UNL     1      46.552   3.030   7.442  0.00  0.00    +0.000 C 
ATOM     10  C   UNL     1      46.079   2.521   8.824  0.00  0.00    +0.000 C 
ATOM     11  C   UNL     1      44.650   2.989   8.445  0.00  0.00    +0.000 C 
ATOM     12  C   UNL     1      45.083   2.881   6.965  0.00  0.00    +0.000 C 
BRANCH   9  13
ATOM     13  O   UNL     1      47.053   4.385   7.413  0.00  0.00    +0.000 OA
ATOM     14  H   UNL     1      46.706   4.771   6.591  0.00  0.00    +0.000 HD
ENDBRANCH   9  13
ENDBRANCH   7  11
ENDBRANCH   1   7
BRANCH   5  15
ATOM     15  C   UNL     1      46.131   6.753  12.750  0.00  0.00    +0.000 C 
BRANCH  15  16
ATOM     16  C   UNL     1      47.351   6.033  13.352  0.00  0.00    +0.000 C 
BRANCH  16  17
ATOM     17  N   UNL     1      47.103   5.429  14.669  0.00  0.00    +0.000 N 
ATOM     18  H   UNL     1      46.925   4.432  14.588  0.00  0.00    +0.000 HD
BRANCH  17  19
ATOM     19  C   UNL     1      48.218   5.610  15.532  0.00  0.00    +0.000 A 
ATOM     20  N   UNL     1      49.138   6.540  15.175  0.00  0.00    +0.000 NA
ATOM     21  C   UNL     1      50.218   6.735  15.953  0.00  0.00    +0.000 A 
ATOM     22  C   UNL     1      50.433   6.058  17.132  0.00  0.00    +0.000 A 
ATOM     23  C   UNL     1      49.492   5.111  17.520  0.00  0.00    +0.000 A 
ATOM     24  C   UNL     1      48.370   4.869  16.710  0.00  0.00    +0.000 A 
BRANCH  24  25
ATOM     25  C   UNL     1      47.439   3.860  17.133  0.00  0.00    +0.000 C 
ATOM     26  N   UNL     1      46.636   3.076  17.413  0.00  0.00    +0.000 NA
ENDBRANCH  24  25
ENDBRANCH  17  19
ENDBRANCH  16  17
ENDBRANCH  15  16
ENDBRANCH   5  15
TORSDOF 8
ENDMDL
MODEL 5
REMARK VINA RESULT:    -6.454      3.520      7.781
REMARK INTER + INTRA:         -10.102
REMARK INTER:                  -9.031
REMARK INTRA:                  -1.070
REMARK UNBOUND:                -0.818
REMARK  Name = 
REMARK  9 active torsions:
REMARK  status: ('A' for Active; 'I' for Inactive)
REMARK    1  A    between atoms: C_1  and  C_2
REMARK    2  A    between atoms: C_2  and  O_3
REMARK    3  A    between atoms: C_5  and  O_6
REMARK    4  A    between atoms: O_6  and  C_7
REMARK    5  A    between atoms: C_11  and  C_12
REMARK    6  A    between atoms: C_12  and  C_13
REMARK    7  A    between atoms: C_13  and  N_14
REMARK    8  A    between atoms: N_14  and  C_15
REMARK    9  A    between atoms: C_20  and  C_21
REMARK                            x       y       z     vdW  Elec       q    Type
REMARK                         _______ _______ _______ _____ _____    ______ ____
ROOT
ATOM      1  C   UNL     1      45.609   6.816  12.691  0.00  0.00    +0.000 A 
ATOM      2  C   UNL     1      45.285   8.159  12.525  0.00  0.00    +0.000 A 
ATOM      3  C   UNL     1      46.277   9.134  12.663  0.00  0.00    +0.000 A 
ATOM      4  C   UNL     1      47.583   8.770  13.020  0.00  0.00    +0.000 A 
ATOM      5  C   UNL     1      47.903   7.428  13.258  0.00  0.00    +0.000 A 
ATOM      6  C   UNL     1      46.903   6.466  13.051  0.00  0.00    +0.000 A 
ENDROOT
BRANCH   1   7
ATOM      7  O   UNL     1      44.620   5.877  12.545  0.00  0.00    +0.000 OA
BRANCH   7  11
ATOM      8  C   UNL     1      44.505   2.531   9.543  0.00  0.00    +0.000 C 
ATOM      9  C   UNL     1      44.645   3.536  10.673  0.00  0.00    +0.000 C 
ATOM     10  C   UNL     1      43.330   4.278  11.006  0.00  0.00    +0.000 C 
ATOM     11  C   UNL     1      44.169   5.568  11.195  0.00  0.00    +0.000 C 
ATOM     12  C   UNL     1      45.242   4.917  10.293  0.00  0.00    +0.000 C 
BRANCH   9  13
ATOM     13  O   UNL     1      45.300   2.892  11.789  0.00  0.00    +0.000 OA
ATOM     14  H   UNL     1      45.761   2.125  11.410  0.00  0.00    +0.000 HD
ENDBRANCH   9  13
ENDBRANCH   7  11
ENDBRANCH   1   7
BRANCH   5  15
ATOM     15  C   UNL     1      49.269   7.025  13.798  0.00  0.00    +0.000 C 
BRANCH  15  16
ATOM     16  C   UNL     1      49.303   6.884  15.330  0.00  0.00    +0.000 C 
BRANCH  16  17
ATOM     17  N   UNL     1      48.028   6.455  15.923  0.00  0.00    +0.000 N 
ATOM     18  H   UNL     1      47.386   6.121  15.209  0.00  0.00    +0.000 HD
BRANCH  17  19
ATOM     19  C   UNL     1      48.228   5.407  16.862  0.00  0.00    +0.000 A 
ATOM     20  N   UNL     1      48.660   5.755  18.100  0.00  0.00    +0.000 NA
ATOM     21  C   UNL     1      48.878   4.796  19.018  0.00  0.00    +0.000 A 
ATOM     22  C   UNL     1      48.651   3.459  18.784  0.00  0.00    +0.000 A 
ATOM     23  C   UNL     1      48.194   3.087  17.525  0.00  0.00    +0.000 A 
ATOM     24  C   UNL     1      47.986   4.066  16.540  0.00  0.00    +0.000 A 
BRANCH  24  25
ATOM     25  C   UNL     1      47.543   3.635  15.243  0.00  0.00    +0.000 C 
ATOM     26  N   UNL     1      47.217   3.211  14.217  0.00  0.00    +0.000 NA
ENDBRANCH  24  25
ENDBRANCH  17  19
ENDBRANCH  16  17
ENDBRANCH  15  16
ENDBRANCH   5  15
TORSDOF 8
ENDMDL
MODEL 6
REMARK VINA RESULT:    -6.163      3.966      5.551
REMARK INTER + INTRA:          -9.683
REMARK INTER:                  -8.946
REMARK INTRA:                  -0.737
REMARK UNBOUND:                -0.818
REMARK  Name = 
REMARK  9 active torsions:
REMARK  status: ('A' for Active; 'I' for Inactive)
REMARK    1  A    between atoms: C_1  and  C_2
REMARK    2  A    between atoms: C_2  and  O_3
REMARK    3  A    between atoms: C_5  and  O_6
REMARK    4  A    between atoms: O_6  and  C_7
REMARK    5  A    between atoms: C_11  and  C_12
REMARK    6  A    between atoms: C_12  and  C_13
REMARK    7  A    between atoms: C_13  and  N_14
REMARK    8  A    between atoms: N_14  and  C_15
REMARK    9  A    between atoms: C_20  and  C_21
REMARK                            x       y       z     vdW  Elec       q    Type
REMARK                         _______ _______ _______ _____ _____    ______ ____
ROOT
ATOM      1  C   UNL     1      49.153   8.333  12.047  0.00  0.00    +0.000 A 
ATOM      2  C   UNL     1      48.968   9.705  11.915  0.00  0.00    +0.000 A 
ATOM      3  C   UNL     1      47.678  10.240  11.976  0.00  0.00    +0.000 A 
ATOM      4  C   UNL     1      46.567   9.396  12.114  0.00  0.00    +0.000 A 
ATOM      5  C   UNL     1      46.737   8.007  12.178  0.00  0.00    +0.000 A 
ATOM      6  C   UNL     1      48.047   7.505  12.178  0.00  0.00    +0.000 A 
ENDROOT
BRANCH   1   7
ATOM      7  O   UNL     1      50.429   7.832  11.991  0.00  0.00    +0.000 OA
BRANCH   7  11
ATOM      8  C   UNL     1      54.487   7.911  10.055  0.00  0.00    +0.000 C 
ATOM      9  C   UNL     1      53.123   7.688  10.685  0.00  0.00    +0.000 C 
ATOM     10  C   UNL     1      52.039   8.665  10.173  0.00  0.00    +0.000 C 
ATOM     11  C   UNL     1      51.504   8.746  11.626  0.00  0.00    +0.000 C 
ATOM     12  C   UNL     1      52.909   8.303  12.094  0.00  0.00    +0.000 C 
BRANCH   9  13
ATOM     13  O   UNL     1      52.793   6.284  10.593  0.00  0.00    +0.000 OA
ATOM     14  H   UNL     1      52.067   6.148  11.225  0.00  0.00    +0.000 HD
ENDBRANCH   9  13
ENDBRANCH   7  11
ENDBRANCH   1   7
BRANCH   5  15
ATOM     15  C   UNL     1      45.542   7.064  12.170  0.00  0.00    +0.000 C 
BRANCH  15  16
ATOM     16  C   UNL     1      45.778   5.786  11.345  0.00  0.00    +0.000 C 
BRANCH  16  17
ATOM     17  N   UNL     1      44.844   5.613  10.224  0.00  0.00    +0.000 N 
ATOM     18  H   UNL     1      44.798   6.451   9.652  0.00  0.00    +0.000 HD
BRANCH  17  19
ATOM     19  C   UNL     1      45.240   4.531   9.391  0.00  0.00    +0.000 A 
ATOM     20  N   UNL     1      46.078   4.812   8.362  0.00  0.00    +0.000 NA
ATOM     21  C   UNL     1      46.467   3.822   7.538  0.00  0.00    +0.000 A 
ATOM     22  C   UNL     1      46.087   2.509   7.699  0.00  0.00    +0.000 A 
ATOM     23  C   UNL     1      45.240   2.203   8.758  0.00  0.00    +0.000 A 
ATOM     24  C   UNL     1      44.797   3.222   9.616  0.00  0.00    +0.000 A 
BRANCH  24  25
ATOM     25  C   UNL     1      43.899   2.866  10.678  0.00  0.00    +0.000 C 
ATOM     26  N   UNL     1      43.172   2.662  11.556  0.00  0.00    +0.000 NA
ENDBRANCH  24  25
ENDBRANCH  17  19
ENDBRANCH  16  17
ENDBRANCH  15  16
ENDBRANCH   5  15
TORSDOF 8
ENDMDL
MODEL 7
REMARK VINA RESULT:    -6.095      2.398      4.109
REMARK INTER + INTRA:          -9.585
REMARK INTER:                  -8.763
REMARK INTRA:                  -0.822
REMARK UNBOUND:                -0.818
REMARK  Name = 
REMARK  9 active torsions:
REMARK  status: ('A' for Active; 'I' for Inactive)
REMARK    1  A    between atoms: C_1  and  C_2
REMARK    2  A    between atoms: C_2  and  O_3
REMARK    3  A    between atoms: C_5  and  O_6
REMARK    4  A    between atoms: O_6  and  C_7
REMARK    5  A    between atoms: C_11  and  C_12
REMARK    6  A    between atoms: C_12  and  C_13
REMARK    7  A    between atoms: C_13  and  N_14
REMARK    8  A    between atoms: N_14  and  C_15
REMARK    9  A    between atoms: C_20  and  C_21
REMARK                            x       y       z     vdW  Elec       q    Type
REMARK                         _______ _______ _______ _____ _____    ______ ____
ROOT
ATOM      1  C   UNL     1      48.802   7.044  13.925  0.00  0.00    +0.000 A 
ATOM      2  C   UNL     1      49.708   7.403  12.933  0.00  0.00    +0.000 A 
ATOM      3  C   UNL     1      49.294   8.218  11.876  0.00  0.00    +0.000 A 
ATOM      4  C   UNL     1      47.957   8.630  11.782  0.00  0.00    +0.000 A 
ATOM      5  C   UNL     1      47.020   8.217  12.737  0.00  0.00    +0.000 A 
ATOM      6  C   UNL     1      47.479   7.452  13.819  0.00  0.00    +0.000 A 
ENDROOT
BRANCH   1   7
ATOM      7  O   UNL     1      49.233   6.248  14.956  0.00  0.00    +0.000 OA
BRANCH   7  11
ATOM      8  C   UNL     1      48.823   3.950  18.798  0.00  0.00    +0.000 C 
ATOM      9  C   UNL     1      49.122   4.614  17.466  0.00  0.00    +0.000 C 
ATOM     10  C   UNL     1      49.044   6.158  17.514  0.00  0.00    +0.000 C 
ATOM     11  C   UNL     1      48.368   6.113  16.120  0.00  0.00    +0.000 C 
ATOM     12  C   UNL     1      47.953   4.660  16.446  0.00  0.00    +0.000 C 
BRANCH   9  13
ATOM     13  O   UNL     1      50.350   4.066  16.938  0.00  0.00    +0.000 OA
ATOM     14  H   UNL     1      50.391   3.154  17.274  0.00  0.00    +0.000 HD
ENDBRANCH   9  13
ENDBRANCH   7  11
ENDBRANCH   1   7
BRANCH   5  15
ATOM     15  C   UNL     1      45.537   8.520  12.572  0.00  0.00    +0.000 C 
BRANCH  15  16
ATOM     16  C   UNL     1      44.844   7.627  11.527  0.00  0.00    +0.000 C 
BRANCH  16  17
ATOM     17  N   UNL     1      45.618   6.439  11.143  0.00  0.00    +0.000 N 
ATOM     18  H   UNL     1      46.480   6.374  11.676  0.00  0.00    +0.000 HD
BRANCH  17  19
ATOM     19  C   UNL     1      44.872   5.249  11.364  0.00  0.00    +0.000 A 
ATOM     20  N   UNL     1      44.302   5.090  12.585  0.00  0.00    +0.000 NA
ATOM     21  C   UNL     1      43.599   3.973  12.845  0.00  0.00    +0.000 A 
ATOM     22  C   UNL     1      43.390   2.977  11.918  0.00  0.00    +0.000 A 
ATOM     23  C   UNL     1      43.956   3.132  10.658  0.00  0.00    +0.000 A 
ATOM     24  C   UNL     1      44.717   4.276  10.370  0.00  0.00    +0.000 A 
BRANCH  24  25
ATOM     25  C   UNL     1      45.309   4.381   9.065  0.00  0.00    +0.000 C 
ATOM     26  N   UNL     1      45.719   4.512   7.991  0.00  0.00    +0.000 NA
ENDBRANCH  24  25
ENDBRANCH  17  19
ENDBRANCH  16  17
ENDBRANCH  15  16
ENDBRANCH   5  15
TORSDOF 8
ENDMDL
MODEL 8
REMARK VINA RESULT:    -6.016      4.645      7.930
REMARK INTER + INTRA:          -9.472
REMARK INTER:                  -7.832
REMARK INTRA:                  -1.640
REMARK UNBOUND:                -0.818
REMARK  Name = 
REMARK  9 active torsions:
REMARK  status: ('A' for Active; 'I' for Inactive)
REMARK    1  A    between atoms: C_1  and  C_2
REMARK    2  A    between atoms: C_2  and  O_3
REMARK    3  A    between atoms: C_5  and  O_6
REMARK    4  A    between atoms: O_6  and  C_7
REMARK    5  A    between atoms: C_11  and  C_12
REMARK    6  A    between atoms: C_12  and  C_13
REMARK    7  A    between atoms: C_13  and  N_14
REMARK    8  A    between atoms: N_14  and  C_15
REMARK    9  A    between atoms: C_20  and  C_21
REMARK                            x       y       z     vdW  Elec       q    Type
REMARK                         _______ _______ _______ _____ _____    ______ ____
ROOT
ATOM      1  C   UNL     1      46.457   7.055  12.806  0.00  0.00    +0.000 A 
ATOM      2  C   UNL     1      45.928   8.334  12.947  0.00  0.00    +0.000 A 
ATOM      3  C   UNL     1      46.659   9.440  12.503  0.00  0.00    +0.000 A 
ATOM      4  C   UNL     1      47.944   9.271  11.968  0.00  0.00    +0.000 A 
ATOM      5  C   UNL     1      48.514   7.994  11.886  0.00  0.00    +0.000 A 
ATOM      6  C   UNL     1      47.732   6.899  12.280  0.00  0.00    +0.000 A 
ENDROOT
BRANCH   1   7
ATOM      7  O   UNL     1      45.718   5.985  13.242  0.00  0.00    +0.000 OA
BRANCH   7  11
ATOM      8  C   UNL     1      43.327   2.542  11.614  0.00  0.00    +0.000 C 
ATOM      9  C   UNL     1      44.272   3.570  12.212  0.00  0.00    +0.000 C 
ATOM     10  C   UNL     1      43.570   4.581  13.149  0.00  0.00    +0.000 C 
ATOM     11  C   UNL     1      44.475   5.686  12.544  0.00  0.00    +0.000 C 
ATOM     12  C   UNL     1      44.638   4.775  11.305  0.00  0.00    +0.000 C 
BRANCH   9  13
ATOM     13  O   UNL     1      45.411   2.882  12.776  0.00  0.00    +0.000 OA
ATOM     14  H   UNL     1      46.151   3.074  12.176  0.00  0.00    +0.000 HD
ENDBRANCH   9  13
ENDBRANCH   7  11
ENDBRANCH   1   7
BRANCH   5  15
ATOM     15  C   UNL     1      49.962   7.802  11.456  0.00  0.00    +0.000 C 
BRANCH  15  16
ATOM     16  C   UNL     1      50.979   8.352  12.473  0.00  0.00    +0.000 C 
BRANCH  16  17
ATOM     17  N   UNL     1      50.872   7.757  13.812  0.00  0.00    +0.000 N 
ATOM     18  H   UNL     1      51.791   7.603  14.220  0.00  0.00    +0.000 HD
BRANCH  17  19
ATOM     19  C   UNL     1      50.136   8.599  14.689  0.00  0.00    +0.000 A 
ATOM     20  N   UNL     1      50.411   9.927  14.654  0.00  0.00    +0.000 NA
ATOM     21  C   UNL     1      49.750  10.761  15.477  0.00  0.00    +0.000 A 
ATOM     22  C   UNL     1      48.767  10.345  16.345  0.00  0.00    +0.000 A 
ATOM     23  C   UNL     1      48.463   8.989  16.383  0.00  0.00    +0.000 A 
ATOM     24  C   UNL     1      49.158   8.094  15.555  0.00  0.00    +0.000 A 
BRANCH  24  25
ATOM     25  C   UNL     1      48.834   6.698  15.648  0.00  0.00    +0.000 C 
ATOM     26  N   UNL     1      48.593   5.566  15.640  0.00  0.00    +0.000 NA
ENDBRANCH  24  25
ENDBRANCH  17  19
ENDBRANCH  16  17
ENDBRANCH  15  16
ENDBRANCH   5  15
TORSDOF 8
ENDMDL
MODEL 9
REMARK VINA RESULT:    -5.991      4.483      8.146
REMARK INTER + INTRA:          -9.436
REMARK INTER:                  -8.259
REMARK INTRA:                  -1.177
REMARK UNBOUND:                -0.818
REMARK  Name = 
REMARK  9 active torsions:
REMARK  status: ('A' for Active; 'I' for Inactive)
REMARK    1  A    between atoms: C_1  and  C_2
REMARK    2  A    between atoms: C_2  and  O_3
REMARK    3  A    between atoms: C_5  and  O_6
REMARK    4  A    between atoms: O_6  and  C_7
REMARK    5  A    between atoms: C_11  and  C_12
REMARK    6  A    between atoms: C_12  and  C_13
REMARK    7  A    between atoms: C_13  and  N_14
REMARK    8  A    between atoms: N_14  and  C_15
REMARK    9  A    between atoms: C_20  and  C_21
REMARK                            x       y       z     vdW  Elec       q    Type
REMARK                         _______ _______ _______ _____ _____    ______ ____
ROOT
ATOM      1  C   UNL     1      48.010   6.366  13.198  0.00  0.00    +0.000 A 
ATOM      2  C   UNL     1      48.973   7.074  12.486  0.00  0.00    +0.000 A 
ATOM      3  C   UNL     1      49.991   7.741  13.171  0.00  0.00    +0.000 A 
ATOM      4  C   UNL     1      50.017   7.746  14.573  0.00  0.00    +0.000 A 
ATOM      5  C   UNL     1      49.013   7.095  15.301  0.00  0.00    +0.000 A 
ATOM      6  C   UNL     1      48.040   6.381  14.586  0.00  0.00    +0.000 A 
ENDROOT
BRANCH   1   7
ATOM      7  O   UNL     1      47.024   5.713  12.503  0.00  0.00    +0.000 OA
BRANCH   7  11
ATOM      8  C   UNL     1      43.476   3.002  11.969  0.00  0.00    +0.000 C 
ATOM      9  C   UNL     1      44.672   3.938  11.952  0.00  0.00    +0.000 C 
ATOM     10  C   UNL     1      45.846   3.457  12.837  0.00  0.00    +0.000 C 
ATOM     11  C   UNL     1      46.058   4.932  13.263  0.00  0.00    +0.000 C 
ATOM     12  C   UNL     1      44.582   5.182  12.875  0.00  0.00    +0.000 C 
BRANCH   9  13
ATOM     13  O   UNL     1      45.007   4.239  10.579  0.00  0.00    +0.000 OA
ATOM     14  H   UNL     1      44.947   5.206  10.505  0.00  0.00    +0.000 HD
ENDBRANCH   9  13
ENDBRANCH   7  11
ENDBRANCH   1   7
BRANCH   5  15
ATOM     15  C   UNL     1      48.930   7.218  16.817  0.00  0.00    +0.000 C 
BRANCH  15  16
ATOM     16  C   UNL     1      50.066   6.483  17.551  0.00  0.00    +0.000 C 
BRANCH  16  17
ATOM     17  N   UNL     1      49.611   5.402  18.435  0.00  0.00    +0.000 N 
ATOM     18  H   UNL     1      48.597   5.354  18.464  0.00  0.00    +0.000 HD
BRANCH  17  19
ATOM     19  C   UNL     1      50.100   4.142  17.996  0.00  0.00    +0.000 A 
ATOM     20  N   UNL     1      51.416   3.880  18.198  0.00  0.00    +0.000 NA
ATOM     21  C   UNL     1      51.927   2.706  17.784  0.00  0.00    +0.000 A 
ATOM     22  C   UNL     1      51.173   1.720  17.189  0.00  0.00    +0.000 A 
ATOM     23  C   UNL     1      49.820   1.967  16.989  0.00  0.00    +0.000 A 
ATOM     24  C   UNL     1      49.269   3.196  17.385  0.00  0.00    +0.000 A 
BRANCH  24  25
ATOM     25  C   UNL     1      47.873   3.421  17.132  0.00  0.00    +0.000 C 
ATOM     26  N   UNL     1      46.731   3.555  16.996  0.00  0.00    +0.000 NA
ENDBRANCH  24  25
ENDBRANCH  17  19
ENDBRANCH  16  17
ENDBRANCH  15  16
ENDBRANCH   5  15
TORSDOF 8
ENDMDL
