MODEL 1
REMARK VINA RESULT:    -6.823      0.000      0.000
REMARK INTER + INTRA:         -12.454
REMARK INTER:                 -10.612
REMARK INTRA:                  -1.842
REMARK UNBOUND:                -1.842
REMARK  Name = 
REMARK  11 active torsions:
REMARK  status: ('A' for Active; 'I' for Inactive)
REMARK    1  A    between atoms: C_1  and  C_2
REMARK    2  A    between atoms: C_2  and  O_3
REMARK    3  A    between atoms: O_3  and  C_4
REMARK    4  A    between atoms: C_4  and  C_5
REMARK    5  A    between atoms: C_5  and  N_6
REMARK    6  A    between atoms: N_6  and  C_7
REMARK    7  A    between atoms: C_7  and  C_8
REMARK    8  A    between atoms: C_11  and  C_12
REMARK    9  A    between atoms: C_12  and  N_13
REMARK   10  A    between atoms: C_16  and  O_17
REMARK   11  A    between atoms: C_21  and  C_23
REMARK                            x       y       z     vdW  Elec       q    Type
REMARK                         _______ _______ _______ _____ _____    ______ ____
ROOT
ATOM      1  N   UNL     1      46.008   7.146  12.360  0.00  0.00    +0.000 N 
ATOM      2  C   UNL     1      44.779   6.763  11.766  0.00  0.00    +0.000 C 
ATOM      3  O   UNL     1      43.966   7.581  11.399  0.00  0.00    +0.000 OA
ENDROOT
BRANCH   2   4
ATOM      4  C   UNL     1      44.487   5.321  11.618  0.00  0.00    +0.000 A 
ATOM      5  C   UNL     1      43.785   4.554  12.546  0.00  0.00    +0.000 A 
ATOM      6  S   UNL     1      43.501   2.959  12.052  0.00  0.00    +0.000 S 
ATOM      7  C   UNL     1      44.212   3.263  10.541  0.00  0.00    +0.000 A 
ATOM      8  N   UNL     1      44.175   2.320   9.564  0.00  0.00    +0.000 NA
ATOM      9  C   UNL     1      44.697   2.705   8.449  0.00  0.00    +0.000 A 
ATOM     10  N   UNL     1      45.302   3.920   8.238  0.00  0.00    +0.000 N 
ATOM     11  C   UNL     1      45.482   4.856   9.244  0.00  0.00    +0.000 A 
ATOM     12  O   UNL     1      46.232   5.804   9.087  0.00  0.00    +0.000 OA
ATOM     13  C   UNL     1      44.767   4.525  10.460  0.00  0.00    +0.000 A 
ATOM     14  H   UNL     1      45.750   4.132   7.364  0.00  0.00    +0.000 HD
ENDBRANCH   2   4
BRANCH   1  15
ATOM     15  C   UNL     1      46.242   8.612  12.380  0.00  0.00    +0.000 C 
BRANCH  15  16
ATOM     16  C   UNL     1      47.651   9.052  11.949  0.00  0.00    +0.000 C 
BRANCH  16  17
ATOM     17  O   UNL     1      48.551   9.405  13.026  0.00  0.00    +0.000 OA
BRANCH  17  19
ATOM     18  C   UNL     1      50.176   8.038  11.752  0.00  0.00    +0.000 C 
ATOM     19  C   UNL     1      49.891   9.319  12.513  0.00  0.00    +0.000 C 
ENDBRANCH  17  19
ENDBRANCH  16  17
ENDBRANCH  15  16
ENDBRANCH   1  15
BRANCH   1  20
ATOM     20  C   UNL     1      47.093   6.173  12.507  0.00  0.00    +0.000 C 
BRANCH  20  21
ATOM     21  C   UNL     1      47.514   5.616  13.834  0.00  0.00    +0.000 A 
ATOM     22  C   UNL     1      48.399   6.375  14.606  0.00  0.00    +0.000 A 
ATOM     23  C   UNL     1      48.573   6.101  15.960  0.00  0.00    +0.000 A 
ATOM     24  C   UNL     1      47.961   4.985  16.555  0.00  0.00    +0.000 A 
ATOM     25  C   UNL     1      47.150   4.168  15.745  0.00  0.00    +0.000 A 
ATOM     26  C   UNL     1      46.895   4.503  14.406  0.00  0.00    +0.000 A 
BRANCH  24  27
ATOM     27  C   UNL     1      48.218   4.651  18.019  0.00  0.00    +0.000 C 
BRANCH  27  28
ATOM     28  N   UNL     1      49.397   3.851  18.357  0.00  0.00    +0.000 NA
ATOM     29  C   UNL     1      50.610   4.590  18.675  0.00  0.00    +0.000 C 
ATOM     30  C   UNL     1      51.704   4.047  17.771  0.00  0.00    +0.000 C 
ATOM     31  C   UNL     1      51.236   2.648  17.413  0.00  0.00    +0.000 C 
ATOM     32  C   UNL     1      49.707   2.695  17.517  0.00  0.00    +0.000 C 
BRANCH  31  33
ATOM     33  O   UNL     1      51.789   1.715  18.340  0.00  0.00    +0.000 OA
ATOM     34  H   UNL     1      51.244   1.760  19.147  0.00  0.00    +0.000 HD
ENDBRANCH  31  33
ENDBRANCH  27  28
ENDBRANCH  24  27
ENDBRANCH  20  21
ENDBRANCH   1  20
TORSDOF 10
ENDMDL
MODEL 2
REMARK VINA RESULT:    -6.025      2.861      7.889
REMARK INTER + INTRA:         -11.213
REMARK INTER:                 -11.222
REMARK INTRA:                   0.009
REMARK UNBOUND:                -1.842
REMARK  Name = 
REMARK  11 active torsions:
REMARK  status: ('A' for Active; 'I' for Inactive)
REMARK    1  A    between atoms: C_1  and  C_2
REMARK    2  A    between atoms: C_2  and  O_3
REMARK    3  A    between atoms: O_3  and  C_4
REMARK    4  A    between atoms: C_4  and  C_5
REMARK    5  A    between atoms: C_5  and  N_6
REMARK    6  A    between atoms: N_6  and  C_7
REMARK    7  A    between atoms: C_7  and  C_8
REMARK    8  A    between atoms: C_11  and  C_12
REMARK    9  A    between atoms: C_12  and  N_13
REMARK   10  A    between atoms: C_16  and  O_17
REMARK   11  A    between atoms: C_21  and  C_23
REMARK                            x       y       z     vdW  Elec       q    Type
REMARK                         _______ _______ _______ _____ _____    ______ ____
ROOT
ATOM      1  N   UNL     1      46.780   5.771  14.050  0.00  0.00    +0.000 N 
ATOM      2  C   UNL     1      47.788   6.723  13.757  0.00  0.00    +0.000 C 
ATOM      3  O   UNL     1      48.939   6.558  14.091  0.00  0.00    +0.000 OA
ENDROOT
BRANCH   2   4
ATOM      4  C   UNL     1      47.402   7.960  13.042  0.00  0.00    +0.000 A 
ATOM      5  C   UNL     1      46.179   8.612  13.189  0.00  0.00    +0.000 A 
ATOM      6  S   UNL     1      46.065  10.069  12.332  0.00  0.00    +0.000 S 
ATOM      7  C   UNL     1      47.678   9.936  11.821  0.00  0.00    +0.000 A 
ATOM      8  N   UNL     1      48.268  10.953  11.142  0.00  0.00    +0.000 NA
ATOM      9  C   UNL     1      49.512  10.745  10.870  0.00  0.00    +0.000 A 
ATOM     10  N   UNL     1      50.202   9.594  11.161  0.00  0.00    +0.000 N 
ATOM     11  C   UNL     1      49.604   8.481  11.731  0.00  0.00    +0.000 A 
ATOM     12  O   UNL     1      50.176   7.405  11.747  0.00  0.00    +0.000 OA
ATOM     13  C   UNL     1      48.256   8.738  12.196  0.00  0.00    +0.000 A 
ATOM     14  H   UNL     1      51.153   9.469  10.861  0.00  0.00    +0.000 HD
ENDBRANCH   2   4
BRANCH   1  15
ATOM     15  C   UNL     1      47.287   4.528  14.688  0.00  0.00    +0.000 C 
BRANCH  15  16
ATOM     16  C   UNL     1      47.176   4.492  16.221  0.00  0.00    +0.000 C 
BRANCH  16  17
ATOM     17  O   UNL     1      46.958   3.184  16.800  0.00  0.00    +0.000 OA
BRANCH  17  19
ATOM     18  C   UNL     1      49.323   2.538  17.141  0.00  0.00    +0.000 C 
ATOM     19  C   UNL     1      48.004   2.958  17.759  0.00  0.00    +0.000 C 
ENDBRANCH  17  19
ENDBRANCH  16  17
ENDBRANCH  15  16
ENDBRANCH   1  15
BRANCH   1  20
ATOM     20  C   UNL     1      45.481   5.837  13.378  0.00  0.00    +0.000 C 
BRANCH  20  21
ATOM     21  C   UNL     1      45.164   5.055  12.137  0.00  0.00    +0.000 A 
ATOM     22  C   UNL     1      45.356   5.686  10.905  0.00  0.00    +0.000 A 
ATOM     23  C   UNL     1      45.408   4.944   9.728  0.00  0.00    +0.000 A 
ATOM     24  C   UNL     1      45.149   3.562   9.734  0.00  0.00    +0.000 A 
ATOM     25  C   UNL     1      44.860   2.952  10.969  0.00  0.00    +0.000 A 
ATOM     26  C   UNL     1      44.907   3.682  12.166  0.00  0.00    +0.000 A 
BRANCH  24  27
ATOM     27  C   UNL     1      45.136   2.773   8.432  0.00  0.00    +0.000 C 
BRANCH  27  28
ATOM     28  N   UNL     1      46.370   2.703   7.645  0.00  0.00    +0.000 NA
ATOM     29  C   UNL     1      46.511   3.681   6.576  0.00  0.00    +0.000 C 
ATOM     30  C   UNL     1      46.807   2.903   5.305  0.00  0.00    +0.000 C 
ATOM     31  C   UNL     1      47.406   1.596   5.795  0.00  0.00    +0.000 C 
ATOM     32  C   UNL     1      46.826   1.387   7.199  0.00  0.00    +0.000 C 
BRANCH  31  33
ATOM     33  O   UNL     1      48.828   1.718   5.836  0.00  0.00    +0.000 OA
ATOM     34  H   UNL     1      49.156   1.511   4.943  0.00  0.00    +0.000 HD
ENDBRANCH  31  33
ENDBRANCH  27  28
ENDBRANCH  24  27
ENDBRANCH  20  21
ENDBRANCH   1  20
TORSDOF 10
ENDMDL
MODEL 3
REMARK VINA RESULT:    -5.871      3.049      7.443
REMARK INTER + INTRA:         -10.973
REMARK INTER:                  -8.819
REMARK INTRA:                  -2.154
REMARK UNBOUND:                -1.842
REMARK  Name = 
REMARK  11 active torsions:
REMARK  status: ('A' for Active; 'I' for Inactive)
REMARK    1  A    between atoms: C_1  and  C_2
REMARK    2  A    between atoms: C_2  and  O_3
REMARK    3  A    between atoms: O_3  and  C_4
REMARK    4  A    between atoms: C_4  and  C_5
REMARK    5  A    between atoms: C_5  and  N_6
REMARK    6  A    between atoms: N_6  and  C_7
REMARK    7  A    between atoms: C_7  and  C_8
REMARK    8  A    between atoms: C_11  and  C_12
REMARK    9  A    between atoms: C_12  and  N_13
REMARK   10  A    between atoms: C_16  and  O_17
REMARK   11  A    between atoms: C_21  and  C_23
REMARK                            x       y       z     vdW  Elec       q    Type
REMARK                         _______ _______ _______ _____ _____    ______ ____
ROOT
ATOM      1  N   UNL     1      49.639   8.941  15.202  0.00  0.00    +0.000 N 
ATOM      2  C   UNL     1      50.148   8.713  16.505  0.00  0.00    +0.000 C 
ATOM      3  O   UNL     1      51.313   8.896  16.776  0.00  0.00    +0.000 OA
ENDROOT
BRANCH   2   4
ATOM      4  C   UNL     1      49.222   8.214  17.546  0.00  0.00    +0.000 A 
ATOM      5  C   UNL     1      48.576   9.017  18.483  0.00  0.00    +0.000 A 
ATOM      6  S   UNL     1      47.485   8.182  19.474  0.00  0.00    +0.000 S 
ATOM      7  C   UNL     1      47.757   6.741  18.620  0.00  0.00    +0.000 A 
ATOM      8  N   UNL     1      47.014   5.636  18.886  0.00  0.00    +0.000 NA
ATOM      9  C   UNL     1      47.283   4.632  18.122  0.00  0.00    +0.000 A 
ATOM     10  N   UNL     1      48.263   4.611  17.160  0.00  0.00    +0.000 N 
ATOM     11  C   UNL     1      49.133   5.669  16.949  0.00  0.00    +0.000 A 
ATOM     12  O   UNL     1      50.135   5.526  16.271  0.00  0.00    +0.000 OA
ATOM     13  C   UNL     1      48.756   6.866  17.674  0.00  0.00    +0.000 A 
ATOM     14  H   UNL     1      48.466   3.773  16.645  0.00  0.00    +0.000 HD
ENDBRANCH   2   4
BRANCH   1  15
ATOM     15  C   UNL     1      50.627   9.524  14.258  0.00  0.00    +0.000 C 
BRANCH  15  16
ATOM     16  C   UNL     1      51.107   8.573  13.148  0.00  0.00    +0.000 C 
BRANCH  16  17
ATOM     17  O   UNL     1      51.057   9.107  11.805  0.00  0.00    +0.000 OA
BRANCH  17  19
ATOM     18  C   UNL     1      49.011  10.353  11.180  0.00  0.00    +0.000 C 
ATOM     19  C   UNL     1      49.695   9.011  11.354  0.00  0.00    +0.000 C 
ENDBRANCH  17  19
ENDBRANCH  16  17
ENDBRANCH  15  16
ENDBRANCH   1  15
BRANCH   1  20
ATOM     20  C   UNL     1      48.194   9.014  14.974  0.00  0.00    +0.000 C 
BRANCH  20  21
ATOM     21  C   UNL     1      47.472   8.104  14.026  0.00  0.00    +0.000 A 
ATOM     22  C   UNL     1      46.465   8.661  13.232  0.00  0.00    +0.000 A 
ATOM     23  C   UNL     1      45.986   7.981  12.114  0.00  0.00    +0.000 A 
ATOM     24  C   UNL     1      46.413   6.674  11.826  0.00  0.00    +0.000 A 
ATOM     25  C   UNL     1      47.355   6.083  12.689  0.00  0.00    +0.000 A 
ATOM     26  C   UNL     1      47.911   6.806  13.756  0.00  0.00    +0.000 A 
BRANCH  24  27
ATOM     27  C   UNL     1      45.828   5.912  10.644  0.00  0.00    +0.000 C 
BRANCH  27  28
ATOM     28  N   UNL     1      44.679   5.034  10.878  0.00  0.00    +0.000 NA
ATOM     29  C   UNL     1      43.605   5.578  11.697  0.00  0.00    +0.000 C 
ATOM     30  C   UNL     1      43.359   4.582  12.817  0.00  0.00    +0.000 C 
ATOM     31  C   UNL     1      43.868   3.262  12.265  0.00  0.00    +0.000 C 
ATOM     32  C   UNL     1      44.941   3.641  11.237  0.00  0.00    +0.000 C 
BRANCH  31  33
ATOM     33  O   UNL     1      42.787   2.562  11.649  0.00  0.00    +0.000 OA
ATOM     34  H   UNL     1      42.556   3.052  10.840  0.00  0.00    +0.000 HD
ENDBRANCH  31  33
ENDBRANCH  27  28
ENDBRANCH  24  27
ENDBRANCH  20  21
ENDBRANCH   1  20
TORSDOF 10
ENDMDL
MODEL 4
REMARK VINA RESULT:    -5.714      2.483      7.526
REMARK INTER + INTRA:         -10.729
REMARK INTER:                  -9.127
REMARK INTRA:                  -1.602
REMARK UNBOUND:                -1.842
REMARK  Name = 
REMARK  11 active torsions:
REMARK  status: ('A' for Active; 'I' for Inactive)
REMARK    1  A    between atoms: C_1  and  C_2
REMARK    2  A    between atoms: C_2  and  O_3
REMARK    3  A    between atoms: O_3  and  C_4
REMARK    4  A    between atoms: C_4  and  C_5
REMARK    5  A    between atoms: C_5  and  N_6
REMARK    6  A    between atoms: N_6  and  C_7
REMARK    7  A    between atoms: C_7  and  C_8
REMARK    8  A    between atoms: C_11  and  C_12
REMARK    9  A    between atoms: C_12  and  N_13
REMARK   10  A    between atoms: C_16  and  O_17
REMARK   11  A    between atoms: C_21  and  C_23
REMARK                            x       y       z     vdW  Elec       q    Type
REMARK                         _______ _______ _______ _____ _____    ______ ____
ROOT
ATOM      1  N   UNL     1      48.997   7.322  15.973  0.00  0.00    +0.000 N 
ATOM      2  C   UNL     1      48.570   6.796  17.218  0.00  0.00    +0.000 C 
ATOM      3  O   UNL     1      48.287   7.514  18.151  0.00  0.00    +0.000 OA
ENDROOT
BRANCH   2   4
ATOM      4  C   UNL     1      48.494   5.327  17.375  0.00  0.00    +0.000 A 
ATOM      5  C   UNL     1      47.323   4.578  17.279  0.00  0.00    +0.000 A 
ATOM      6  S   UNL     1      47.562   2.904  17.386  0.00  0.00    +0.000 S 
ATOM      7  C   UNL     1      49.245   3.114  17.459  0.00  0.00    +0.000 A 
ATOM      8  N   UNL     1      50.071   2.037  17.428  0.00  0.00    +0.000 NA
ATOM      9  C   UNL     1      51.325   2.342  17.427  0.00  0.00    +0.000 A 
ATOM     10  N   UNL     1      51.827   3.617  17.513  0.00  0.00    +0.000 N 
ATOM     11  C   UNL     1      51.023   4.733  17.682  0.00  0.00    +0.000 A 
ATOM     12  O   UNL     1      51.505   5.806  18.001  0.00  0.00    +0.000 OA
ATOM     13  C   UNL     1      49.612   4.444  17.524  0.00  0.00    +0.000 A 
ATOM     14  H   UNL     1      52.816   3.782  17.576  0.00  0.00    +0.000 HD
ENDBRANCH   2   4
BRANCH   1  15
ATOM     15  C   UNL     1      48.952   8.804  15.892  0.00  0.00    +0.000 C 
BRANCH  15  16
ATOM     16  C   UNL     1      50.323   9.493  15.797  0.00  0.00    +0.000 C 
BRANCH  16  17
ATOM     17  O   UNL     1      50.659  10.039  14.500  0.00  0.00    +0.000 OA
BRANCH  17  19
ATOM     18  C   UNL     1      50.996   8.627  12.494  0.00  0.00    +0.000 C 
ATOM     19  C   UNL     1      51.514   9.089  13.842  0.00  0.00    +0.000 C 
ENDBRANCH  17  19
ENDBRANCH  16  17
ENDBRANCH  15  16
ENDBRANCH   1  15
BRANCH   1  20
ATOM     20  C   UNL     1      49.031   6.469  14.783  0.00  0.00    +0.000 C 
BRANCH  20  21
ATOM     21  C   UNL     1      47.894   6.383  13.809  0.00  0.00    +0.000 A 
ATOM     22  C   UNL     1      47.076   5.251  13.865  0.00  0.00    +0.000 A 
ATOM     23  C   UNL     1      45.830   5.246  13.241  0.00  0.00    +0.000 A 
ATOM     24  C   UNL     1      45.418   6.326  12.443  0.00  0.00    +0.000 A 
ATOM     25  C   UNL     1      46.292   7.420  12.312  0.00  0.00    +0.000 A 
ATOM     26  C   UNL     1      47.502   7.468  13.022  0.00  0.00    +0.000 A 
BRANCH  24  27
ATOM     27  C   UNL     1      44.085   6.278  11.706  0.00  0.00    +0.000 C 
BRANCH  27  28
ATOM     28  N   UNL     1      43.840   5.171  10.778  0.00  0.00    +0.000 NA
ATOM     29  C   UNL     1      43.084   4.043  11.302  0.00  0.00    +0.000 C 
ATOM     30  C   UNL     1      43.913   2.798  11.037  0.00  0.00    +0.000 C 
ATOM     31  C   UNL     1      44.802   3.180   9.866  0.00  0.00    +0.000 C 
ATOM     32  C   UNL     1      44.956   4.703   9.957  0.00  0.00    +0.000 C 
BRANCH  31  33
ATOM     33  O   UNL     1      44.166   2.796   8.648  0.00  0.00    +0.000 OA
ATOM     34  H   UNL     1      44.724   3.125   7.921  0.00  0.00    +0.000 HD
ENDBRANCH  31  33
ENDBRANCH  27  28
ENDBRANCH  24  27
ENDBRANCH  20  21
ENDBRANCH   1  20
TORSDOF 10
ENDMDL
MODEL 5
REMARK VINA RESULT:    -5.648      2.812      7.945
REMARK INTER + INTRA:         -10.627
REMARK INTER:                  -9.085
REMARK INTRA:                  -1.541
REMARK UNBOUND:                -1.842
REMARK  Name = 
REMARK  11 active torsions:
REMARK  status: ('A' for Active; 'I' for Inactive)
REMARK    1  A    between atoms: C_1  and  C_2
REMARK    2  A    between atoms: C_2  and  O_3
REMARK    3  A    between atoms: O_3  and  C_4
REMARK    4  A    between atoms: C_4  and  C_5
REMARK    5  A    between atoms: C_5  and  N_6
REMARK    6  A    between atoms: N_6  and  C_7
REMARK    7  A    between atoms: C_7  and  C_8
REMARK    8  A    between atoms: C_11  and  C_12
REMARK    9  A    between atoms: C_12  and  N_13
REMARK   10  A    between atoms: C_16  and  O_17
REMARK   11  A    between atoms: C_21  and  C_23
REMARK                            x       y       z     vdW  Elec       q    Type
REMARK                         _______ _______ _______ _____ _____    ______ ____
ROOT
ATOM      1  N   UNL     1      48.674   7.058  13.738  0.00  0.00    +0.000 N 
ATOM      2  C   UNL     1      49.497   6.969  14.888  0.00  0.00    +0.000 C 
ATOM      3  O   UNL     1      50.700   7.086  14.823  0.00  0.00    +0.000 OA
ENDROOT
BRANCH   2   4
ATOM      4  C   UNL     1      48.857   6.700  16.195  0.00  0.00    +0.000 A 
ATOM      5  C   UNL     1      48.641   5.431  16.726  0.00  0.00    +0.000 A 
ATOM      6  S   UNL     1      47.994   5.438  18.292  0.00  0.00    +0.000 S 
ATOM      7  C   UNL     1      48.078   7.132  18.358  0.00  0.00    +0.000 A 
ATOM      8  N   UNL     1      47.790   7.788  19.511  0.00  0.00    +0.000 NA
ATOM      9  C   UNL     1      47.953   9.066  19.438  0.00  0.00    +0.000 A 
ATOM     10  N   UNL     1      48.322   9.751  18.306  0.00  0.00    +0.000 N 
ATOM     11  C   UNL     1      48.494   9.136  17.076  0.00  0.00    +0.000 A 
ATOM     12  O   UNL     1      48.574   9.796  16.054  0.00  0.00    +0.000 OA
ATOM     13  C   UNL     1      48.477   7.689  17.159  0.00  0.00    +0.000 A 
ATOM     14  H   UNL     1      48.366  10.755  18.299  0.00  0.00    +0.000 HD
ENDBRANCH   2   4
BRANCH   1  15
ATOM     15  C   UNL     1      49.403   7.418  12.496  0.00  0.00    +0.000 C 
BRANCH  15  16
ATOM     16  C   UNL     1      49.601   8.926  12.270  0.00  0.00    +0.000 C 
BRANCH  16  17
ATOM     17  O   UNL     1      48.605   9.569  11.441  0.00  0.00    +0.000 OA
BRANCH  17  19
ATOM     18  C   UNL     1      46.409  10.682  11.698  0.00  0.00    +0.000 C 
ATOM     19  C   UNL     1      47.753  10.337  12.307  0.00  0.00    +0.000 C 
ENDBRANCH  17  19
ENDBRANCH  16  17
ENDBRANCH  15  16
ENDBRANCH   1  15
BRANCH   1  20
ATOM     20  C   UNL     1      47.225   7.224  13.877  0.00  0.00    +0.000 C 
BRANCH  20  21
ATOM     21  C   UNL     1      46.233   6.324  13.200  0.00  0.00    +0.000 A 
ATOM     22  C   UNL     1      45.270   6.920  12.381  0.00  0.00    +0.000 A 
ATOM     23  C   UNL     1      44.542   6.157  11.471  0.00  0.00    +0.000 A 
ATOM     24  C   UNL     1      44.668   4.758  11.439  0.00  0.00    +0.000 A 
ATOM     25  C   UNL     1      45.570   4.157  12.337  0.00  0.00    +0.000 A 
ATOM     26  C   UNL     1      46.377   4.936  13.182  0.00  0.00    +0.000 A 
BRANCH  24  27
ATOM     27  C   UNL     1      43.813   3.926  10.492  0.00  0.00    +0.000 C 
BRANCH  27  28
ATOM     28  N   UNL     1      44.340   3.622   9.160  0.00  0.00    +0.000 NA
ATOM     29  C   UNL     1      44.608   2.220   8.874  0.00  0.00    +0.000 C 
ATOM     30  C   UNL     1      46.048   2.137   8.397  0.00  0.00    +0.000 C 
ATOM     31  C   UNL     1      46.349   3.527   7.865  0.00  0.00    +0.000 C 
ATOM     32  C   UNL     1      45.414   4.466   8.637  0.00  0.00    +0.000 C 
BRANCH  31  33
ATOM     33  O   UNL     1      46.077   3.563   6.465  0.00  0.00    +0.000 OA
ATOM     34  H   UNL     1      45.541   4.359   6.301  0.00  0.00    +0.000 HD
ENDBRANCH  31  33
ENDBRANCH  27  28
ENDBRANCH  24  27
ENDBRANCH  20  21
ENDBRANCH   1  20
TORSDOF 10
ENDMDL
MODEL 6
REMARK VINA RESULT:    -5.609      3.018      7.825
REMARK INTER + INTRA:         -10.566
REMARK INTER:                  -9.354
REMARK INTRA:                  -1.212
REMARK UNBOUND:                -1.842
REMARK  Name = 
REMARK  11 active torsions:
REMARK  status: ('A' for Active; 'I' for Inactive)
REMARK    1  A    between atoms: C_1  and  C_2
REMARK    2  A    between atoms: C_2  and  O_3
REMARK    3  A    between atoms: O_3  and  C_4
REMARK    4  A    between atoms: C_4  and  C_5
REMARK    5  A    between atoms: C_5  and  N_6
REMARK    6  A    between atoms: N_6  and  C_7
REMARK    7  A    between atoms: C_7  and  C_8
REMARK    8  A    between atoms: C_11  and  C_12
REMARK    9  A    between atoms: C_12  and  N_13
REMARK   10  A    between atoms: C_16  and  O_17
REMARK   11  A    between atoms: C_21  and  C_23
REMARK                            x       y       z     vdW  Elec       q    Type
REMARK                         _______ _______ _______ _____ _____    ______ ____
ROOT
ATOM      1  N   UNL     1      48.466   7.388  14.812  0.00  0.00    +0.000 N 
ATOM      2  C   UNL     1      48.726   8.778  14.724  0.00  0.00    +0.000 C 
ATOM      3  O   UNL     1      48.990   9.442  15.701  0.00  0.00    +0.000 OA
ENDROOT
BRANCH   2   4
ATOM      4  C   UNL     1      48.646   9.427  13.396  0.00  0.00    +0.000 A 
ATOM      5  C   UNL     1      47.506  10.040  12.880  0.00  0.00    +0.000 A 
ATOM      6  S   UNL     1      47.747  10.801  11.386  0.00  0.00    +0.000 S 
ATOM      7  C   UNL     1      49.403  10.432  11.425  0.00  0.00    +0.000 A 
ATOM      8  N   UNL     1      50.237  10.928  10.475  0.00  0.00    +0.000 NA
ATOM      9  C   UNL     1      51.477  10.621  10.659  0.00  0.00    +0.000 A 
ATOM     10  N   UNL     1      51.950   9.819  11.669  0.00  0.00    +0.000 N 
ATOM     11  C   UNL     1      51.119   9.184  12.578  0.00  0.00    +0.000 A 
ATOM     12  O   UNL     1      51.543   8.294  13.296  0.00  0.00    +0.000 OA
ATOM     13  C   UNL     1      49.743   9.635  12.500  0.00  0.00    +0.000 A 
ATOM     14  H   UNL     1      52.920   9.564  11.717  0.00  0.00    +0.000 HD
ENDBRANCH   2   4
BRANCH   1  15
ATOM     15  C   UNL     1      48.660   6.819  16.170  0.00  0.00    +0.000 C 
BRANCH  15  16
ATOM     16  C   UNL     1      48.342   5.320  16.299  0.00  0.00    +0.000 C 
BRANCH  16  17
ATOM     17  O   UNL     1      47.509   4.953  17.424  0.00  0.00    +0.000 OA
BRANCH  17  19
ATOM     18  C   UNL     1      48.044   2.854  16.226  0.00  0.00    +0.000 C 
ATOM     19  C   UNL     1      47.304   3.532  17.362  0.00  0.00    +0.000 C 
ENDBRANCH  17  19
ENDBRANCH  16  17
ENDBRANCH  15  16
ENDBRANCH   1  15
BRANCH   1  20
ATOM     20  C   UNL     1      48.459   6.558  13.605  0.00  0.00    +0.000 C 
BRANCH  20  21
ATOM     21  C   UNL     1      47.195   6.080  12.953  0.00  0.00    +0.000 A 
ATOM     22  C   UNL     1      46.754   6.762  11.815  0.00  0.00    +0.000 A 
ATOM     23  C   UNL     1      45.802   6.192  10.972  0.00  0.00    +0.000 A 
ATOM     24  C   UNL     1      45.175   4.980  11.306  0.00  0.00    +0.000 A 
ATOM     25  C   UNL     1      45.556   4.350  12.505  0.00  0.00    +0.000 A 
ATOM     26  C   UNL     1      46.587   4.873  13.302  0.00  0.00    +0.000 A 
BRANCH  24  27
ATOM     27  C   UNL     1      44.083   4.404  10.415  0.00  0.00    +0.000 C 
BRANCH  27  28
ATOM     28  N   UNL     1      44.469   3.802   9.137  0.00  0.00    +0.000 NA
ATOM     29  C   UNL     1      44.517   2.348   9.095  0.00  0.00    +0.000 C 
ATOM     30  C   UNL     1      45.895   1.968   8.580  0.00  0.00    +0.000 C 
ATOM     31  C   UNL     1      46.352   3.185   7.796  0.00  0.00    +0.000 C 
ATOM     32  C   UNL     1      45.614   4.372   8.427  0.00  0.00    +0.000 C 
BRANCH  31  33
ATOM     33  O   UNL     1      45.993   3.023   6.424  0.00  0.00    +0.000 OA
ATOM     34  H   UNL     1      46.305   2.142   6.152  0.00  0.00    +0.000 HD
ENDBRANCH  31  33
ENDBRANCH  27  28
ENDBRANCH  24  27
ENDBRANCH  20  21
ENDBRANCH   1  20
TORSDOF 10
ENDMDL
MODEL 7
REMARK VINA RESULT:    -5.543      3.057      7.673
REMARK INTER + INTRA:         -10.464
REMARK INTER:                  -9.080
REMARK INTRA:                  -1.383
REMARK UNBOUND:                -1.842
REMARK  Name = 
REMARK  11 active torsions:
REMARK  status: ('A' for Active; 'I' for Inactive)
REMARK    1  A    between atoms: C_1  and  C_2
REMARK    2  A    between atoms: C_2  and  O_3
REMARK    3  A    between atoms: O_3  and  C_4
REMARK    4  A    between atoms: C_4  and  C_5
REMARK    5  A    between atoms: C_5  and  N_6
REMARK    6  A    between atoms: N_6  and  C_7
REMARK    7  A    between atoms: C_7  and  C_8
REMARK    8  A    between atoms: C_11  and  C_12
REMARK    9  A    between atoms: C_12  and  N_13
REMARK   10  A    between atoms: C_16  and  O_17
REMARK   11  A    between atoms: C_21  and  C_23
REMARK                            x       y       z     vdW  Elec       q    Type
REMARK                         _______ _______ _______ _____ _____    ______ ____
ROOT
ATOM      1  N   UNL     1      49.370   8.747  14.607  0.00  0.00    +0.000 N 
ATOM      2  C   UNL     1      49.975   8.767  15.888  0.00  0.00    +0.000 C 
ATOM      3  O   UNL     1      51.144   9.042  16.037  0.00  0.00    +0.000 OA
ENDROOT
BRANCH   2   4
ATOM      4  C   UNL     1      49.148   8.418  17.064  0.00  0.00    +0.000 A 
ATOM      5  C   UNL     1      48.541   9.344  17.910  0.00  0.00    +0.000 A 
ATOM      6  S   UNL     1      47.559   8.650  19.104  0.00  0.00    +0.000 S 
ATOM      7  C   UNL     1      47.824   7.098  18.470  0.00  0.00    +0.000 A 
ATOM      8  N   UNL     1      47.146   6.031  18.964  0.00  0.00    +0.000 NA
ATOM      9  C   UNL     1      47.397   4.924  18.351  0.00  0.00    +0.000 A 
ATOM     10  N   UNL     1      48.305   4.776  17.331  0.00  0.00    +0.000 N 
ATOM     11  C   UNL     1      49.115   5.809  16.887  0.00  0.00    +0.000 A 
ATOM     12  O   UNL     1      50.070   5.586  16.164  0.00  0.00    +0.000 OA
ATOM     13  C   UNL     1      48.745   7.096  17.440  0.00  0.00    +0.000 A 
ATOM     14  H   UNL     1      48.503   3.871  16.941  0.00  0.00    +0.000 HD
ENDBRANCH   2   4
BRANCH   1  15
ATOM     15  C   UNL     1      50.260   9.199  13.507  0.00  0.00    +0.000 C 
BRANCH  15  16
ATOM     16  C   UNL     1      50.477   8.173  12.382  0.00  0.00    +0.000 C 
BRANCH  16  17
ATOM     17  O   UNL     1      51.780   8.201  11.756  0.00  0.00    +0.000 OA
BRANCH  17  19
ATOM     18  C   UNL     1      52.940   6.852  10.034  0.00  0.00    +0.000 C 
ATOM     19  C   UNL     1      51.664   7.532  10.489  0.00  0.00    +0.000 C 
ENDBRANCH  17  19
ENDBRANCH  16  17
ENDBRANCH  15  16
ENDBRANCH   1  15
BRANCH   1  20
ATOM     20  C   UNL     1      47.911   8.721  14.478  0.00  0.00    +0.000 C 
BRANCH  20  21
ATOM     21  C   UNL     1      47.197   7.868  13.471  0.00  0.00    +0.000 A 
ATOM     22  C   UNL     1      47.258   6.482  13.636  0.00  0.00    +0.000 A 
ATOM     23  C   UNL     1      46.368   5.648  12.961  0.00  0.00    +0.000 A 
ATOM     24  C   UNL     1      45.473   6.166  12.011  0.00  0.00    +0.000 A 
ATOM     25  C   UNL     1      45.487   7.555  11.780  0.00  0.00    +0.000 A 
ATOM     26  C   UNL     1      46.312   8.404  12.533  0.00  0.00    +0.000 A 
BRANCH  24  27
ATOM     27  C   UNL     1      44.556   5.237  11.226  0.00  0.00    +0.000 C 
BRANCH  27  28
ATOM     28  N   UNL     1      45.164   4.217  10.368  0.00  0.00    +0.000 NA
ATOM     29  C   UNL     1      45.453   4.612   8.998  0.00  0.00    +0.000 C 
ATOM     30  C   UNL     1      44.790   3.585   8.095  0.00  0.00    +0.000 C 
ATOM     31  C   UNL     1      44.668   2.345   8.964  0.00  0.00    +0.000 C 
ATOM     32  C   UNL     1      44.603   2.867  10.405  0.00  0.00    +0.000 C 
BRANCH  31  33
ATOM     33  O   UNL     1      45.812   1.516   8.765  0.00  0.00    +0.000 OA
ATOM     34  H   UNL     1      46.408   1.995   8.162  0.00  0.00    +0.000 HD
ENDBRANCH  31  33
ENDBRANCH  27  28
ENDBRANCH  24  27
ENDBRANCH  20  21
ENDBRANCH   1  20
TORSDOF 10
ENDMDL
MODEL 8
REMARK VINA RESULT:    -5.439      3.170      7.725
REMARK INTER + INTRA:         -10.301
REMARK INTER:                  -8.311
REMARK INTRA:                  -1.990
REMARK UNBOUND:                -1.842
REMARK  Name = 
REMARK  11 active torsions:
REMARK  status: ('A' for Active; 'I' for Inactive)
REMARK    1  A    between atoms: C_1  and  C_2
REMARK    2  A    between atoms: C_2  and  O_3
REMARK    3  A    between atoms: O_3  and  C_4
REMARK    4  A    between atoms: C_4  and  C_5
REMARK    5  A    between atoms: C_5  and  N_6
REMARK    6  A    between atoms: N_6  and  C_7
REMARK    7  A    between atoms: C_7  and  C_8
REMARK    8  A    between atoms: C_11  and  C_12
REMARK    9  A    between atoms: C_12  and  N_13
REMARK   10  A    between atoms: C_16  and  O_17
REMARK   11  A    between atoms: C_21  and  C_23
REMARK                            x       y       z     vdW  Elec       q    Type
REMARK                         _______ _______ _______ _____ _____    ______ ____
ROOT
ATOM      1  N   UNL     1      48.904   9.356  15.140  0.00  0.00    +0.000 N 
ATOM      2  C   UNL     1      49.688   8.799  16.181  0.00  0.00    +0.000 C 
ATOM      3  O   UNL     1      50.699   9.336  16.576  0.00  0.00    +0.000 OA
ENDROOT
BRANCH   2   4
ATOM      4  C   UNL     1      49.260   7.515  16.777  0.00  0.00    +0.000 A 
ATOM      5  C   UNL     1      49.653   6.258  16.320  0.00  0.00    +0.000 A 
ATOM      6  S   UNL     1      49.098   4.972  17.272  0.00  0.00    +0.000 S 
ATOM      7  C   UNL     1      48.404   6.048  18.385  0.00  0.00    +0.000 A 
ATOM      8  N   UNL     1      47.866   5.585  19.543  0.00  0.00    +0.000 NA
ATOM      9  C   UNL     1      47.430   6.515  20.324  0.00  0.00    +0.000 A 
ATOM     10  N   UNL     1      47.429   7.856  20.030  0.00  0.00    +0.000 N 
ATOM     11  C   UNL     1      47.843   8.359  18.807  0.00  0.00    +0.000 A 
ATOM     12  O   UNL     1      47.599   9.511  18.491  0.00  0.00    +0.000 OA
ATOM     13  C   UNL     1      48.487   7.364  17.973  0.00  0.00    +0.000 A 
ATOM     14  H   UNL     1      47.012   8.523  20.655  0.00  0.00    +0.000 HD
ENDBRANCH   2   4
BRANCH   1  15
ATOM     15  C   UNL     1      49.370  10.687  14.674  0.00  0.00    +0.000 C 
BRANCH  15  16
ATOM     16  C   UNL     1      50.196  10.670  13.377  0.00  0.00    +0.000 C 
BRANCH  16  17
ATOM     17  O   UNL     1      49.508  10.175  12.205  0.00  0.00    +0.000 OA
BRANCH  17  19
ATOM     18  C   UNL     1      50.353   7.970  11.461  0.00  0.00    +0.000 C 
ATOM     19  C   UNL     1      50.475   9.480  11.401  0.00  0.00    +0.000 C 
ENDBRANCH  17  19
ENDBRANCH  16  17
ENDBRANCH  15  16
ENDBRANCH   1  15
BRANCH   1  20
ATOM     20  C   UNL     1      47.545   8.867  14.895  0.00  0.00    +0.000 C 
BRANCH  20  21
ATOM     21  C   UNL     1      47.135   8.206  13.613  0.00  0.00    +0.000 A 
ATOM     22  C   UNL     1      47.554   6.890  13.398  0.00  0.00    +0.000 A 
ATOM     23  C   UNL     1      46.953   6.106  12.416  0.00  0.00    +0.000 A 
ATOM     24  C   UNL     1      46.002   6.653  11.538  0.00  0.00    +0.000 A 
ATOM     25  C   UNL     1      45.659   8.008  11.699  0.00  0.00    +0.000 A 
ATOM     26  C   UNL     1      46.189   8.768  12.753  0.00  0.00    +0.000 A 
BRANCH  24  27
ATOM     27  C   UNL     1      45.406   5.807  10.420  0.00  0.00    +0.000 C 
BRANCH  27  28
ATOM     28  N   UNL     1      44.404   4.796  10.767  0.00  0.00    +0.000 NA
ATOM     29  C   UNL     1      43.354   5.214  11.683  0.00  0.00    +0.000 C 
ATOM     30  C   UNL     1      43.343   4.212  12.826  0.00  0.00    +0.000 C 
ATOM     31  C   UNL     1      43.959   2.958  12.232  0.00  0.00    +0.000 C 
ATOM     32  C   UNL     1      44.873   3.453  11.104  0.00  0.00    +0.000 C 
BRANCH  31  33
ATOM     33  O   UNL     1      42.922   2.119  11.726  0.00  0.00    +0.000 OA
ATOM     34  H   UNL     1      43.257   1.717  10.904  0.00  0.00    +0.000 HD
ENDBRANCH  31  33
ENDBRANCH  27  28
ENDBRANCH  24  27
ENDBRANCH  20  21
ENDBRANCH   1  20
TORSDOF 10
ENDMDL
MODEL 9
REMARK VINA RESULT:    -5.316      3.051      8.013
REMARK INTER + INTRA:         -10.111
REMARK INTER:                  -8.699
REMARK INTRA:                  -1.412
REMARK UNBOUND:                -1.842
REMARK  Name = 
REMARK  11 active torsions:
REMARK  status: ('A' for Active; 'I' for Inactive)
REMARK    1  A    between atoms: C_1  and  C_2
REMARK    2  A    between atoms: C_2  and  O_3
REMARK    3  A    between atoms: O_3  and  C_4
REMARK    4  A    between atoms: C_4  and  C_5
REMARK    5  A    between atoms: C_5  and  N_6
REMARK    6  A    between atoms: N_6  and  C_7
REMARK    7  A    between atoms: C_7  and  C_8
REMARK    8  A    between atoms: C_11  and  C_12
REMARK    9  A    between atoms: C_12  and  N_13
REMARK   10  A    between atoms: C_16  and  O_17
REMARK   11  A    between atoms: C_21  and  C_23
REMARK                            x       y       z     vdW  Elec       q    Type
REMARK                         _______ _______ _______ _____ _____    ______ ____
ROOT
ATOM      1  N   UNL     1      49.597   7.863  14.317  0.00  0.00    +0.000 N 
ATOM      2  C   UNL     1      50.168   7.310  15.491  0.00  0.00    +0.000 C 
ATOM      3  O   UNL     1      51.366   7.212  15.632  0.00  0.00    +0.000 OA
ENDROOT
BRANCH   2   4
ATOM      4  C   UNL     1      49.262   6.822  16.553  0.00  0.00    +0.000 A 
ATOM      5  C   UNL     1      48.816   5.508  16.674  0.00  0.00    +0.000 A 
ATOM      6  S   UNL     1      47.882   5.219  18.058  0.00  0.00    +0.000 S 
ATOM      7  C   UNL     1      48.126   6.809  18.598  0.00  0.00    +0.000 A 
ATOM      8  N   UNL     1      47.688   7.190  19.825  0.00  0.00    +0.000 NA
ATOM      9  C   UNL     1      47.995   8.405  20.133  0.00  0.00    +0.000 A 
ATOM     10  N   UNL     1      48.645   9.289  19.307  0.00  0.00    +0.000 N 
ATOM     11  C   UNL     1      48.988   8.984  18.000  0.00  0.00    +0.000 A 
ATOM     12  O   UNL     1      49.334   9.860  17.225  0.00  0.00    +0.000 OA
ATOM     13  C   UNL     1      48.806   7.583  17.678  0.00  0.00    +0.000 A 
ATOM     14  H   UNL     1      48.793  10.244  19.583  0.00  0.00    +0.000 HD
ENDBRANCH   2   4
BRANCH   1  15
ATOM     15  C   UNL     1      50.591   8.403  13.355  0.00  0.00    +0.000 C 
BRANCH  15  16
ATOM     16  C   UNL     1      50.251   8.177  11.872  0.00  0.00    +0.000 C 
BRANCH  16  17
ATOM     17  O   UNL     1      51.332   7.671  11.054  0.00  0.00    +0.000 OA
BRANCH  17  19
ATOM     18  C   UNL     1      53.686   8.437  11.071  0.00  0.00    +0.000 C 
ATOM     19  C   UNL     1      52.230   8.765  10.804  0.00  0.00    +0.000 C 
ENDBRANCH  17  19
ENDBRANCH  16  17
ENDBRANCH  15  16
ENDBRANCH   1  15
BRANCH   1  20
ATOM     20  C   UNL     1      48.186   8.256  14.295  0.00  0.00    +0.000 C 
BRANCH  20  21
ATOM     21  C   UNL     1      47.131   7.464  13.581  0.00  0.00    +0.000 A 
ATOM     22  C   UNL     1      46.262   8.158  12.734  0.00  0.00    +0.000 A 
ATOM     23  C   UNL     1      45.490   7.475  11.797  0.00  0.00    +0.000 A 
ATOM     24  C   UNL     1      45.474   6.070  11.761  0.00  0.00    +0.000 A 
ATOM     25  C   UNL     1      46.279   5.378  12.684  0.00  0.00    +0.000 A 
ATOM     26  C   UNL     1      47.133   6.068  13.560  0.00  0.00    +0.000 A 
BRANCH  24  27
ATOM     27  C   UNL     1      44.570   5.333  10.781  0.00  0.00    +0.000 C 
BRANCH  27  28
ATOM     28  N   UNL     1      45.103   4.156  10.090  0.00  0.00    +0.000 NA
ATOM     29  C   UNL     1      45.528   4.353   8.712  0.00  0.00    +0.000 C 
ATOM     30  C   UNL     1      44.805   3.310   7.876  0.00  0.00    +0.000 C 
ATOM     31  C   UNL     1      44.473   2.203   8.861  0.00  0.00    +0.000 C 
ATOM     32  C   UNL     1      44.378   2.893  10.227  0.00  0.00    +0.000 C 
BRANCH  31  33
ATOM     33  O   UNL     1      45.517   1.230   8.844  0.00  0.00    +0.000 OA
ATOM     34  H   UNL     1      45.637   0.928   9.762  0.00  0.00    +0.000 HD
ENDBRANCH  31  33
ENDBRANCH  27  28
ENDBRANCH  24  27
ENDBRANCH  20  21
ENDBRANCH   1  20
TORSDOF 10
ENDMDL
