MODEL 1
REMARK VINA RESULT:    -7.284      0.000      0.000
REMARK INTER + INTRA:         -12.664
REMARK INTER:                 -11.543
REMARK INTRA:                  -1.121
REMARK UNBOUND:                -1.121
REMARK  Name = 
REMARK  10 active torsions:
REMARK  status: ('A' for Active; 'I' for Inactive)
REMARK    1  A    between atoms: C_2  and  C_3
REMARK    2  A    between atoms: C_3  and  C_4
REMARK    3  A    between atoms: C_4  and  N_5
REMARK    4  A    between atoms: C_4  and  C_21
REMARK    5  A    between atoms: N_5  and  C_6
REMARK    6  A    between atoms: C_6  and  C_7
REMARK    7  A    between atoms: C_10  and  C_11
REMARK    8  A    between atoms: C_11  and  N_12
REMARK    9  A    between atoms: N_12  and  C_13
REMARK   10  A    between atoms: C_13  and  C_14
REMARK                            x       y       z     vdW  Elec       q    Type
REMARK                         _______ _______ _______ _____ _____    ______ ____
ROOT
ATOM      1  N   UNL     1      47.093   5.105  15.523  0.00  0.00    +0.000 NA
ATOM      2  H   UNL     1      46.623   5.809  16.091  0.00  0.00    +0.000 HD
ENDROOT
BRANCH   1   3
ATOM      3  C   UNL     1      48.158   4.469  16.312  0.00  0.00    +0.000 C 
BRANCH   3   4
ATOM      4  C   UNL     1      48.289   5.251  17.613  0.00  0.00    +0.000 A 
ATOM      5  C   UNL     1      47.454   5.122  18.715  0.00  0.00    +0.000 A 
ATOM      6  S   UNL     1      47.775   6.259  19.948  0.00  0.00    +0.000 S 
ATOM      7  C   UNL     1      49.057   6.938  19.064  0.00  0.00    +0.000 A 
ATOM      8  N   UNL     1      49.759   7.998  19.552  0.00  0.00    +0.000 NA
ATOM      9  C   UNL     1      50.687   8.428  18.761  0.00  0.00    +0.000 A 
ATOM     10  N   UNL     1      50.984   7.887  17.534  0.00  0.00    +0.000 N 
ATOM     11  C   UNL     1      50.336   6.789  17.019  0.00  0.00    +0.000 A 
ATOM     12  O   UNL     1      50.702   6.267  15.970  0.00  0.00    +0.000 OA
ATOM     13  C   UNL     1      49.250   6.300  17.854  0.00  0.00    +0.000 A 
ATOM     14  H   UNL     1      51.748   8.248  16.983  0.00  0.00    +0.000 HD
ENDBRANCH   3   4
BRANCH   3  15
ATOM     15  C   UNL     1      47.982   2.960  16.524  0.00  0.00    +0.000 C 
BRANCH  15  17
ATOM     16  N   UNL     1      50.413   1.620  16.701  0.00  0.00    +0.000 NA
ATOM     17  C   UNL     1      49.310   2.228  16.621  0.00  0.00    +0.000 C 
ENDBRANCH  15  17
ENDBRANCH   3  15
ENDBRANCH   1   3
BRANCH   1  18
ATOM     18  C   UNL     1      47.547   5.709  14.274  0.00  0.00    +0.000 C 
BRANCH  18  19
ATOM     19  C   UNL     1      46.688   5.299  13.114  0.00  0.00    +0.000 A 
ATOM     20  C   UNL     1      46.008   4.072  13.126  0.00  0.00    +0.000 A 
ATOM     21  C   UNL     1      45.159   3.742  12.078  0.00  0.00    +0.000 A 
ATOM     22  C   UNL     1      44.954   4.638  11.018  0.00  0.00    +0.000 A 
ATOM     23  C   UNL     1      45.646   5.851  10.997  0.00  0.00    +0.000 A 
ATOM     24  C   UNL     1      46.512   6.178  12.037  0.00  0.00    +0.000 A 
BRANCH  22  25
ATOM     25  C   UNL     1      43.950   4.310   9.947  0.00  0.00    +0.000 C 
BRANCH  25  26
ATOM     26  N   UNL     1      44.551   4.550   8.637  0.00  0.00    +0.000 NA
ATOM     27  H   UNL     1      45.402   5.099   8.764  0.00  0.00    +0.000 HD
BRANCH  26  28
ATOM     28  C   UNL     1      44.846   3.298   7.946  0.00  0.00    +0.000 C 
BRANCH  28  29
ATOM     29  C   UNL     1      46.323   2.907   8.081  0.00  0.00    +0.000 C 
ATOM     30  C   UNL     1      47.168   3.215   6.856  0.00  0.00    +0.000 C 
ATOM     31  C   UNL     1      47.886   1.920   6.589  0.00  0.00    +0.000 C 
ATOM     32  N   UNL     1      46.949   0.906   7.059  0.00  0.00    +0.000 NA
ATOM     33  O   UNL     1      46.411   1.487   8.286  0.00  0.00    +0.000 OA
ATOM     34  H   UNL     1      47.471   0.105   7.417  0.00  0.00    +0.000 HD
ENDBRANCH  28  29
ENDBRANCH  26  28
ENDBRANCH  25  26
ENDBRANCH  22  25
ENDBRANCH  18  19
ENDBRANCH   1  18
TORSDOF 10
ENDMDL
MODEL 2
REMARK VINA RESULT:    -7.093      2.064      3.530
REMARK INTER + INTRA:         -12.360
REMARK INTER:                 -11.387
REMARK INTRA:                  -0.973
REMARK UNBOUND:                -1.121
REMARK  Name = 
REMARK  10 active torsions:
REMARK  status: ('A' for Active; 'I' for Inactive)
REMARK    1  A    between atoms: C_2  and  C_3
REMARK    2  A    between atoms: C_3  and  C_4
REMARK    3  A    between atoms: C_4  and  N_5
REMARK    4  A    between atoms: C_4  and  C_21
REMARK    5  A    between atoms: N_5  and  C_6
REMARK    6  A    between atoms: C_6  and  C_7
REMARK    7  A    between atoms: C_10  and  C_11
REMARK    8  A    between atoms: C_11  and  N_12
REMARK    9  A    between atoms: N_12  and  C_13
REMARK   10  A    between atoms: C_13  and  C_14
REMARK                            x       y       z     vdW  Elec       q    Type
REMARK                         _______ _______ _______ _____ _____    ______ ____
ROOT
ATOM      1  N   UNL     1      48.289   6.155  16.007  0.00  0.00    +0.000 NA
ATOM      2  H   UNL     1      48.843   6.813  16.554  0.00  0.00    +0.000 HD
ENDROOT
BRANCH   1   3
ATOM      3  C   UNL     1      48.349   4.826  16.631  0.00  0.00    +0.000 C 
BRANCH   3   4
ATOM      4  C   UNL     1      49.712   4.696  17.297  0.00  0.00    +0.000 A 
ATOM      5  C   UNL     1      50.445   5.744  17.838  0.00  0.00    +0.000 A 
ATOM      6  S   UNL     1      52.004   5.285  18.362  0.00  0.00    +0.000 S 
ATOM      7  C   UNL     1      51.739   3.668  17.912  0.00  0.00    +0.000 A 
ATOM      8  N   UNL     1      52.712   2.728  18.071  0.00  0.00    +0.000 NA
ATOM      9  C   UNL     1      52.381   1.549  17.661  0.00  0.00    +0.000 A 
ATOM     10  N   UNL     1      51.163   1.220  17.118  0.00  0.00    +0.000 N 
ATOM     11  C   UNL     1      50.132   2.121  16.981  0.00  0.00    +0.000 A 
ATOM     12  O   UNL     1      49.023   1.766  16.594  0.00  0.00    +0.000 OA
ATOM     13  C   UNL     1      50.477   3.475  17.385  0.00  0.00    +0.000 A 
ATOM     14  H   UNL     1      50.955   0.269  16.853  0.00  0.00    +0.000 HD
ENDBRANCH   3   4
BRANCH   3  15
ATOM     15  C   UNL     1      47.179   4.509  17.571  0.00  0.00    +0.000 C 
BRANCH  15  17
ATOM     16  N   UNL     1      47.192   6.094  19.857  0.00  0.00    +0.000 NA
ATOM     17  C   UNL     1      47.186   5.375  18.821  0.00  0.00    +0.000 C 
ENDBRANCH  15  17
ENDBRANCH   3  15
ENDBRANCH   1   3
BRANCH   1  18
ATOM     18  C   UNL     1      48.728   6.189  14.615  0.00  0.00    +0.000 C 
BRANCH  18  19
ATOM     19  C   UNL     1      47.583   5.990  13.666  0.00  0.00    +0.000 A 
ATOM     20  C   UNL     1      47.383   6.870  12.592  0.00  0.00    +0.000 A 
ATOM     21  C   UNL     1      46.363   6.628  11.681  0.00  0.00    +0.000 A 
ATOM     22  C   UNL     1      45.547   5.494  11.810  0.00  0.00    +0.000 A 
ATOM     23  C   UNL     1      45.735   4.628  12.890  0.00  0.00    +0.000 A 
ATOM     24  C   UNL     1      46.745   4.878  13.815  0.00  0.00    +0.000 A 
BRANCH  22  25
ATOM     25  C   UNL     1      44.519   5.190  10.754  0.00  0.00    +0.000 C 
BRANCH  25  26
ATOM     26  N   UNL     1      45.196   4.716   9.549  0.00  0.00    +0.000 NA
ATOM     27  H   UNL     1      46.183   4.579   9.763  0.00  0.00    +0.000 HD
BRANCH  26  28
ATOM     28  C   UNL     1      44.600   3.478   9.054  0.00  0.00    +0.000 C 
BRANCH  28  29
ATOM     29  C   UNL     1      45.240   3.027   7.734  0.00  0.00    +0.000 C 
ATOM     30  C   UNL     1      46.405   2.066   7.899  0.00  0.00    +0.000 C 
ATOM     31  C   UNL     1      47.490   2.679   7.056  0.00  0.00    +0.000 C 
ATOM     32  N   UNL     1      47.219   4.110   7.137  0.00  0.00    +0.000 NA
ATOM     33  O   UNL     1      45.763   4.181   7.054  0.00  0.00    +0.000 OA
ATOM     34  H   UNL     1      47.502   4.556   6.263  0.00  0.00    +0.000 HD
ENDBRANCH  28  29
ENDBRANCH  26  28
ENDBRANCH  25  26
ENDBRANCH  22  25
ENDBRANCH  18  19
ENDBRANCH   1  18
TORSDOF 10
ENDMDL
MODEL 3
REMARK VINA RESULT:    -6.943      2.047      2.304
REMARK INTER + INTRA:         -12.123
REMARK INTER:                 -11.042
REMARK INTRA:                  -1.081
REMARK UNBOUND:                -1.121
REMARK  Name = 
REMARK  10 active torsions:
REMARK  status: ('A' for Active; 'I' for Inactive)
REMARK    1  A    between atoms: C_2  and  C_3
REMARK    2  A    between atoms: C_3  and  C_4
REMARK    3  A    between atoms: C_4  and  N_5
REMARK    4  A    between atoms: C_4  and  C_21
REMARK    5  A    between atoms: N_5  and  C_6
REMARK    6  A    between atoms: C_6  and  C_7
REMARK    7  A    between atoms: C_10  and  C_11
REMARK    8  A    between atoms: C_11  and  N_12
REMARK    9  A    between atoms: N_12  and  C_13
REMARK   10  A    between atoms: C_13  and  C_14
REMARK                            x       y       z     vdW  Elec       q    Type
REMARK                         _______ _______ _______ _____ _____    ______ ____
ROOT
ATOM      1  N   UNL     1      47.810   6.471  15.394  0.00  0.00    +0.000 NA
ATOM      2  H   UNL     1      47.404   7.404  15.458  0.00  0.00    +0.000 HD
ENDROOT
BRANCH   1   3
ATOM      3  C   UNL     1      48.853   6.320  16.418  0.00  0.00    +0.000 C 
BRANCH   3   4
ATOM      4  C   UNL     1      48.507   7.260  17.565  0.00  0.00    +0.000 A 
ATOM      5  C   UNL     1      48.168   6.867  18.852  0.00  0.00    +0.000 A 
ATOM      6  S   UNL     1      47.677   8.160  19.852  0.00  0.00    +0.000 S 
ATOM      7  C   UNL     1      47.931   9.291  18.609  0.00  0.00    +0.000 A 
ATOM      8  N   UNL     1      47.669  10.613  18.801  0.00  0.00    +0.000 NA
ATOM      9  C   UNL     1      47.882  11.351  17.762  0.00  0.00    +0.000 A 
ATOM     10  N   UNL     1      48.343  10.890  16.554  0.00  0.00    +0.000 N 
ATOM     11  C   UNL     1      48.668   9.573  16.324  0.00  0.00    +0.000 A 
ATOM     12  O   UNL     1      49.180   9.217  15.268  0.00  0.00    +0.000 OA
ATOM     13  C   UNL     1      48.398   8.696  17.453  0.00  0.00    +0.000 A 
ATOM     14  H   UNL     1      48.525  11.527  15.793  0.00  0.00    +0.000 HD
ENDBRANCH   3   4
BRANCH   3  15
ATOM     15  C   UNL     1      49.100   4.874  16.870  0.00  0.00    +0.000 C 
BRANCH  15  17
ATOM     16  N   UNL     1      46.748   3.402  17.055  0.00  0.00    +0.000 NA
ATOM     17  C   UNL     1      47.815   4.070  16.972  0.00  0.00    +0.000 C 
ENDBRANCH  15  17
ENDBRANCH   3  15
ENDBRANCH   1   3
BRANCH   1  18
ATOM     18  C   UNL     1      48.264   6.230  14.028  0.00  0.00    +0.000 C 
BRANCH  18  19
ATOM     19  C   UNL     1      47.140   5.791  13.138  0.00  0.00    +0.000 A 
ATOM     20  C   UNL     1      46.345   4.688  13.480  0.00  0.00    +0.000 A 
ATOM     21  C   UNL     1      45.262   4.341  12.683  0.00  0.00    +0.000 A 
ATOM     22  C   UNL     1      44.939   5.103  11.550  0.00  0.00    +0.000 A 
ATOM     23  C   UNL     1      45.743   6.191  11.199  0.00  0.00    +0.000 A 
ATOM     24  C   UNL     1      46.839   6.530  11.986  0.00  0.00    +0.000 A 
BRANCH  22  25
ATOM     25  C   UNL     1      43.701   4.778  10.759  0.00  0.00    +0.000 C 
BRANCH  25  26
ATOM     26  N   UNL     1      44.078   4.482   9.379  0.00  0.00    +0.000 NA
ATOM     27  H   UNL     1      44.713   5.210   9.051  0.00  0.00    +0.000 HD
BRANCH  26  28
ATOM     28  C   UNL     1      44.701   3.166   9.266  0.00  0.00    +0.000 C 
BRANCH  28  29
ATOM     29  C   UNL     1      45.250   2.916   7.855  0.00  0.00    +0.000 C 
ATOM     30  C   UNL     1      46.482   2.029   7.810  0.00  0.00    +0.000 C 
ATOM     31  C   UNL     1      47.449   2.811   6.962  0.00  0.00    +0.000 C 
ATOM     32  N   UNL     1      47.097   4.199   7.235  0.00  0.00    +0.000 NA
ATOM     33  O   UNL     1      45.637   4.175   7.278  0.00  0.00    +0.000 OA
ATOM     34  H   UNL     1      47.273   4.762   6.401  0.00  0.00    +0.000 HD
ENDBRANCH  28  29
ENDBRANCH  26  28
ENDBRANCH  25  26
ENDBRANCH  22  25
ENDBRANCH  18  19
ENDBRANCH   1  18
TORSDOF 10
ENDMDL
MODEL 4
REMARK VINA RESULT:    -6.908      3.110      4.400
REMARK INTER + INTRA:         -12.068
REMARK INTER:                 -10.441
REMARK INTRA:                  -1.627
REMARK UNBOUND:                -1.121
REMARK  Name = 
REMARK  10 active torsions:
REMARK  status: ('A' for Active; 'I' for Inactive)
REMARK    1  A    between atoms: C_2  and  C_3
REMARK    2  A    between atoms: C_3  and  C_4
REMARK    3  A    between atoms: C_4  and  N_5
REMARK    4  A    between atoms: C_4  and  C_21
REMARK    5  A    between atoms: N_5  and  C_6
REMARK    6  A    between atoms: C_6  and  C_7
REMARK    7  A    between atoms: C_10  and  C_11
REMARK    8  A    between atoms: C_11  and  N_12
REMARK    9  A    between atoms: N_12  and  C_13
REMARK   10  A    between atoms: C_13  and  C_14
REMARK                            x       y       z     vdW  Elec       q    Type
REMARK                         _______ _______ _______ _____ _____    ______ ____
ROOT
ATOM      1  N   UNL     1      48.685   6.524  16.284  0.00  0.00    +0.000 NA
ATOM      2  H   UNL     1      49.243   7.023  16.976  0.00  0.00    +0.000 HD
ENDROOT
BRANCH   1   3
ATOM      3  C   UNL     1      48.621   5.100  16.640  0.00  0.00    +0.000 C 
BRANCH   3   4
ATOM      4  C   UNL     1      49.897   4.763  17.400  0.00  0.00    +0.000 A 
ATOM      5  C   UNL     1      50.657   5.664  18.135  0.00  0.00    +0.000 A 
ATOM      6  S   UNL     1      52.114   5.000  18.728  0.00  0.00    +0.000 S 
ATOM      7  C   UNL     1      51.764   3.482  18.049  0.00  0.00    +0.000 A 
ATOM      8  N   UNL     1      52.637   2.444  18.168  0.00  0.00    +0.000 NA
ATOM      9  C   UNL     1      52.252   1.359  17.580  0.00  0.00    +0.000 A 
ATOM     10  N   UNL     1      51.071   1.215  16.896  0.00  0.00    +0.000 N 
ATOM     11  C   UNL     1      50.135   2.218  16.788  0.00  0.00    +0.000 A 
ATOM     12  O   UNL     1      49.044   2.018  16.263  0.00  0.00    +0.000 OA
ATOM     13  C   UNL     1      50.548   3.474  17.394  0.00  0.00    +0.000 A 
ATOM     14  H   UNL     1      50.814   0.327  16.491  0.00  0.00    +0.000 HD
ENDBRANCH   3   4
BRANCH   3  15
ATOM     15  C   UNL     1      47.344   4.683  17.382  0.00  0.00    +0.000 C 
BRANCH  15  17
ATOM     16  N   UNL     1      47.020   6.040  19.788  0.00  0.00    +0.000 NA
ATOM     17  C   UNL     1      47.167   5.425  18.696  0.00  0.00    +0.000 C 
ENDBRANCH  15  17
ENDBRANCH   3  15
ENDBRANCH   1   3
BRANCH   1  18
ATOM     18  C   UNL     1      49.213   6.789  14.949  0.00  0.00    +0.000 C 
BRANCH  18  19
ATOM     19  C   UNL     1      48.115   7.027  13.954  0.00  0.00    +0.000 A 
ATOM     20  C   UNL     1      47.799   6.056  12.993  0.00  0.00    +0.000 A 
ATOM     21  C   UNL     1      46.731   6.260  12.128  0.00  0.00    +0.000 A 
ATOM     22  C   UNL     1      45.949   7.421  12.225  0.00  0.00    +0.000 A 
ATOM     23  C   UNL     1      46.276   8.396  13.171  0.00  0.00    +0.000 A 
ATOM     24  C   UNL     1      47.356   8.201  14.027  0.00  0.00    +0.000 A 
BRANCH  22  25
ATOM     25  C   UNL     1      44.732   7.576  11.354  0.00  0.00    +0.000 C 
BRANCH  25  26
ATOM     26  N   UNL     1      44.382   6.276  10.785  0.00  0.00    +0.000 NA
ATOM     27  H   UNL     1      45.056   5.585  11.113  0.00  0.00    +0.000 HD
BRANCH  26  28
ATOM     28  C   UNL     1      43.023   5.882  11.148  0.00  0.00    +0.000 C 
BRANCH  28  29
ATOM     29  C   UNL     1      42.976   4.457  11.714  0.00  0.00    +0.000 C 
ATOM     30  C   UNL     1      43.914   4.216  12.885  0.00  0.00    +0.000 C 
ATOM     31  C   UNL     1      44.650   2.963  12.495  0.00  0.00    +0.000 C 
ATOM     32  N   UNL     1      44.696   3.033  11.039  0.00  0.00    +0.000 NA
ATOM     33  O   UNL     1      43.371   3.535  10.684  0.00  0.00    +0.000 OA
ATOM     34  H   UNL     1      44.671   2.086  10.656  0.00  0.00    +0.000 HD
ENDBRANCH  28  29
ENDBRANCH  26  28
ENDBRANCH  25  26
ENDBRANCH  22  25
ENDBRANCH  18  19
ENDBRANCH   1  18
TORSDOF 10
ENDMDL
MODEL 5
REMARK VINA RESULT:    -6.845      3.004      9.028
REMARK INTER + INTRA:         -11.967
REMARK INTER:                 -10.176
REMARK INTRA:                  -1.791
REMARK UNBOUND:                -1.121
REMARK  Name = 
REMARK  10 active torsions:
REMARK  status: ('A' for Active; 'I' for Inactive)
REMARK    1  A    between atoms: C_2  and  C_3
REMARK    2  A    between atoms: C_3  and  C_4
REMARK    3  A    between atoms: C_4  and  N_5
REMARK    4  A    between atoms: C_4  and  C_21
REMARK    5  A    between atoms: N_5  and  C_6
REMARK    6  A    between atoms: C_6  and  C_7
REMARK    7  A    between atoms: C_10  and  C_11
REMARK    8  A    between atoms: C_11  and  N_12
REMARK    9  A    between atoms: N_12  and  C_13
REMARK   10  A    between atoms: C_13  and  C_14
REMARK                            x       y       z     vdW  Elec       q    Type
REMARK                         _______ _______ _______ _____ _____    ______ ____
ROOT
ATOM      1  N   UNL     1      47.195   6.700  11.630  0.00  0.00    +0.000 NA
ATOM      2  H   UNL     1      47.554   6.269  10.779  0.00  0.00    +0.000 HD
ENDROOT
BRANCH   1   3
ATOM      3  C   UNL     1      45.801   7.116  11.419  0.00  0.00    +0.000 C 
BRANCH   3   4
ATOM      4  C   UNL     1      44.924   5.887  11.619  0.00  0.00    +0.000 A 
ATOM      5  C   UNL     1      44.161   5.619  12.748  0.00  0.00    +0.000 A 
ATOM      6  S   UNL     1      43.423   4.080  12.722  0.00  0.00    +0.000 S 
ATOM      7  C   UNL     1      44.072   3.734  11.190  0.00  0.00    +0.000 A 
ATOM      8  N   UNL     1      43.842   2.535  10.587  0.00  0.00    +0.000 NA
ATOM      9  C   UNL     1      44.420   2.400   9.439  0.00  0.00    +0.000 A 
ATOM     10  N   UNL     1      45.197   3.358   8.835  0.00  0.00    +0.000 N 
ATOM     11  C   UNL     1      45.420   4.601   9.381  0.00  0.00    +0.000 A 
ATOM     12  O   UNL     1      46.028   5.469   8.762  0.00  0.00    +0.000 OA
ATOM     13  C   UNL     1      44.828   4.780  10.697  0.00  0.00    +0.000 A 
ATOM     14  H   UNL     1      45.588   3.202   7.918  0.00  0.00    +0.000 HD
ENDBRANCH   3   4
BRANCH   3  15
ATOM     15  C   UNL     1      45.359   8.322  12.258  0.00  0.00    +0.000 C 
BRANCH  15  17
ATOM     16  N   UNL     1      43.943  10.193  10.764  0.00  0.00    +0.000 NA
ATOM     17  C   UNL     1      44.586   9.345  11.442  0.00  0.00    +0.000 C 
ENDBRANCH  15  17
ENDBRANCH   3  15
ENDBRANCH   1   3
BRANCH   1  18
ATOM     18  C   UNL     1      48.089   7.776  12.047  0.00  0.00    +0.000 C 
BRANCH  18  19
ATOM     19  C   UNL     1      48.806   7.441  13.321  0.00  0.00    +0.000 A 
ATOM     20  C   UNL     1      50.109   7.906  13.553  0.00  0.00    +0.000 A 
ATOM     21  C   UNL     1      50.729   7.650  14.768  0.00  0.00    +0.000 A 
ATOM     22  C   UNL     1      50.053   6.950  15.779  0.00  0.00    +0.000 A 
ATOM     23  C   UNL     1      48.762   6.471  15.541  0.00  0.00    +0.000 A 
ATOM     24  C   UNL     1      48.145   6.711  14.318  0.00  0.00    +0.000 A 
BRANCH  22  25
ATOM     25  C   UNL     1      50.699   6.775  17.126  0.00  0.00    +0.000 C 
BRANCH  25  26
ATOM     26  N   UNL     1      49.870   5.892  17.944  0.00  0.00    +0.000 NA
ATOM     27  H   UNL     1      48.929   5.873  17.552  0.00  0.00    +0.000 HD
BRANCH  26  28
ATOM     28  C   UNL     1      50.428   4.543  18.009  0.00  0.00    +0.000 C 
BRANCH  28  29
ATOM     29  C   UNL     1      49.337   3.487  18.232  0.00  0.00    +0.000 C 
ATOM     30  C   UNL     1      48.640   3.028  16.963  0.00  0.00    +0.000 C 
ATOM     31  C   UNL     1      47.178   3.158  17.297  0.00  0.00    +0.000 C 
ATOM     32  N   UNL     1      47.141   4.273  18.237  0.00  0.00    +0.000 NA
ATOM     33  O   UNL     1      48.315   4.047  19.075  0.00  0.00    +0.000 OA
ATOM     34  H   UNL     1      46.378   4.127  18.901  0.00  0.00    +0.000 HD
ENDBRANCH  28  29
ENDBRANCH  26  28
ENDBRANCH  25  26
ENDBRANCH  22  25
ENDBRANCH  18  19
ENDBRANCH   1  18
TORSDOF 10
ENDMDL
MODEL 6
REMARK VINA RESULT:    -6.488      3.646      9.150
REMARK INTER + INTRA:         -11.401
REMARK INTER:                  -9.950
REMARK INTRA:                  -1.452
REMARK UNBOUND:                -1.121
REMARK  Name = 
REMARK  10 active torsions:
REMARK  status: ('A' for Active; 'I' for Inactive)
REMARK    1  A    between atoms: C_2  and  C_3
REMARK    2  A    between atoms: C_3  and  C_4
REMARK    3  A    between atoms: C_4  and  N_5
REMARK    4  A    between atoms: C_4  and  C_21
REMARK    5  A    between atoms: N_5  and  C_6
REMARK    6  A    between atoms: C_6  and  C_7
REMARK    7  A    between atoms: C_10  and  C_11
REMARK    8  A    between atoms: C_11  and  N_12
REMARK    9  A    between atoms: N_12  and  C_13
REMARK   10  A    between atoms: C_13  and  C_14
REMARK                            x       y       z     vdW  Elec       q    Type
REMARK                         _______ _______ _______ _____ _____    ______ ____
ROOT
ATOM      1  N   UNL     1      47.317   5.852  14.873  0.00  0.00    +0.000 NA
ATOM      2  H   UNL     1      46.417   6.326  14.938  0.00  0.00    +0.000 HD
ENDROOT
BRANCH   1   3
ATOM      3  C   UNL     1      47.667   5.655  13.460  0.00  0.00    +0.000 C 
BRANCH   3   4
ATOM      4  C   UNL     1      46.389   5.816  12.647  0.00  0.00    +0.000 A 
ATOM      5  C   UNL     1      45.914   7.012  12.127  0.00  0.00    +0.000 A 
ATOM      6  S   UNL     1      44.372   6.876  11.406  0.00  0.00    +0.000 S 
ATOM      7  C   UNL     1      44.303   5.211  11.738  0.00  0.00    +0.000 A 
ATOM      8  N   UNL     1      43.209   4.474  11.398  0.00  0.00    +0.000 NA
ATOM      9  C   UNL     1      43.284   3.229  11.736  0.00  0.00    +0.000 A 
ATOM     10  N   UNL     1      44.356   2.652  12.371  0.00  0.00    +0.000 N 
ATOM     11  C   UNL     1      45.502   3.342  12.693  0.00  0.00    +0.000 A 
ATOM     12  O   UNL     1      46.481   2.770  13.160  0.00  0.00    +0.000 OA
ATOM     13  C   UNL     1      45.443   4.760  12.374  0.00  0.00    +0.000 A 
ATOM     14  H   UNL     1      44.366   1.664  12.573  0.00  0.00    +0.000 HD
ENDBRANCH   3   4
BRANCH   3  15
ATOM     15  C   UNL     1      48.822   6.532  12.959  0.00  0.00    +0.000 C 
BRANCH  15  17
ATOM     16  N   UNL     1      49.508   8.525  14.774  0.00  0.00    +0.000 NA
ATOM     17  C   UNL     1      49.196   7.621  13.951  0.00  0.00    +0.000 C 
ENDBRANCH  15  17
ENDBRANCH   3  15
ENDBRANCH   1   3
BRANCH   1  18
ATOM     18  C   UNL     1      47.280   4.625  15.663  0.00  0.00    +0.000 C 
BRANCH  18  19
ATOM     19  C   UNL     1      48.449   4.530  16.599  0.00  0.00    +0.000 A 
ATOM     20  C   UNL     1      48.944   3.280  17.000  0.00  0.00    +0.000 A 
ATOM     21  C   UNL     1      50.072   3.210  17.807  0.00  0.00    +0.000 A 
ATOM     22  C   UNL     1      50.738   4.380  18.202  0.00  0.00    +0.000 A 
ATOM     23  C   UNL     1      50.234   5.624  17.817  0.00  0.00    +0.000 A 
ATOM     24  C   UNL     1      49.093   5.699  17.024  0.00  0.00    +0.000 A 
BRANCH  22  25
ATOM     25  C   UNL     1      52.019   4.281  18.985  0.00  0.00    +0.000 C 
BRANCH  25  26
ATOM     26  N   UNL     1      52.532   2.915  18.893  0.00  0.00    +0.000 NA
ATOM     27  H   UNL     1      52.391   2.578  17.941  0.00  0.00    +0.000 HD
BRANCH  26  28
ATOM     28  C   UNL     1      53.944   2.849  19.258  0.00  0.00    +0.000 C 
BRANCH  28  29
ATOM     29  C   UNL     1      54.625   1.605  18.673  0.00  0.00    +0.000 C 
ATOM     30  C   UNL     1      54.463   1.451  17.170  0.00  0.00    +0.000 C 
ATOM     31  C   UNL     1      53.984   0.032  17.011  0.00  0.00    +0.000 C 
ATOM     32  N   UNL     1      53.230  -0.212  18.235  0.00  0.00    +0.000 NA
ATOM     33  O   UNL     1      54.040   0.433  19.265  0.00  0.00    +0.000 OA
ATOM     34  H   UNL     1      53.313  -1.198  18.490  0.00  0.00    +0.000 HD
ENDBRANCH  28  29
ENDBRANCH  26  28
ENDBRANCH  25  26
ENDBRANCH  22  25
ENDBRANCH  18  19
ENDBRANCH   1  18
TORSDOF 10
ENDMDL
MODEL 7
REMARK VINA RESULT:    -6.458      2.115      3.407
REMARK INTER + INTRA:         -11.354
REMARK INTER:                  -9.917
REMARK INTRA:                  -1.437
REMARK UNBOUND:                -1.121
REMARK  Name = 
REMARK  10 active torsions:
REMARK  status: ('A' for Active; 'I' for Inactive)
REMARK    1  A    between atoms: C_2  and  C_3
REMARK    2  A    between atoms: C_3  and  C_4
REMARK    3  A    between atoms: C_4  and  N_5
REMARK    4  A    between atoms: C_4  and  C_21
REMARK    5  A    between atoms: N_5  and  C_6
REMARK    6  A    between atoms: C_6  and  C_7
REMARK    7  A    between atoms: C_10  and  C_11
REMARK    8  A    between atoms: C_11  and  N_12
REMARK    9  A    between atoms: N_12  and  C_13
REMARK   10  A    between atoms: C_13  and  C_14
REMARK                            x       y       z     vdW  Elec       q    Type
REMARK                         _______ _______ _______ _____ _____    ______ ____
ROOT
ATOM      1  N   UNL     1      49.713   6.733  15.142  0.00  0.00    +0.000 NA
ATOM      2  H   UNL     1      49.188   5.973  15.573  0.00  0.00    +0.000 HD
ENDROOT
BRANCH   1   3
ATOM      3  C   UNL     1      50.063   7.729  16.164  0.00  0.00    +0.000 C 
BRANCH   3   4
ATOM      4  C   UNL     1      49.166   7.478  17.370  0.00  0.00    +0.000 A 
ATOM      5  C   UNL     1      48.310   8.410  17.942  0.00  0.00    +0.000 A 
ATOM      6  S   UNL     1      47.570   7.861  19.379  0.00  0.00    +0.000 S 
ATOM      7  C   UNL     1      48.344   6.352  19.267  0.00  0.00    +0.000 A 
ATOM      8  N   UNL     1      48.159   5.398  20.221  0.00  0.00    +0.000 NA
ATOM      9  C   UNL     1      48.831   4.313  20.021  0.00  0.00    +0.000 A 
ATOM     10  N   UNL     1      49.660   4.090  18.950  0.00  0.00    +0.000 N 
ATOM     11  C   UNL     1      49.843   5.002  17.936  0.00  0.00    +0.000 A 
ATOM     12  O   UNL     1      50.505   4.725  16.940  0.00  0.00    +0.000 OA
ATOM     13  C   UNL     1      49.143   6.260  18.144  0.00  0.00    +0.000 A 
ATOM     14  H   UNL     1      50.127   3.203  18.833  0.00  0.00    +0.000 HD
ENDBRANCH   3   4
BRANCH   3  15
ATOM     15  C   UNL     1      51.555   7.786  16.516  0.00  0.00    +0.000 C 
BRANCH  15  17
ATOM     16  N   UNL     1      53.176   7.926  14.260  0.00  0.00    +0.000 NA
ATOM     17  C   UNL     1      52.441   7.863  15.284  0.00  0.00    +0.000 C 
ENDBRANCH  15  17
ENDBRANCH   3  15
ENDBRANCH   1   3
BRANCH   1  18
ATOM     18  C   UNL     1      48.959   7.267  14.012  0.00  0.00    +0.000 C 
BRANCH  18  19
ATOM     19  C   UNL     1      47.820   6.369  13.628  0.00  0.00    +0.000 A 
ATOM     20  C   UNL     1      47.121   6.572  12.429  0.00  0.00    +0.000 A 
ATOM     21  C   UNL     1      46.120   5.686  12.053  0.00  0.00    +0.000 A 
ATOM     22  C   UNL     1      45.818   4.572  12.852  0.00  0.00    +0.000 A 
ATOM     23  C   UNL     1      46.503   4.381  14.055  0.00  0.00    +0.000 A 
ATOM     24  C   UNL     1      47.494   5.277  14.443  0.00  0.00    +0.000 A 
BRANCH  22  25
ATOM     25  C   UNL     1      44.806   3.566  12.377  0.00  0.00    +0.000 C 
BRANCH  25  26
ATOM     26  N   UNL     1      45.261   2.990  11.113  0.00  0.00    +0.000 NA
ATOM     27  H   UNL     1      45.843   2.178  11.315  0.00  0.00    +0.000 HD
BRANCH  26  28
ATOM     28  C   UNL     1      44.135   2.617  10.260  0.00  0.00    +0.000 C 
BRANCH  28  29
ATOM     29  C   UNL     1      44.426   2.897   8.780  0.00  0.00    +0.000 C 
ATOM     30  C   UNL     1      45.809   2.468   8.321  0.00  0.00    +0.000 C 
ATOM     31  C   UNL     1      46.343   3.689   7.622  0.00  0.00    +0.000 C 
ATOM     32  N   UNL     1      45.708   4.794   8.332  0.00  0.00    +0.000 NA
ATOM     33  O   UNL     1      44.346   4.314   8.551  0.00  0.00    +0.000 OA
ATOM     34  H   UNL     1      45.556   5.567   7.682  0.00  0.00    +0.000 HD
ENDBRANCH  28  29
ENDBRANCH  26  28
ENDBRANCH  25  26
ENDBRANCH  22  25
ENDBRANCH  18  19
ENDBRANCH   1  18
TORSDOF 10
ENDMDL
MODEL 8
REMARK VINA RESULT:    -6.407      2.896      9.153
REMARK INTER + INTRA:         -11.274
REMARK INTER:                  -9.657
REMARK INTRA:                  -1.617
REMARK UNBOUND:                -1.121
REMARK  Name = 
REMARK  10 active torsions:
REMARK  status: ('A' for Active; 'I' for Inactive)
REMARK    1  A    between atoms: C_2  and  C_3
REMARK    2  A    between atoms: C_3  and  C_4
REMARK    3  A    between atoms: C_4  and  N_5
REMARK    4  A    between atoms: C_4  and  C_21
REMARK    5  A    between atoms: N_5  and  C_6
REMARK    6  A    between atoms: C_6  and  C_7
REMARK    7  A    between atoms: C_10  and  C_11
REMARK    8  A    between atoms: C_11  and  N_12
REMARK    9  A    between atoms: N_12  and  C_13
REMARK   10  A    between atoms: C_13  and  C_14
REMARK                            x       y       z     vdW  Elec       q    Type
REMARK                         _______ _______ _______ _____ _____    ______ ____
ROOT
ATOM      1  N   UNL     1      47.152   6.634  11.607  0.00  0.00    +0.000 NA
ATOM      2  H   UNL     1      47.723   6.785  10.777  0.00  0.00    +0.000 HD
ENDROOT
BRANCH   1   3
ATOM      3  C   UNL     1      45.776   7.077  11.343  0.00  0.00    +0.000 C 
BRANCH   3   4
ATOM      4  C   UNL     1      44.875   5.853  11.449  0.00  0.00    +0.000 A 
ATOM      5  C   UNL     1      44.024   5.571  12.509  0.00  0.00    +0.000 A 
ATOM      6  S   UNL     1      43.276   4.040  12.393  0.00  0.00    +0.000 S 
ATOM      7  C   UNL     1      44.040   3.719  10.909  0.00  0.00    +0.000 A 
ATOM      8  N   UNL     1      43.846   2.535  10.264  0.00  0.00    +0.000 NA
ATOM      9  C   UNL     1      44.511   2.418   9.163  0.00  0.00    +0.000 A 
ATOM     10  N   UNL     1      45.341   3.379   8.641  0.00  0.00    +0.000 N 
ATOM     11  C   UNL     1      45.532   4.608   9.229  0.00  0.00    +0.000 A 
ATOM     12  O   UNL     1      46.194   5.482   8.678  0.00  0.00    +0.000 OA
ATOM     13  C   UNL     1      44.841   4.766  10.499  0.00  0.00    +0.000 A 
ATOM     14  H   UNL     1      45.802   3.238   7.755  0.00  0.00    +0.000 HD
ENDBRANCH   3   4
BRANCH   3  15
ATOM     15  C   UNL     1      45.306   8.255  12.208  0.00  0.00    +0.000 C 
BRANCH  15  17
ATOM     16  N   UNL     1      43.956  10.186  10.731  0.00  0.00    +0.000 NA
ATOM     17  C   UNL     1      44.569   9.310  11.400  0.00  0.00    +0.000 C 
ENDBRANCH  15  17
ENDBRANCH   3  15
ENDBRANCH   1   3
BRANCH   1  18
ATOM     18  C   UNL     1      47.782   7.275  12.757  0.00  0.00    +0.000 C 
BRANCH  18  19
ATOM     19  C   UNL     1      47.815   6.367  13.951  0.00  0.00    +0.000 A 
ATOM     20  C   UNL     1      48.433   6.774  15.143  0.00  0.00    +0.000 A 
ATOM     21  C   UNL     1      48.389   5.952  16.261  0.00  0.00    +0.000 A 
ATOM     22  C   UNL     1      47.708   4.726  16.217  0.00  0.00    +0.000 A 
ATOM     23  C   UNL     1      47.108   4.313  15.025  0.00  0.00    +0.000 A 
ATOM     24  C   UNL     1      47.166   5.127  13.897  0.00  0.00    +0.000 A 
BRANCH  22  25
ATOM     25  C   UNL     1      47.579   3.899  17.467  0.00  0.00    +0.000 C 
BRANCH  25  26
ATOM     26  N   UNL     1      48.911   3.511  17.924  0.00  0.00    +0.000 NA
ATOM     27  H   UNL     1      49.586   3.740  17.194  0.00  0.00    +0.000 HD
BRANCH  26  28
ATOM     28  C   UNL     1      49.262   4.176  19.176  0.00  0.00    +0.000 C 
BRANCH  28  29
ATOM     29  C   UNL     1      50.703   4.702  19.157  0.00  0.00    +0.000 C 
ATOM     30  C   UNL     1      50.821   6.202  18.946  0.00  0.00    +0.000 C 
ATOM     31  C   UNL     1      51.823   6.323  17.830  0.00  0.00    +0.000 C 
ATOM     32  N   UNL     1      51.612   5.111  17.047  0.00  0.00    +0.000 NA
ATOM     33  O   UNL     1      51.408   4.084  18.066  0.00  0.00    +0.000 OA
ATOM     34  H   UNL     1      52.499   4.821  16.632  0.00  0.00    +0.000 HD
ENDBRANCH  28  29
ENDBRANCH  26  28
ENDBRANCH  25  26
ENDBRANCH  22  25
ENDBRANCH  18  19
ENDBRANCH   1  18
TORSDOF 10
ENDMDL
MODEL 9
REMARK VINA RESULT:    -6.276      3.568      9.374
REMARK INTER + INTRA:         -11.066
REMARK INTER:                  -9.151
REMARK INTRA:                  -1.915
REMARK UNBOUND:                -1.121
REMARK  Name = 
REMARK  10 active torsions:
REMARK  status: ('A' for Active; 'I' for Inactive)
REMARK    1  A    between atoms: C_2  and  C_3
REMARK    2  A    between atoms: C_3  and  C_4
REMARK    3  A    between atoms: C_4  and  N_5
REMARK    4  A    between atoms: C_4  and  C_21
REMARK    5  A    between atoms: N_5  and  C_6
REMARK    6  A    between atoms: C_6  and  C_7
REMARK    7  A    between atoms: C_10  and  C_11
REMARK    8  A    between atoms: C_11  and  N_12
REMARK    9  A    between atoms: N_12  and  C_13
REMARK   10  A    between atoms: C_13  and  C_14
REMARK                            x       y       z     vdW  Elec       q    Type
REMARK                         _______ _______ _______ _____ _____    ______ ____
ROOT
ATOM      1  N   UNL     1      47.078   5.514  14.846  0.00  0.00    +0.000 NA
ATOM      2  H   UNL     1      46.073   5.680  14.894  0.00  0.00    +0.000 HD
ENDROOT
BRANCH   1   3
ATOM      3  C   UNL     1      47.528   5.629  13.452  0.00  0.00    +0.000 C 
BRANCH   3   4
ATOM      4  C   UNL     1      46.302   5.940  12.602  0.00  0.00    +0.000 A 
ATOM      5  C   UNL     1      45.945   7.198  12.137  0.00  0.00    +0.000 A 
ATOM      6  S   UNL     1      44.430   7.229  11.351  0.00  0.00    +0.000 S 
ATOM      7  C   UNL     1      44.216   5.559  11.579  0.00  0.00    +0.000 A 
ATOM      8  N   UNL     1      43.083   4.934  11.154  0.00  0.00    +0.000 NA
ATOM      9  C   UNL     1      43.045   3.670  11.419  0.00  0.00    +0.000 A 
ATOM     10  N   UNL     1      44.040   2.972  12.058  0.00  0.00    +0.000 N 
ATOM     11  C   UNL     1      45.222   3.547  12.464  0.00  0.00    +0.000 A 
ATOM     12  O   UNL     1      46.132   2.871  12.933  0.00  0.00    +0.000 OA
ATOM     13  C   UNL     1      45.288   4.981  12.230  0.00  0.00    +0.000 A 
ATOM     14  H   UNL     1      43.963   1.976  12.200  0.00  0.00    +0.000 HD
ENDBRANCH   3   4
BRANCH   3  15
ATOM     15  C   UNL     1      48.686   6.611  13.232  0.00  0.00    +0.000 C 
BRANCH  15  17
ATOM     16  N   UNL     1      49.066   8.308  15.403  0.00  0.00    +0.000 NA
ATOM     17  C   UNL     1      48.894   7.538  14.419  0.00  0.00    +0.000 C 
ENDBRANCH  15  17
ENDBRANCH   3  15
ENDBRANCH   1   3
BRANCH   1  18
ATOM     18  C   UNL     1      47.392   4.237  15.479  0.00  0.00    +0.000 C 
BRANCH  18  19
ATOM     19  C   UNL     1      47.945   4.422  16.861  0.00  0.00    +0.000 A 
ATOM     20  C   UNL     1      47.889   5.673  17.492  0.00  0.00    +0.000 A 
ATOM     21  C   UNL     1      48.338   5.810  18.799  0.00  0.00    +0.000 A 
ATOM     22  C   UNL     1      48.822   4.698  19.505  0.00  0.00    +0.000 A 
ATOM     23  C   UNL     1      48.893   3.455  18.870  0.00  0.00    +0.000 A 
ATOM     24  C   UNL     1      48.461   3.320  17.554  0.00  0.00    +0.000 A 
BRANCH  22  25
ATOM     25  C   UNL     1      49.201   4.842  20.954  0.00  0.00    +0.000 C 
BRANCH  25  26
ATOM     26  N   UNL     1      50.596   4.441  21.125  0.00  0.00    +0.000 NA
ATOM     27  H   UNL     1      50.795   3.671  20.486  0.00  0.00    +0.000 HD
BRANCH  26  28
ATOM     28  C   UNL     1      51.506   5.558  20.884  0.00  0.00    +0.000 C 
BRANCH  28  29
ATOM     29  C   UNL     1      52.644   5.168  19.931  0.00  0.00    +0.000 C 
ATOM     30  C   UNL     1      52.226   5.038  18.476  0.00  0.00    +0.000 C 
ATOM     31  C   UNL     1      52.774   3.695  18.072  0.00  0.00    +0.000 C 
ATOM     32  N   UNL     1      52.730   2.922  19.307  0.00  0.00    +0.000 NA
ATOM     33  O   UNL     1      53.157   3.883  20.321  0.00  0.00    +0.000 OA
ATOM     34  H   UNL     1      53.503   2.254  19.313  0.00  0.00    +0.000 HD
ENDBRANCH  28  29
ENDBRANCH  26  28
ENDBRANCH  25  26
ENDBRANCH  22  25
ENDBRANCH  18  19
ENDBRANCH   1  18
TORSDOF 10
ENDMDL
