MODEL 1
REMARK VINA RESULT:    -8.979      0.000      0.000
REMARK INTER + INTRA:         -13.082
REMARK INTER:                 -12.128
REMARK INTRA:                  -0.953
REMARK UNBOUND:                -0.953
REMARK  Name = 
REMARK  6 active torsions:
REMARK  status: ('A' for Active; 'I' for Inactive)
REMARK    1  A    between atoms: C_2  and  C_4
REMARK    2  A    between atoms: C_7  and  O_8
REMARK    3  A    between atoms: O_8  and  C_9
REMARK    4  A    between atoms: C_9  and  C_10
REMARK    5  A    between atoms: C_14  and  C_15
REMARK    6  A    between atoms: C_19  and  C_20
REMARK                            x       y       z     vdW  Elec       q    Type
REMARK                         _______ _______ _______ _____ _____    ______ ____
ROOT
ATOM      1  C   UNL     1      45.013   5.369  12.017  0.00  0.00    +0.000 A 
ATOM      2  C   UNL     1      45.239   6.585  11.374  0.00  0.00    +0.000 A 
ATOM      3  C   UNL     1      46.208   7.429  11.887  0.00  0.00    +0.000 A 
ATOM      4  N   UNL     1      46.952   7.149  12.980  0.00  0.00    +0.000 NA
ATOM      5  C   UNL     1      46.720   5.976  13.622  0.00  0.00    +0.000 A 
ATOM      6  C   UNL     1      45.753   5.076  13.169  0.00  0.00    +0.000 A 
ENDROOT
BRANCH   5   7
ATOM      7  C   UNL     1      47.598   5.684  14.775  0.00  0.00    +0.000 A 
ATOM      8  C   UNL     1      48.559   6.602  15.233  0.00  0.00    +0.000 A 
ATOM      9  C   UNL     1      49.342   6.336  16.360  0.00  0.00    +0.000 A 
ATOM     10  C   UNL     1      49.179   5.142  17.059  0.00  0.00    +0.000 A 
ATOM     11  C   UNL     1      48.240   4.197  16.630  0.00  0.00    +0.000 A 
ATOM     12  C   UNL     1      47.472   4.474  15.483  0.00  0.00    +0.000 A 
BRANCH  11  13
ATOM     13  C   UNL     1      48.026   2.909  17.385  0.00  0.00    +0.000 C 
ATOM     14  F   UNL     1      46.710   2.608  17.583  0.00  0.00    +0.000 F 
ATOM     15  F   UNL     1      48.556   1.832  16.741  0.00  0.00    +0.000 F 
ATOM     16  F   UNL     1      48.593   2.922  18.624  0.00  0.00    +0.000 F 
ENDBRANCH  11  13
ENDBRANCH   5   7
BRANCH   1  17
ATOM     17  C   UNL     1      44.026   4.373  11.467  0.00  0.00    +0.000 C 
BRANCH  17  18
ATOM     18  O   UNL     1      43.804   4.624  10.077  0.00  0.00    +0.000 OA
BRANCH  18  22
ATOM     19  C   UNL     1      46.415   2.454   7.737  0.00  0.00    +0.000 A 
ATOM     20  C   UNL     1      45.645   1.798   8.699  0.00  0.00    +0.000 A 
ATOM     21  C   UNL     1      44.764   2.543   9.491  0.00  0.00    +0.000 A 
ATOM     22  C   UNL     1      44.686   3.914   9.286  0.00  0.00    +0.000 A 
ATOM     23  N   UNL     1      45.427   4.570   8.365  0.00  0.00    +0.000 NA
ATOM     24  C   UNL     1      46.279   3.830   7.620  0.00  0.00    +0.000 A 
BRANCH  19  26
ATOM     25  N   UNL     1      48.493   2.474   6.472  0.00  0.00    +0.000 N 
ATOM     26  C   UNL     1      47.383   1.774   6.851  0.00  0.00    +0.000 C 
ATOM     27  O   UNL     1      47.219   0.613   6.503  0.00  0.00    +0.000 OA
ATOM     28  H   UNL     1      49.195   1.947   5.965  0.00  0.00    +0.000 HD
ATOM     29  H   UNL     1      48.792   3.320   6.936  0.00  0.00    +0.000 HD
ENDBRANCH  19  26
ENDBRANCH  18  22
ENDBRANCH  17  18
ENDBRANCH   1  17
TORSDOF 6
ENDMDL
MODEL 2
REMARK VINA RESULT:    -8.776      3.575      4.672
REMARK INTER + INTRA:         -12.807
REMARK INTER:                 -11.963
REMARK INTRA:                  -0.844
REMARK UNBOUND:                -0.953
REMARK  Name = 
REMARK  6 active torsions:
REMARK  status: ('A' for Active; 'I' for Inactive)
REMARK    1  A    between atoms: C_2  and  C_4
REMARK    2  A    between atoms: C_7  and  O_8
REMARK    3  A    between atoms: O_8  and  C_9
REMARK    4  A    between atoms: C_9  and  C_10
REMARK    5  A    between atoms: C_14  and  C_15
REMARK    6  A    between atoms: C_19  and  C_20
REMARK                            x       y       z     vdW  Elec       q    Type
REMARK                         _______ _______ _______ _____ _____    ______ ____
ROOT
ATOM      1  C   UNL     1      44.785   4.779  11.879  0.00  0.00    +0.000 A 
ATOM      2  C   UNL     1      45.232   4.002  12.947  0.00  0.00    +0.000 A 
ATOM      3  C   UNL     1      46.355   4.421  13.638  0.00  0.00    +0.000 A 
ATOM      4  N   UNL     1      47.051   5.541  13.341  0.00  0.00    +0.000 NA
ATOM      5  C   UNL     1      46.631   6.288  12.289  0.00  0.00    +0.000 A 
ATOM      6  C   UNL     1      45.511   5.926  11.539  0.00  0.00    +0.000 A 
ENDROOT
BRANCH   5   7
ATOM      7  C   UNL     1      47.385   7.536  12.039  0.00  0.00    +0.000 A 
ATOM      8  C   UNL     1      46.793   8.804  12.171  0.00  0.00    +0.000 A 
ATOM      9  C   UNL     1      47.534   9.976  11.988  0.00  0.00    +0.000 A 
ATOM     10  C   UNL     1      48.887   9.906  11.669  0.00  0.00    +0.000 A 
ATOM     11  C   UNL     1      49.512   8.662  11.518  0.00  0.00    +0.000 A 
ATOM     12  C   UNL     1      48.748   7.492  11.690  0.00  0.00    +0.000 A 
BRANCH  11  13
ATOM     13  C   UNL     1      50.983   8.559  11.201  0.00  0.00    +0.000 C 
ATOM     14  F   UNL     1      51.461   9.624  10.495  0.00  0.00    +0.000 F 
ATOM     15  F   UNL     1      51.754   8.486  12.321  0.00  0.00    +0.000 F 
ATOM     16  F   UNL     1      51.290   7.457  10.462  0.00  0.00    +0.000 F 
ENDBRANCH  11  13
ENDBRANCH   5   7
BRANCH   1  17
ATOM     17  C   UNL     1      43.526   4.419  11.134  0.00  0.00    +0.000 C 
BRANCH  17  18
ATOM     18  O   UNL     1      43.658   4.774   9.755  0.00  0.00    +0.000 OA
BRANCH  18  22
ATOM     19  C   UNL     1      46.287   2.248   7.827  0.00  0.00    +0.000 A 
ATOM     20  C   UNL     1      45.392   1.727   8.763  0.00  0.00    +0.000 A 
ATOM     21  C   UNL     1      44.507   2.592   9.415  0.00  0.00    +0.000 A 
ATOM     22  C   UNL     1      44.549   3.944   9.102  0.00  0.00    +0.000 A 
ATOM     23  N   UNL     1      45.410   4.470   8.204  0.00  0.00    +0.000 NA
ATOM     24  C   UNL     1      46.264   3.616   7.596  0.00  0.00    +0.000 A 
BRANCH  19  26
ATOM     25  N   UNL     1      48.363   2.076   6.571  0.00  0.00    +0.000 N 
ATOM     26  C   UNL     1      47.272   1.434   7.086  0.00  0.00    +0.000 C 
ATOM     27  O   UNL     1      47.139   0.224   6.970  0.00  0.00    +0.000 OA
ATOM     28  H   UNL     1      49.078   1.478   6.172  0.00  0.00    +0.000 HD
ATOM     29  H   UNL     1      48.640   3.003   6.860  0.00  0.00    +0.000 HD
ENDBRANCH  19  26
ENDBRANCH  18  22
ENDBRANCH  17  18
ENDBRANCH   1  17
TORSDOF 6
ENDMDL
MODEL 3
REMARK VINA RESULT:    -8.150      1.710      2.379
REMARK INTER + INTRA:         -11.962
REMARK INTER:                 -11.043
REMARK INTRA:                  -0.919
REMARK UNBOUND:                -0.953
REMARK  Name = 
REMARK  6 active torsions:
REMARK  status: ('A' for Active; 'I' for Inactive)
REMARK    1  A    between atoms: C_2  and  C_4
REMARK    2  A    between atoms: C_7  and  O_8
REMARK    3  A    between atoms: O_8  and  C_9
REMARK    4  A    between atoms: C_9  and  C_10
REMARK    5  A    between atoms: C_14  and  C_15
REMARK    6  A    between atoms: C_19  and  C_20
REMARK                            x       y       z     vdW  Elec       q    Type
REMARK                         _______ _______ _______ _____ _____    ______ ____
ROOT
ATOM      1  C   UNL     1      44.874   5.043  12.098  0.00  0.00    +0.000 A 
ATOM      2  C   UNL     1      45.287   6.246  11.528  0.00  0.00    +0.000 A 
ATOM      3  C   UNL     1      46.316   6.942  12.138  0.00  0.00    +0.000 A 
ATOM      4  N   UNL     1      46.949   6.527  13.258  0.00  0.00    +0.000 NA
ATOM      5  C   UNL     1      46.535   5.367  13.828  0.00  0.00    +0.000 A 
ATOM      6  C   UNL     1      45.497   4.614  13.275  0.00  0.00    +0.000 A 
ENDROOT
BRANCH   5   7
ATOM      7  C   UNL     1      47.294   4.920  15.015  0.00  0.00    +0.000 A 
ATOM      8  C   UNL     1      47.112   3.647  15.582  0.00  0.00    +0.000 A 
ATOM      9  C   UNL     1      47.879   3.217  16.669  0.00  0.00    +0.000 A 
ATOM     10  C   UNL     1      48.850   4.053  17.214  0.00  0.00    +0.000 A 
ATOM     11  C   UNL     1      49.056   5.333  16.685  0.00  0.00    +0.000 A 
ATOM     12  C   UNL     1      48.264   5.756  15.601  0.00  0.00    +0.000 A 
BRANCH  11  13
ATOM     13  C   UNL     1      50.120   6.246  17.240  0.00  0.00    +0.000 C 
ATOM     14  F   UNL     1      50.802   6.933  16.279  0.00  0.00    +0.000 F 
ATOM     15  F   UNL     1      49.611   7.193  18.077  0.00  0.00    +0.000 F 
ATOM     16  F   UNL     1      51.066   5.580  17.960  0.00  0.00    +0.000 F 
ENDBRANCH  11  13
ENDBRANCH   5   7
BRANCH   1  17
ATOM     17  C   UNL     1      43.810   4.201  11.442  0.00  0.00    +0.000 C 
BRANCH  17  18
ATOM     18  O   UNL     1      43.724   4.521  10.052  0.00  0.00    +0.000 OA
BRANCH  18  22
ATOM     19  C   UNL     1      46.384   2.322   7.794  0.00  0.00    +0.000 A 
ATOM     20  C   UNL     1      46.313   3.705   7.621  0.00  0.00    +0.000 A 
ATOM     21  C   UNL     1      45.405   4.443   8.388  0.00  0.00    +0.000 A 
ATOM     22  C   UNL     1      44.607   3.767   9.302  0.00  0.00    +0.000 A 
ATOM     23  N   UNL     1      44.655   2.429   9.481  0.00  0.00    +0.000 NA
ATOM     24  C   UNL     1      45.532   1.737   8.720  0.00  0.00    +0.000 A 
BRANCH  19  26
ATOM     25  N   UNL     1      48.415   2.005   6.493  0.00  0.00    +0.000 N 
ATOM     26  C   UNL     1      47.296   1.441   7.035  0.00  0.00    +0.000 C 
ATOM     27  O   UNL     1      47.079   0.242   6.930  0.00  0.00    +0.000 OA
ATOM     28  H   UNL     1      49.079   1.360   6.081  0.00  0.00    +0.000 HD
ATOM     29  H   UNL     1      48.760   2.913   6.770  0.00  0.00    +0.000 HD
ENDBRANCH  19  26
ENDBRANCH  18  22
ENDBRANCH  17  18
ENDBRANCH   1  17
TORSDOF 6
ENDMDL
MODEL 4
REMARK VINA RESULT:    -8.080      3.633      4.273
REMARK INTER + INTRA:         -11.867
REMARK INTER:                 -10.907
REMARK INTRA:                  -0.960
REMARK UNBOUND:                -0.953
REMARK  Name = 
REMARK  6 active torsions:
REMARK  status: ('A' for Active; 'I' for Inactive)
REMARK    1  A    between atoms: C_2  and  C_4
REMARK    2  A    between atoms: C_7  and  O_8
REMARK    3  A    between atoms: O_8  and  C_9
REMARK    4  A    between atoms: C_9  and  C_10
REMARK    5  A    between atoms: C_14  and  C_15
REMARK    6  A    between atoms: C_19  and  C_20
REMARK                            x       y       z     vdW  Elec       q    Type
REMARK                         _______ _______ _______ _____ _____    ______ ____
ROOT
ATOM      1  C   UNL     1      44.698   5.226  11.842  0.00  0.00    +0.000 A 
ATOM      2  C   UNL     1      43.898   6.297  11.447  0.00  0.00    +0.000 A 
ATOM      3  C   UNL     1      44.412   7.577  11.558  0.00  0.00    +0.000 A 
ATOM      4  N   UNL     1      45.647   7.857  12.030  0.00  0.00    +0.000 NA
ATOM      5  C   UNL     1      46.421   6.819  12.436  0.00  0.00    +0.000 A 
ATOM      6  C   UNL     1      45.969   5.500  12.361  0.00  0.00    +0.000 A 
ENDROOT
BRANCH   5   7
ATOM      7  C   UNL     1      47.785   7.165  12.887  0.00  0.00    +0.000 A 
ATOM      8  C   UNL     1      48.175   7.063  14.234  0.00  0.00    +0.000 A 
ATOM      9  C   UNL     1      49.486   7.338  14.636  0.00  0.00    +0.000 A 
ATOM     10  C   UNL     1      50.439   7.722  13.697  0.00  0.00    +0.000 A 
ATOM     11  C   UNL     1      50.089   7.847  12.347  0.00  0.00    +0.000 A 
ATOM     12  C   UNL     1      48.762   7.581  11.962  0.00  0.00    +0.000 A 
BRANCH  11  13
ATOM     13  C   UNL     1      51.111   8.234  11.308  0.00  0.00    +0.000 C 
ATOM     14  F   UNL     1      50.834   9.418  10.689  0.00  0.00    +0.000 F 
ATOM     15  F   UNL     1      52.360   8.378  11.832  0.00  0.00    +0.000 F 
ATOM     16  F   UNL     1      51.227   7.313  10.311  0.00  0.00    +0.000 F 
ENDBRANCH  11  13
ENDBRANCH   5   7
BRANCH   1  17
ATOM     17  C   UNL     1      44.227   3.805  11.676  0.00  0.00    +0.000 C 
BRANCH  17  18
ATOM     18  O   UNL     1      43.636   3.634  10.386  0.00  0.00    +0.000 OA
BRANCH  18  22
ATOM     19  C   UNL     1      46.464   2.673   7.542  0.00  0.00    +0.000 A 
ATOM     20  C   UNL     1      46.047   3.998   7.678  0.00  0.00    +0.000 A 
ATOM     21  C   UNL     1      45.085   4.314   8.643  0.00  0.00    +0.000 A 
ATOM     22  C   UNL     1      44.581   3.293   9.437  0.00  0.00    +0.000 A 
ATOM     23  N   UNL     1      44.966   2.003   9.318  0.00  0.00    +0.000 NA
ATOM     24  C   UNL     1      45.888   1.720   8.371  0.00  0.00    +0.000 A 
BRANCH  19  26
ATOM     25  N   UNL     1      47.490   2.852   5.344  0.00  0.00    +0.000 N 
ATOM     26  C   UNL     1      47.465   2.220   6.555  0.00  0.00    +0.000 C 
ATOM     27  O   UNL     1      48.271   1.340   6.824  0.00  0.00    +0.000 OA
ATOM     28  H   UNL     1      48.259   2.603   4.732  0.00  0.00    +0.000 HD
ATOM     29  H   UNL     1      47.031   3.736   5.178  0.00  0.00    +0.000 HD
ENDBRANCH  19  26
ENDBRANCH  18  22
ENDBRANCH  17  18
ENDBRANCH   1  17
TORSDOF 6
ENDMDL
MODEL 5
REMARK VINA RESULT:    -7.517      4.871      8.062
REMARK INTER + INTRA:         -11.106
REMARK INTER:                 -10.157
REMARK INTRA:                  -0.950
REMARK UNBOUND:                -0.953
REMARK  Name = 
REMARK  6 active torsions:
REMARK  status: ('A' for Active; 'I' for Inactive)
REMARK    1  A    between atoms: C_2  and  C_4
REMARK    2  A    between atoms: C_7  and  O_8
REMARK    3  A    between atoms: O_8  and  C_9
REMARK    4  A    between atoms: C_9  and  C_10
REMARK    5  A    between atoms: C_14  and  C_15
REMARK    6  A    between atoms: C_19  and  C_20
REMARK                            x       y       z     vdW  Elec       q    Type
REMARK                         _______ _______ _______ _____ _____    ______ ____
ROOT
ATOM      1  C   UNL     1      48.154   6.464  14.458  0.00  0.00    +0.000 A 
ATOM      2  C   UNL     1      48.585   7.408  13.528  0.00  0.00    +0.000 A 
ATOM      3  C   UNL     1      48.025   7.386  12.263  0.00  0.00    +0.000 A 
ATOM      4  N   UNL     1      47.083   6.501  11.869  0.00  0.00    +0.000 NA
ATOM      5  C   UNL     1      46.677   5.566  12.765  0.00  0.00    +0.000 A 
ATOM      6  C   UNL     1      47.201   5.520  14.058  0.00  0.00    +0.000 A 
ENDROOT
BRANCH   5   7
ATOM      7  C   UNL     1      45.602   4.658  12.312  0.00  0.00    +0.000 A 
ATOM      8  C   UNL     1      44.425   4.464  13.057  0.00  0.00    +0.000 A 
ATOM      9  C   UNL     1      43.392   3.647  12.587  0.00  0.00    +0.000 A 
ATOM     10  C   UNL     1      43.512   3.006  11.357  0.00  0.00    +0.000 A 
ATOM     11  C   UNL     1      44.672   3.165  10.589  0.00  0.00    +0.000 A 
ATOM     12  C   UNL     1      45.709   3.978  11.084  0.00  0.00    +0.000 A 
BRANCH  11  13
ATOM     13  C   UNL     1      44.813   2.503   9.241  0.00  0.00    +0.000 C 
ATOM     14  F   UNL     1      46.109   2.291   8.874  0.00  0.00    +0.000 F 
ATOM     15  F   UNL     1      44.213   1.281   9.195  0.00  0.00    +0.000 F 
ATOM     16  F   UNL     1      44.257   3.231   8.233  0.00  0.00    +0.000 F 
ENDBRANCH  11  13
ENDBRANCH   5   7
BRANCH   1  17
ATOM     17  C   UNL     1      48.669   6.481  15.874  0.00  0.00    +0.000 C 
BRANCH  17  18
ATOM     18  O   UNL     1      48.111   5.388  16.608  0.00  0.00    +0.000 OA
BRANCH  18  22
ATOM     19  C   UNL     1      50.900   2.449  17.373  0.00  0.00    +0.000 A 
ATOM     20  C   UNL     1      49.600   2.088  17.015  0.00  0.00    +0.000 A 
ATOM     21  C   UNL     1      48.659   3.092  16.761  0.00  0.00    +0.000 A 
ATOM     22  C   UNL     1      49.058   4.418  16.871  0.00  0.00    +0.000 A 
ATOM     23  N   UNL     1      50.309   4.789  17.222  0.00  0.00    +0.000 NA
ATOM     24  C   UNL     1      51.197   3.801  17.474  0.00  0.00    +0.000 A 
BRANCH  19  26
ATOM     25  N   UNL     1      51.601   0.239  18.111  0.00  0.00    +0.000 N 
ATOM     26  C   UNL     1      51.973   1.478  17.673  0.00  0.00    +0.000 C 
ATOM     27  O   UNL     1      53.151   1.759  17.497  0.00  0.00    +0.000 OA
ATOM     28  H   UNL     1      52.347  -0.441  18.195  0.00  0.00    +0.000 HD
ATOM     29  H   UNL     1      50.659  -0.113  18.022  0.00  0.00    +0.000 HD
ENDBRANCH  19  26
ENDBRANCH  18  22
ENDBRANCH  17  18
ENDBRANCH   1  17
TORSDOF 6
ENDMDL
MODEL 6
REMARK VINA RESULT:    -7.379      4.591      8.194
REMARK INTER + INTRA:         -10.920
REMARK INTER:                 -10.310
REMARK INTRA:                  -0.610
REMARK UNBOUND:                -0.953
REMARK  Name = 
REMARK  6 active torsions:
REMARK  status: ('A' for Active; 'I' for Inactive)
REMARK    1  A    between atoms: C_2  and  C_4
REMARK    2  A    between atoms: C_7  and  O_8
REMARK    3  A    between atoms: O_8  and  C_9
REMARK    4  A    between atoms: C_9  and  C_10
REMARK    5  A    between atoms: C_14  and  C_15
REMARK    6  A    between atoms: C_19  and  C_20
REMARK                            x       y       z     vdW  Elec       q    Type
REMARK                         _______ _______ _______ _____ _____    ______ ____
ROOT
ATOM      1  C   UNL     1      46.336   7.401  12.026  0.00  0.00    +0.000 A 
ATOM      2  C   UNL     1      45.109   8.050  12.148  0.00  0.00    +0.000 A 
ATOM      3  C   UNL     1      44.010   7.503  11.509  0.00  0.00    +0.000 A 
ATOM      4  N   UNL     1      44.053   6.374  10.767  0.00  0.00    +0.000 NA
ATOM      5  C   UNL     1      45.250   5.752  10.627  0.00  0.00    +0.000 A 
ATOM      6  C   UNL     1      46.405   6.248  11.236  0.00  0.00    +0.000 A 
ENDROOT
BRANCH   5   7
ATOM      7  C   UNL     1      45.238   4.488   9.859  0.00  0.00    +0.000 A 
ATOM      8  C   UNL     1      44.445   3.391  10.238  0.00  0.00    +0.000 A 
ATOM      9  C   UNL     1      44.400   2.225   9.469  0.00  0.00    +0.000 A 
ATOM     10  C   UNL     1      45.148   2.128   8.299  0.00  0.00    +0.000 A 
ATOM     11  C   UNL     1      45.959   3.195   7.891  0.00  0.00    +0.000 A 
ATOM     12  C   UNL     1      46.006   4.356   8.685  0.00  0.00    +0.000 A 
BRANCH  11  13
ATOM     13  C   UNL     1      46.757   3.125   6.613  0.00  0.00    +0.000 C 
ATOM     14  F   UNL     1      46.810   4.311   5.942  0.00  0.00    +0.000 F 
ATOM     15  F   UNL     1      48.053   2.765   6.826  0.00  0.00    +0.000 F 
ATOM     16  F   UNL     1      46.257   2.220   5.726  0.00  0.00    +0.000 F 
ENDBRANCH  11  13
ENDBRANCH   5   7
BRANCH   1  17
ATOM     17  C   UNL     1      47.554   7.902  12.758  0.00  0.00    +0.000 C 
BRANCH  17  18
ATOM     18  O   UNL     1      48.476   6.829  12.961  0.00  0.00    +0.000 OA
BRANCH  18  22
ATOM     19  C   UNL     1      47.640   4.770  16.435  0.00  0.00    +0.000 A 
ATOM     20  C   UNL     1      48.432   5.918  16.489  0.00  0.00    +0.000 A 
ATOM     21  C   UNL     1      48.714   6.608  15.305  0.00  0.00    +0.000 A 
ATOM     22  C   UNL     1      48.188   6.124  14.114  0.00  0.00    +0.000 A 
ATOM     23  N   UNL     1      47.424   5.013  14.039  0.00  0.00    +0.000 NA
ATOM     24  C   UNL     1      47.176   4.356  15.194  0.00  0.00    +0.000 A 
BRANCH  19  26
ATOM     25  N   UNL     1      47.614   4.450  18.846  0.00  0.00    +0.000 N 
ATOM     26  C   UNL     1      47.285   3.957  17.616  0.00  0.00    +0.000 C 
ATOM     27  O   UNL     1      46.681   2.898  17.500  0.00  0.00    +0.000 OA
ATOM     28  H   UNL     1      47.255   3.931  19.640  0.00  0.00    +0.000 HD
ATOM     29  H   UNL     1      47.870   5.414  18.999  0.00  0.00    +0.000 HD
ENDBRANCH  19  26
ENDBRANCH  18  22
ENDBRANCH  17  18
ENDBRANCH   1  17
TORSDOF 6
ENDMDL
MODEL 7
REMARK VINA RESULT:    -7.238      4.580      8.523
REMARK INTER + INTRA:         -10.730
REMARK INTER:                  -9.763
REMARK INTRA:                  -0.967
REMARK UNBOUND:                -0.953
REMARK  Name = 
REMARK  6 active torsions:
REMARK  status: ('A' for Active; 'I' for Inactive)
REMARK    1  A    between atoms: C_2  and  C_4
REMARK    2  A    between atoms: C_7  and  O_8
REMARK    3  A    between atoms: O_8  and  C_9
REMARK    4  A    between atoms: C_9  and  C_10
REMARK    5  A    between atoms: C_14  and  C_15
REMARK    6  A    between atoms: C_19  and  C_20
REMARK                            x       y       z     vdW  Elec       q    Type
REMARK                         _______ _______ _______ _____ _____    ______ ____
ROOT
ATOM      1  C   UNL     1      47.293   7.665  13.422  0.00  0.00    +0.000 A 
ATOM      2  C   UNL     1      46.601   8.813  13.040  0.00  0.00    +0.000 A 
ATOM      3  C   UNL     1      45.426   8.664  12.324  0.00  0.00    +0.000 A 
ATOM      4  N   UNL     1      44.906   7.468  11.967  0.00  0.00    +0.000 NA
ATOM      5  C   UNL     1      45.588   6.349  12.317  0.00  0.00    +0.000 A 
ATOM      6  C   UNL     1      46.785   6.420  13.034  0.00  0.00    +0.000 A 
ENDROOT
BRANCH   5   7
ATOM      7  C   UNL     1      44.952   5.064  11.960  0.00  0.00    +0.000 A 
ATOM      8  C   UNL     1      44.029   4.426  12.808  0.00  0.00    +0.000 A 
ATOM      9  C   UNL     1      43.392   3.241  12.430  0.00  0.00    +0.000 A 
ATOM     10  C   UNL     1      43.662   2.664  11.192  0.00  0.00    +0.000 A 
ATOM     11  C   UNL     1      44.583   3.262  10.323  0.00  0.00    +0.000 A 
ATOM     12  C   UNL     1      45.228   4.446  10.725  0.00  0.00    +0.000 A 
BRANCH  11  13
ATOM     13  C   UNL     1      44.872   2.672   8.965  0.00  0.00    +0.000 C 
ATOM     14  F   UNL     1      44.263   3.339   7.943  0.00  0.00    +0.000 F 
ATOM     15  F   UNL     1      46.201   2.676   8.666  0.00  0.00    +0.000 F 
ATOM     16  F   UNL     1      44.467   1.376   8.854  0.00  0.00    +0.000 F 
ENDBRANCH  11  13
ENDBRANCH   5   7
BRANCH   1  17
ATOM     17  C   UNL     1      48.537   7.756  14.266  0.00  0.00    +0.000 C 
BRANCH  17  18
ATOM     18  O   UNL     1      48.997   6.444  14.599  0.00  0.00    +0.000 OA
BRANCH  18  22
ATOM     19  C   UNL     1      48.367   5.643  18.595  0.00  0.00    +0.000 A 
ATOM     20  C   UNL     1      48.681   6.943  18.194  0.00  0.00    +0.000 A 
ATOM     21  C   UNL     1      48.897   7.204  16.837  0.00  0.00    +0.000 A 
ATOM     22  C   UNL     1      48.785   6.156  15.934  0.00  0.00    +0.000 A 
ATOM     23  N   UNL     1      48.489   4.890  16.300  0.00  0.00    +0.000 NA
ATOM     24  C   UNL     1      48.297   4.659  17.619  0.00  0.00    +0.000 A 
BRANCH  19  26
ATOM     25  N   UNL     1      48.505   3.989  20.373  0.00  0.00    +0.000 N 
ATOM     26  C   UNL     1      48.128   5.247  19.998  0.00  0.00    +0.000 C 
ATOM     27  O   UNL     1      47.649   6.030  20.807  0.00  0.00    +0.000 OA
ATOM     28  H   UNL     1      48.439   3.786  21.364  0.00  0.00    +0.000 HD
ATOM     29  H   UNL     1      49.128   3.416  19.822  0.00  0.00    +0.000 HD
ENDBRANCH  19  26
ENDBRANCH  18  22
ENDBRANCH  17  18
ENDBRANCH   1  17
TORSDOF 6
ENDMDL
MODEL 8
REMARK VINA RESULT:    -6.565      4.983      8.280
REMARK INTER + INTRA:          -9.821
REMARK INTER:                  -8.886
REMARK INTRA:                  -0.935
REMARK UNBOUND:                -0.953
REMARK  Name = 
REMARK  6 active torsions:
REMARK  status: ('A' for Active; 'I' for Inactive)
REMARK    1  A    between atoms: C_2  and  C_4
REMARK    2  A    between atoms: C_7  and  O_8
REMARK    3  A    between atoms: O_8  and  C_9
REMARK    4  A    between atoms: C_9  and  C_10
REMARK    5  A    between atoms: C_14  and  C_15
REMARK    6  A    between atoms: C_19  and  C_20
REMARK                            x       y       z     vdW  Elec       q    Type
REMARK                         _______ _______ _______ _____ _____    ______ ____
ROOT
ATOM      1  C   UNL     1      48.523   5.920  15.879  0.00  0.00    +0.000 A 
ATOM      2  C   UNL     1      49.313   7.056  15.709  0.00  0.00    +0.000 A 
ATOM      3  C   UNL     1      49.154   7.798  14.551  0.00  0.00    +0.000 A 
ATOM      4  N   UNL     1      48.279   7.488  13.569  0.00  0.00    +0.000 NA
ATOM      5  C   UNL     1      47.525   6.370  13.721  0.00  0.00    +0.000 A 
ATOM      6  C   UNL     1      47.633   5.567  14.858  0.00  0.00    +0.000 A 
ENDROOT
BRANCH   5   7
ATOM      7  C   UNL     1      46.539   6.104  12.652  0.00  0.00    +0.000 A 
ATOM      8  C   UNL     1      46.821   6.352  11.297  0.00  0.00    +0.000 A 
ATOM      9  C   UNL     1      45.900   6.040  10.293  0.00  0.00    +0.000 A 
ATOM     10  C   UNL     1      44.674   5.469  10.620  0.00  0.00    +0.000 A 
ATOM     11  C   UNL     1      44.349   5.215  11.958  0.00  0.00    +0.000 A 
ATOM     12  C   UNL     1      45.281   5.550  12.959  0.00  0.00    +0.000 A 
BRANCH  11  13
ATOM     13  C   UNL     1      43.039   4.571  12.336  0.00  0.00    +0.000 C 
ATOM     14  F   UNL     1      42.788   4.597  13.677  0.00  0.00    +0.000 F 
ATOM     15  F   UNL     1      41.971   5.181  11.751  0.00  0.00    +0.000 F 
ATOM     16  F   UNL     1      42.968   3.261  11.971  0.00  0.00    +0.000 F 
ENDBRANCH  11  13
ENDBRANCH   5   7
BRANCH   1  17
ATOM     17  C   UNL     1      48.593   5.112  17.149  0.00  0.00    +0.000 C 
BRANCH  17  18
ATOM     18  O   UNL     1      49.864   5.297  17.775  0.00  0.00    +0.000 OA
BRANCH  18  22
ATOM     19  C   UNL     1      52.072   1.816  17.651  0.00  0.00    +0.000 A 
ATOM     20  C   UNL     1      50.719   1.787  17.305  0.00  0.00    +0.000 A 
ATOM     21  C   UNL     1      49.978   2.972  17.354  0.00  0.00    +0.000 A 
ATOM     22  C   UNL     1      50.619   4.140  17.742  0.00  0.00    +0.000 A 
ATOM     23  N   UNL     1      51.924   4.190  18.086  0.00  0.00    +0.000 NA
ATOM     24  C   UNL     1      52.618   3.030  18.043  0.00  0.00    +0.000 A 
BRANCH  19  26
ATOM     25  N   UNL     1      52.567  -0.446  18.398  0.00  0.00    +0.000 N 
ATOM     26  C   UNL     1      52.950   0.628  17.646  0.00  0.00    +0.000 C 
ATOM     27  O   UNL     1      53.964   0.591  16.962  0.00  0.00    +0.000 OA
ATOM     28  H   UNL     1      53.124  -1.285  18.284  0.00  0.00    +0.000 HD
ATOM     29  H   UNL     1      51.631  -0.554  18.760  0.00  0.00    +0.000 HD
ENDBRANCH  19  26
ENDBRANCH  18  22
ENDBRANCH  17  18
ENDBRANCH   1  17
TORSDOF 6
ENDMDL
MODEL 9
REMARK VINA RESULT:    -6.425      5.110      7.944
REMARK INTER + INTRA:          -9.632
REMARK INTER:                  -8.629
REMARK INTRA:                  -1.003
REMARK UNBOUND:                -0.953
REMARK  Name = 
REMARK  6 active torsions:
REMARK  status: ('A' for Active; 'I' for Inactive)
REMARK    1  A    between atoms: C_2  and  C_4
REMARK    2  A    between atoms: C_7  and  O_8
REMARK    3  A    between atoms: O_8  and  C_9
REMARK    4  A    between atoms: C_9  and  C_10
REMARK    5  A    between atoms: C_14  and  C_15
REMARK    6  A    between atoms: C_19  and  C_20
REMARK                            x       y       z     vdW  Elec       q    Type
REMARK                         _______ _______ _______ _____ _____    ______ ____
ROOT
ATOM      1  C   UNL     1      46.451   4.886  13.654  0.00  0.00    +0.000 A 
ATOM      2  C   UNL     1      45.115   5.030  13.285  0.00  0.00    +0.000 A 
ATOM      3  C   UNL     1      44.748   6.161  12.577  0.00  0.00    +0.000 A 
ATOM      4  N   UNL     1      45.607   7.141  12.221  0.00  0.00    +0.000 NA
ATOM      5  C   UNL     1      46.904   7.016  12.598  0.00  0.00    +0.000 A 
ATOM      6  C   UNL     1      47.349   5.907  13.320  0.00  0.00    +0.000 A 
ENDROOT
BRANCH   5   7
ATOM      7  C   UNL     1      47.820   8.080  12.135  0.00  0.00    +0.000 A 
ATOM      8  C   UNL     1      47.439   9.433  12.108  0.00  0.00    +0.000 A 
ATOM      9  C   UNL     1      48.335  10.435  11.723  0.00  0.00    +0.000 A 
ATOM     10  C   UNL     1      49.636  10.106  11.356  0.00  0.00    +0.000 A 
ATOM     11  C   UNL     1      50.053   8.769  11.359  0.00  0.00    +0.000 A 
ATOM     12  C   UNL     1      49.134   7.771  11.733  0.00  0.00    +0.000 A 
BRANCH  11  13
ATOM     13  C   UNL     1      51.466   8.390  10.992  0.00  0.00    +0.000 C 
ATOM     14  F   UNL     1      52.029   9.221  10.069  0.00  0.00    +0.000 F 
ATOM     15  F   UNL     1      52.306   8.410  12.064  0.00  0.00    +0.000 F 
ATOM     16  F   UNL     1      51.559   7.137  10.467  0.00  0.00    +0.000 F 
ENDBRANCH  11  13
ENDBRANCH   5   7
BRANCH   1  17
ATOM     17  C   UNL     1      46.930   3.644  14.360  0.00  0.00    +0.000 C 
BRANCH  17  18
ATOM     18  O   UNL     1      46.804   3.809  15.774  0.00  0.00    +0.000 OA
BRANCH  18  22
ATOM     19  C   UNL     1      50.479   3.617  17.637  0.00  0.00    +0.000 A 
ATOM     20  C   UNL     1      49.813   2.436  17.304  0.00  0.00    +0.000 A 
ATOM     21  C   UNL     1      48.566   2.511  16.675  0.00  0.00    +0.000 A 
ATOM     22  C   UNL     1      48.035   3.764  16.402  0.00  0.00    +0.000 A 
ATOM     23  N   UNL     1      48.658   4.919  16.721  0.00  0.00    +0.000 NA
ATOM     24  C   UNL     1      49.857   4.822  17.338  0.00  0.00    +0.000 A 
BRANCH  19  26
ATOM     25  N   UNL     1      51.825   4.081  19.609  0.00  0.00    +0.000 N 
ATOM     26  C   UNL     1      51.793   3.662  18.310  0.00  0.00    +0.000 C 
ATOM     27  O   UNL     1      52.812   3.298  17.738  0.00  0.00    +0.000 OA
ATOM     28  H   UNL     1      52.718   3.989  20.080  0.00  0.00    +0.000 HD
ATOM     29  H   UNL     1      50.999   4.137  20.187  0.00  0.00    +0.000 HD
ENDBRANCH  19  26
ENDBRANCH  18  22
ENDBRANCH  17  18
ENDBRANCH   1  17
TORSDOF 6
ENDMDL
