MODEL 1
REMARK VINA RESULT:    -7.628      0.000      0.000
REMARK INTER + INTRA:          -9.472
REMARK INTER:                  -9.189
REMARK INTRA:                  -0.283
REMARK UNBOUND:                -0.283
REMARK  Name = 
REMARK  4 active torsions:
REMARK  status: ('A' for Active; 'I' for Inactive)
REMARK    1  A    between atoms: N_1  and  C_2
REMARK    2  A    between atoms: C_2  and  C_3
REMARK    3  A    between atoms: C_7  and  C_8
REMARK    4  A    between atoms: C_8  and  N_9
REMARK                            x       y       z     vdW  Elec       q    Type
REMARK                         _______ _______ _______ _____ _____    ______ ____
ROOT
ATOM      1  C   UNL     1      46.629   2.675   6.709  0.00  0.00    +0.000 A 
ATOM      2  C   UNL     1      46.755   1.373   7.192  0.00  0.00    +0.000 A 
ATOM      3  C   UNL     1      46.049   1.009   8.328  0.00  0.00    +0.000 A 
ATOM      4  N   UNL     1      45.215   1.839   8.992  0.00  0.00    +0.000 NA
ATOM      5  C   UNL     1      45.082   3.104   8.520  0.00  0.00    +0.000 A 
ATOM      6  C   UNL     1      45.778   3.555   7.396  0.00  0.00    +0.000 A 
ENDROOT
BRANCH   1   7
ATOM      7  C   UNL     1      47.312   3.067   5.421  0.00  0.00    +0.000 C 
BRANCH   7   8
ATOM      8  N   UNL     1      48.420   2.189   5.070  0.00  0.00    +0.000 NA
ATOM      9  H   UNL     1      49.286   2.587   5.430  0.00  0.00    +0.000 HD
ATOM     10  H   UNL     1      48.518   2.174   4.053  0.00  0.00    +0.000 HD
ENDBRANCH   7   8
ENDBRANCH   1   7
BRANCH   5  11
ATOM     11  C   UNL     1      44.116   4.008   9.242  0.00  0.00    +0.000 C 
BRANCH  11  12
ATOM     12  N   UNL     1      44.359   4.026  10.672  0.00  0.00    +0.000 N 
ATOM     13  C   UNL     1      43.737   3.216  11.583  0.00  0.00    +0.000 A 
ATOM     14  N   UNL     1      44.171   3.432  12.803  0.00  0.00    +0.000 NA
ATOM     15  C   UNL     1      45.101   4.435  12.680  0.00  0.00    +0.000 A 
ATOM     16  C   UNL     1      45.896   5.037  13.668  0.00  0.00    +0.000 A 
ATOM     17  C   UNL     1      46.776   6.060  13.295  0.00  0.00    +0.000 A 
ATOM     18  C   UNL     1      46.845   6.493  11.970  0.00  0.00    +0.000 A 
ATOM     19  C   UNL     1      46.062   5.904  10.970  0.00  0.00    +0.000 A 
ATOM     20  C   UNL     1      45.213   4.858  11.355  0.00  0.00    +0.000 A 
ENDBRANCH  11  12
ENDBRANCH   5  11
TORSDOF 4
ENDMDL
MODEL 2
REMARK VINA RESULT:    -7.554      1.701      6.151
REMARK INTER + INTRA:          -9.382
REMARK INTER:                  -9.087
REMARK INTRA:                  -0.295
REMARK UNBOUND:                -0.283
REMARK  Name = 
REMARK  4 active torsions:
REMARK  status: ('A' for Active; 'I' for Inactive)
REMARK    1  A    between atoms: N_1  and  C_2
REMARK    2  A    between atoms: C_2  and  C_3
REMARK    3  A    between atoms: C_7  and  C_8
REMARK    4  A    between atoms: C_8  and  N_9
REMARK                            x       y       z     vdW  Elec       q    Type
REMARK                         _______ _______ _______ _____ _____    ______ ____
ROOT
ATOM      1  C   UNL     1      45.332   4.559  13.164  0.00  0.00    +0.000 A 
ATOM      2  C   UNL     1      44.153   5.239  13.463  0.00  0.00    +0.000 A 
ATOM      3  C   UNL     1      43.060   5.087  12.623  0.00  0.00    +0.000 A 
ATOM      4  N   UNL     1      43.058   4.291  11.532  0.00  0.00    +0.000 NA
ATOM      5  C   UNL     1      44.201   3.620  11.243  0.00  0.00    +0.000 A 
ATOM      6  C   UNL     1      45.352   3.739  12.025  0.00  0.00    +0.000 A 
ENDROOT
BRANCH   1   7
ATOM      7  C   UNL     1      46.503   4.632  14.115  0.00  0.00    +0.000 C 
BRANCH   7   8
ATOM      8  N   UNL     1      47.225   3.371  14.233  0.00  0.00    +0.000 NA
ATOM      9  H   UNL     1      46.596   2.606  13.993  0.00  0.00    +0.000 HD
ATOM     10  H   UNL     1      47.481   3.230  15.212  0.00  0.00    +0.000 HD
ENDBRANCH   7   8
ENDBRANCH   1   7
BRANCH   5  11
ATOM     11  C   UNL     1      44.173   2.701  10.048  0.00  0.00    +0.000 C 
BRANCH  11  12
ATOM     12  N   UNL     1      45.079   3.143   9.005  0.00  0.00    +0.000 N 
ATOM     13  C   UNL     1      45.245   4.442   8.610  0.00  0.00    +0.000 A 
ATOM     14  N   UNL     1      46.150   4.553   7.664  0.00  0.00    +0.000 NA
ATOM     15  C   UNL     1      46.576   3.269   7.426  0.00  0.00    +0.000 A 
ATOM     16  C   UNL     1      47.555   2.810   6.532  0.00  0.00    +0.000 A 
ATOM     17  C   UNL     1      47.812   1.436   6.460  0.00  0.00    +0.000 A 
ATOM     18  C   UNL     1      47.090   0.534   7.244  0.00  0.00    +0.000 A 
ATOM     19  C   UNL     1      46.110   0.973   8.143  0.00  0.00    +0.000 A 
ATOM     20  C   UNL     1      45.892   2.355   8.227  0.00  0.00    +0.000 A 
ENDBRANCH  11  12
ENDBRANCH   5  11
TORSDOF 4
ENDMDL
MODEL 3
REMARK VINA RESULT:    -6.800      2.472      6.011
REMARK INTER + INTRA:          -8.474
REMARK INTER:                  -8.147
REMARK INTRA:                  -0.327
REMARK UNBOUND:                -0.283
REMARK  Name = 
REMARK  4 active torsions:
REMARK  status: ('A' for Active; 'I' for Inactive)
REMARK    1  A    between atoms: N_1  and  C_2
REMARK    2  A    between atoms: C_2  and  C_3
REMARK    3  A    between atoms: C_7  and  C_8
REMARK    4  A    between atoms: C_8  and  N_9
REMARK                            x       y       z     vdW  Elec       q    Type
REMARK                         _______ _______ _______ _____ _____    ______ ____
ROOT
ATOM      1  C   UNL     1      47.162   5.391  14.341  0.00  0.00    +0.000 A 
ATOM      2  C   UNL     1      47.922   6.546  14.164  0.00  0.00    +0.000 A 
ATOM      3  C   UNL     1      47.498   7.492  13.243  0.00  0.00    +0.000 A 
ATOM      4  N   UNL     1      46.367   7.376  12.514  0.00  0.00    +0.000 NA
ATOM      5  C   UNL     1      45.619   6.258  12.691  0.00  0.00    +0.000 A 
ATOM      6  C   UNL     1      45.990   5.247  13.581  0.00  0.00    +0.000 A 
ENDROOT
BRANCH   1   7
ATOM      7  C   UNL     1      47.549   4.393  15.406  0.00  0.00    +0.000 C 
BRANCH   7   8
ATOM      8  N   UNL     1      47.613   3.023  14.910  0.00  0.00    +0.000 NA
ATOM      9  H   UNL     1      48.497   2.608  15.197  0.00  0.00    +0.000 HD
ATOM     10  H   UNL     1      47.628   3.044  13.889  0.00  0.00    +0.000 HD
ENDBRANCH   7   8
ENDBRANCH   1   7
BRANCH   5  11
ATOM     11  C   UNL     1      44.336   6.159  11.905  0.00  0.00    +0.000 C 
BRANCH  11  12
ATOM     12  N   UNL     1      44.173   4.851  11.300  0.00  0.00    +0.000 N 
ATOM     13  C   UNL     1      43.410   3.839  11.817  0.00  0.00    +0.000 A 
ATOM     14  N   UNL     1      43.424   2.776  11.046  0.00  0.00    +0.000 NA
ATOM     15  C   UNL     1      44.243   3.107   9.995  0.00  0.00    +0.000 A 
ATOM     16  C   UNL     1      44.589   2.350   8.865  0.00  0.00    +0.000 A 
ATOM     17  C   UNL     1      45.460   2.907   7.921  0.00  0.00    +0.000 A 
ATOM     18  C   UNL     1      45.997   4.181   8.111  0.00  0.00    +0.000 A 
ATOM     19  C   UNL     1      45.662   4.952   9.231  0.00  0.00    +0.000 A 
ATOM     20  C   UNL     1      44.761   4.393  10.146  0.00  0.00    +0.000 A 
ENDBRANCH  11  12
ENDBRANCH   5  11
TORSDOF 4
ENDMDL
MODEL 4
REMARK VINA RESULT:    -6.755      1.791      5.757
REMARK INTER + INTRA:          -8.420
REMARK INTER:                  -8.022
REMARK INTRA:                  -0.398
REMARK UNBOUND:                -0.283
REMARK  Name = 
REMARK  4 active torsions:
REMARK  status: ('A' for Active; 'I' for Inactive)
REMARK    1  A    between atoms: N_1  and  C_2
REMARK    2  A    between atoms: C_2  and  C_3
REMARK    3  A    between atoms: C_7  and  C_8
REMARK    4  A    between atoms: C_8  and  N_9
REMARK                            x       y       z     vdW  Elec       q    Type
REMARK                         _______ _______ _______ _____ _____    ______ ____
ROOT
ATOM      1  C   UNL     1      46.329   5.329  13.080  0.00  0.00    +0.000 A 
ATOM      2  C   UNL     1      46.532   6.693  12.879  0.00  0.00    +0.000 A 
ATOM      3  C   UNL     1      45.912   7.312  11.804  0.00  0.00    +0.000 A 
ATOM      4  N   UNL     1      45.091   6.672  10.942  0.00  0.00    +0.000 NA
ATOM      5  C   UNL     1      44.884   5.347  11.140  0.00  0.00    +0.000 A 
ATOM      6  C   UNL     1      45.491   4.646  12.184  0.00  0.00    +0.000 A 
ENDROOT
BRANCH   1   7
ATOM      7  C   UNL     1      46.915   4.654  14.297  0.00  0.00    +0.000 C 
BRANCH   7   8
ATOM      8  N   UNL     1      47.230   3.248  14.076  0.00  0.00    +0.000 NA
ATOM      9  H   UNL     1      47.643   2.863  14.924  0.00  0.00    +0.000 HD
ATOM     10  H   UNL     1      47.951   3.182  13.355  0.00  0.00    +0.000 HD
ENDBRANCH   7   8
ENDBRANCH   1   7
BRANCH   5  11
ATOM     11  C   UNL     1      43.932   4.654  10.198  0.00  0.00    +0.000 C 
BRANCH  11  12
ATOM     12  N   UNL     1      44.535   3.485   9.585  0.00  0.00    +0.000 N 
ATOM     13  C   UNL     1      44.228   2.189   9.900  0.00  0.00    +0.000 A 
ATOM     14  N   UNL     1      44.909   1.336   9.168  0.00  0.00    +0.000 NA
ATOM     15  C   UNL     1      45.701   2.112   8.358  0.00  0.00    +0.000 A 
ATOM     16  C   UNL     1      46.608   1.719   7.362  0.00  0.00    +0.000 A 
ATOM     17  C   UNL     1      47.316   2.706   6.667  0.00  0.00    +0.000 A 
ATOM     18  C   UNL     1      47.145   4.056   6.975  0.00  0.00    +0.000 A 
ATOM     19  C   UNL     1      46.243   4.469   7.964  0.00  0.00    +0.000 A 
ATOM     20  C   UNL     1      45.518   3.469   8.624  0.00  0.00    +0.000 A 
ENDBRANCH  11  12
ENDBRANCH   5  11
TORSDOF 4
ENDMDL
MODEL 5
REMARK VINA RESULT:    -6.739      1.314      1.729
REMARK INTER + INTRA:          -8.401
REMARK INTER:                  -7.983
REMARK INTRA:                  -0.419
REMARK UNBOUND:                -0.283
REMARK  Name = 
REMARK  4 active torsions:
REMARK  status: ('A' for Active; 'I' for Inactive)
REMARK    1  A    between atoms: N_1  and  C_2
REMARK    2  A    between atoms: C_2  and  C_3
REMARK    3  A    between atoms: C_7  and  C_8
REMARK    4  A    between atoms: C_8  and  N_9
REMARK                            x       y       z     vdW  Elec       q    Type
REMARK                         _______ _______ _______ _____ _____    ______ ____
ROOT
ATOM      1  C   UNL     1      46.018   3.254   7.749  0.00  0.00    +0.000 A 
ATOM      2  C   UNL     1      45.529   1.972   7.993  0.00  0.00    +0.000 A 
ATOM      3  C   UNL     1      44.728   1.761   9.105  0.00  0.00    +0.000 A 
ATOM      4  N   UNL     1      44.367   2.738   9.966  0.00  0.00    +0.000 NA
ATOM      5  C   UNL     1      44.833   3.988   9.726  0.00  0.00    +0.000 A 
ATOM      6  C   UNL     1      45.665   4.278   8.642  0.00  0.00    +0.000 A 
ENDROOT
BRANCH   1   7
ATOM      7  C   UNL     1      46.811   3.529   6.494  0.00  0.00    +0.000 C 
BRANCH   7   8
ATOM      8  N   UNL     1      48.139   2.929   6.513  0.00  0.00    +0.000 NA
ATOM      9  H   UNL     1      48.159   2.148   5.859  0.00  0.00    +0.000 HD
ATOM     10  H   UNL     1      48.305   2.528   7.437  0.00  0.00    +0.000 HD
ENDBRANCH   7   8
ENDBRANCH   1   7
BRANCH   5  11
ATOM     11  C   UNL     1      44.388   5.079  10.668  0.00  0.00    +0.000 C 
BRANCH  11  12
ATOM     12  N   UNL     1      45.157   5.078  11.898  0.00  0.00    +0.000 N 
ATOM     13  C   UNL     1      44.862   4.330  13.006  0.00  0.00    +0.000 A 
ATOM     14  N   UNL     1      45.745   4.509  13.962  0.00  0.00    +0.000 NA
ATOM     15  C   UNL     1      46.639   5.421  13.459  0.00  0.00    +0.000 A 
ATOM     16  C   UNL     1      47.797   5.949  14.049  0.00  0.00    +0.000 A 
ATOM     17  C   UNL     1      48.552   6.886  13.333  0.00  0.00    +0.000 A 
ATOM     18  C   UNL     1      48.149   7.307  12.066  0.00  0.00    +0.000 A 
ATOM     19  C   UNL     1      46.997   6.791  11.459  0.00  0.00    +0.000 A 
ATOM     20  C   UNL     1      46.274   5.829  12.176  0.00  0.00    +0.000 A 
ENDBRANCH  11  12
ENDBRANCH   5  11
TORSDOF 4
ENDMDL
MODEL 6
REMARK VINA RESULT:    -6.483      1.584      2.247
REMARK INTER + INTRA:          -8.092
REMARK INTER:                  -7.719
REMARK INTRA:                  -0.373
REMARK UNBOUND:                -0.283
REMARK  Name = 
REMARK  4 active torsions:
REMARK  status: ('A' for Active; 'I' for Inactive)
REMARK    1  A    between atoms: N_1  and  C_2
REMARK    2  A    between atoms: C_2  and  C_3
REMARK    3  A    between atoms: C_7  and  C_8
REMARK    4  A    between atoms: C_8  and  N_9
REMARK                            x       y       z     vdW  Elec       q    Type
REMARK                         _______ _______ _______ _____ _____    ______ ____
ROOT
ATOM      1  C   UNL     1      46.016   3.363   7.891  0.00  0.00    +0.000 A 
ATOM      2  C   UNL     1      45.716   2.019   8.108  0.00  0.00    +0.000 A 
ATOM      3  C   UNL     1      44.836   1.685   9.126  0.00  0.00    +0.000 A 
ATOM      4  N   UNL     1      44.224   2.593   9.917  0.00  0.00    +0.000 NA
ATOM      5  C   UNL     1      44.506   3.902   9.702  0.00  0.00    +0.000 A 
ATOM      6  C   UNL     1      45.400   4.319   8.713  0.00  0.00    +0.000 A 
ENDROOT
BRANCH   1   7
ATOM      7  C   UNL     1      46.894   3.758   6.728  0.00  0.00    +0.000 C 
BRANCH   7   8
ATOM      8  N   UNL     1      48.040   2.875   6.549  0.00  0.00    +0.000 NA
ATOM      9  H   UNL     1      48.743   3.353   5.989  0.00  0.00    +0.000 HD
ATOM     10  H   UNL     1      47.746   2.063   6.002  0.00  0.00    +0.000 HD
ENDBRANCH   7   8
ENDBRANCH   1   7
BRANCH   5  11
ATOM     11  C   UNL     1      43.783   4.909  10.561  0.00  0.00    +0.000 C 
BRANCH  11  12
ATOM     12  N   UNL     1      44.704   5.711  11.344  0.00  0.00    +0.000 N 
ATOM     13  C   UNL     1      44.865   7.064  11.219  0.00  0.00    +0.000 A 
ATOM     14  N   UNL     1      45.748   7.530  12.073  0.00  0.00    +0.000 NA
ATOM     15  C   UNL     1      46.187   6.431  12.769  0.00  0.00    +0.000 A 
ATOM     16  C   UNL     1      47.114   6.357  13.820  0.00  0.00    +0.000 A 
ATOM     17  C   UNL     1      47.411   5.105  14.370  0.00  0.00    +0.000 A 
ATOM     18  C   UNL     1      46.818   3.946  13.867  0.00  0.00    +0.000 A 
ATOM     19  C   UNL     1      45.889   4.000  12.820  0.00  0.00    +0.000 A 
ATOM     20  C   UNL     1      45.578   5.265  12.306  0.00  0.00    +0.000 A 
ENDBRANCH  11  12
ENDBRANCH   5  11
TORSDOF 4
ENDMDL
MODEL 7
REMARK VINA RESULT:    -5.835      2.551      6.191
REMARK INTER + INTRA:          -7.311
REMARK INTER:                  -6.905
REMARK INTRA:                  -0.407
REMARK UNBOUND:                -0.283
REMARK  Name = 
REMARK  4 active torsions:
REMARK  status: ('A' for Active; 'I' for Inactive)
REMARK    1  A    between atoms: N_1  and  C_2
REMARK    2  A    between atoms: C_2  and  C_3
REMARK    3  A    between atoms: C_7  and  C_8
REMARK    4  A    between atoms: C_8  and  N_9
REMARK                            x       y       z     vdW  Elec       q    Type
REMARK                         _______ _______ _______ _____ _____    ______ ____
ROOT
ATOM      1  C   UNL     1      48.219   6.626  14.037  0.00  0.00    +0.000 A 
ATOM      2  C   UNL     1      49.106   7.148  13.098  0.00  0.00    +0.000 A 
ATOM      3  C   UNL     1      48.644   7.419  11.819  0.00  0.00    +0.000 A 
ATOM      4  N   UNL     1      47.365   7.229  11.426  0.00  0.00    +0.000 NA
ATOM      5  C   UNL     1      46.497   6.731  12.341  0.00  0.00    +0.000 A 
ATOM      6  C   UNL     1      46.889   6.409  13.643  0.00  0.00    +0.000 A 
ENDROOT
BRANCH   1   7
ATOM      7  C   UNL     1      48.673   6.414  15.462  0.00  0.00    +0.000 C 
BRANCH   7   8
ATOM      8  N   UNL     1      50.113   6.556  15.631  0.00  0.00    +0.000 NA
ATOM      9  H   UNL     1      50.368   7.533  15.501  0.00  0.00    +0.000 HD
ATOM     10  H   UNL     1      50.584   6.040  14.885  0.00  0.00    +0.000 HD
ENDBRANCH   7   8
ENDBRANCH   1   7
BRANCH   5  11
ATOM     11  C   UNL     1      45.063   6.565  11.906  0.00  0.00    +0.000 C 
BRANCH  11  12
ATOM     12  N   UNL     1      44.759   5.189  11.559  0.00  0.00    +0.000 N 
ATOM     13  C   UNL     1      44.176   4.280  12.399  0.00  0.00    +0.000 A 
ATOM     14  N   UNL     1      43.996   3.119  11.812  0.00  0.00    +0.000 NA
ATOM     15  C   UNL     1      44.498   3.279  10.544  0.00  0.00    +0.000 A 
ATOM     16  C   UNL     1      44.538   2.362   9.482  0.00  0.00    +0.000 A 
ATOM     17  C   UNL     1      45.117   2.758   8.271  0.00  0.00    +0.000 A 
ATOM     18  C   UNL     1      45.669   4.032   8.127  0.00  0.00    +0.000 A 
ATOM     19  C   UNL     1      45.637   4.961   9.174  0.00  0.00    +0.000 A 
ATOM     20  C   UNL     1      45.022   4.559  10.367  0.00  0.00    +0.000 A 
ENDBRANCH  11  12
ENDBRANCH   5  11
TORSDOF 4
ENDMDL
MODEL 8
REMARK VINA RESULT:    -5.799      1.375      2.190
REMARK INTER + INTRA:          -7.269
REMARK INTER:                  -6.872
REMARK INTRA:                  -0.396
REMARK UNBOUND:                -0.283
REMARK  Name = 
REMARK  4 active torsions:
REMARK  status: ('A' for Active; 'I' for Inactive)
REMARK    1  A    between atoms: N_1  and  C_2
REMARK    2  A    between atoms: C_2  and  C_3
REMARK    3  A    between atoms: C_7  and  C_8
REMARK    4  A    between atoms: C_8  and  N_9
REMARK                            x       y       z     vdW  Elec       q    Type
REMARK                         _______ _______ _______ _____ _____    ______ ____
ROOT
ATOM      1  C   UNL     1      47.511   2.045   6.994  0.00  0.00    +0.000 A 
ATOM      2  C   UNL     1      47.147   0.797   7.497  0.00  0.00    +0.000 A 
ATOM      3  C   UNL     1      46.020   0.700   8.299  0.00  0.00    +0.000 A 
ATOM      4  N   UNL     1      45.227   1.749   8.608  0.00  0.00    +0.000 NA
ATOM      5  C   UNL     1      45.573   2.963   8.113  0.00  0.00    +0.000 A 
ATOM      6  C   UNL     1      46.706   3.148   7.318  0.00  0.00    +0.000 A 
ENDROOT
BRANCH   1   7
ATOM      7  C   UNL     1      48.677   2.160   6.041  0.00  0.00    +0.000 C 
BRANCH   7   8
ATOM      8  N   UNL     1      48.271   2.448   4.672  0.00  0.00    +0.000 NA
ATOM      9  H   UNL     1      48.779   1.833   4.039  0.00  0.00    +0.000 HD
ATOM     10  H   UNL     1      48.562   3.399   4.436  0.00  0.00    +0.000 HD
ENDBRANCH   7   8
ENDBRANCH   1   7
BRANCH   5  11
ATOM     11  C   UNL     1      44.656   4.118   8.428  0.00  0.00    +0.000 C 
BRANCH  11  12
ATOM     12  N   UNL     1      45.014   4.767   9.675  0.00  0.00    +0.000 N 
ATOM     13  C   UNL     1      45.907   5.796   9.795  0.00  0.00    +0.000 A 
ATOM     14  N   UNL     1      46.016   6.205  11.039  0.00  0.00    +0.000 NA
ATOM     15  C   UNL     1      45.171   5.395  11.756  0.00  0.00    +0.000 A 
ATOM     16  C   UNL     1      44.877   5.411  13.128  0.00  0.00    +0.000 A 
ATOM     17  C   UNL     1      43.976   4.467  13.636  0.00  0.00    +0.000 A 
ATOM     18  C   UNL     1      43.400   3.510  12.800  0.00  0.00    +0.000 A 
ATOM     19  C   UNL     1      43.679   3.479  11.428  0.00  0.00    +0.000 A 
ATOM     20  C   UNL     1      44.555   4.454  10.932  0.00  0.00    +0.000 A 
ENDBRANCH  11  12
ENDBRANCH   5  11
TORSDOF 4
ENDMDL
MODEL 9
REMARK VINA RESULT:    -5.330      4.439      7.577
REMARK INTER + INTRA:          -6.703
REMARK INTER:                  -6.233
REMARK INTRA:                  -0.470
REMARK UNBOUND:                -0.283
REMARK  Name = 
REMARK  4 active torsions:
REMARK  status: ('A' for Active; 'I' for Inactive)
REMARK    1  A    between atoms: N_1  and  C_2
REMARK    2  A    between atoms: C_2  and  C_3
REMARK    3  A    between atoms: C_7  and  C_8
REMARK    4  A    between atoms: C_8  and  N_9
REMARK                            x       y       z     vdW  Elec       q    Type
REMARK                         _______ _______ _______ _____ _____    ______ ____
ROOT
ATOM      1  C   UNL     1      48.051   5.264  16.952  0.00  0.00    +0.000 A 
ATOM      2  C   UNL     1      48.645   6.455  17.367  0.00  0.00    +0.000 A 
ATOM      3  C   UNL     1      48.995   7.397  16.412  0.00  0.00    +0.000 A 
ATOM      4  N   UNL     1      48.772   7.243  15.088  0.00  0.00    +0.000 NA
ATOM      5  C   UNL     1      48.185   6.090  14.682  0.00  0.00    +0.000 A 
ATOM      6  C   UNL     1      47.825   5.081  15.579  0.00  0.00    +0.000 A 
ENDROOT
BRANCH   1   7
ATOM      7  C   UNL     1      47.574   4.266  17.980  0.00  0.00    +0.000 C 
BRANCH   7   8
ATOM      8  N   UNL     1      46.665   3.268  17.429  0.00  0.00    +0.000 NA
ATOM      9  H   UNL     1      46.278   3.619  16.555  0.00  0.00    +0.000 HD
ATOM     10  H   UNL     1      45.874   3.158  18.066  0.00  0.00    +0.000 HD
ENDBRANCH   7   8
ENDBRANCH   1   7
BRANCH   5  11
ATOM     11  C   UNL     1      47.900   5.947  13.208  0.00  0.00    +0.000 C 
BRANCH  11  12
ATOM     12  N   UNL     1      46.506   6.205  12.901  0.00  0.00    +0.000 N 
ATOM     13  C   UNL     1      45.931   7.445  12.847  0.00  0.00    +0.000 A 
ATOM     14  N   UNL     1      44.661   7.380  12.520  0.00  0.00    +0.000 NA
ATOM     15  C   UNL     1      44.398   6.041  12.371  0.00  0.00    +0.000 A 
ATOM     16  C   UNL     1      43.203   5.405  12.001  0.00  0.00    +0.000 A 
ATOM     17  C   UNL     1      43.177   4.008  11.925  0.00  0.00    +0.000 A 
ATOM     18  C   UNL     1      44.311   3.256  12.238  0.00  0.00    +0.000 A 
ATOM     19  C   UNL     1      45.513   3.872  12.608  0.00  0.00    +0.000 A 
ATOM     20  C   UNL     1      45.529   5.272  12.644  0.00  0.00    +0.000 A 
ENDBRANCH  11  12
ENDBRANCH   5  11
TORSDOF 4
ENDMDL
