MODEL 1
REMARK VINA RESULT:    -8.806      0.000      0.000
REMARK INTER + INTRA:         -13.097
REMARK INTER:                 -12.153
REMARK INTRA:                  -0.944
REMARK UNBOUND:                -0.944
REMARK  Name = 
REMARK  8 active torsions:
REMARK  status: ('A' for Active; 'I' for Inactive)
REMARK    1  A    between atoms: C_1  and  C_2
REMARK    2  A    between atoms: C_4  and  O_5
REMARK    3  A    between atoms: C_7  and  C_8
REMARK    4  A    between atoms: C_12  and  C_13
REMARK    5  A    between atoms: C_13  and  C_14
REMARK    6  A    between atoms: C_14  and  N_15
REMARK    7  A    between atoms: N_15  and  C_16
REMARK    8  A    between atoms: C_19  and  C_20
REMARK                            x       y       z     vdW  Elec       q    Type
REMARK                         _______ _______ _______ _____ _____    ______ ____
ROOT
ATOM      1  C   UNL     1      47.565   5.926  14.123  0.00  0.00    +0.000 A 
ATOM      2  C   UNL     1      48.579   6.545  13.369  0.00  0.00    +0.000 A 
ATOM      3  C   UNL     1      48.328   7.073  12.100  0.00  0.00    +0.000 A 
ATOM      4  C   UNL     1      47.049   7.006  11.557  0.00  0.00    +0.000 A 
ATOM      5  C   UNL     1      46.009   6.409  12.278  0.00  0.00    +0.000 A 
ATOM      6  C   UNL     1      46.280   5.869  13.549  0.00  0.00    +0.000 A 
ENDROOT
BRANCH   1  12
ATOM      7  C   UNL     1      50.302   5.875  18.355  0.00  0.00    +0.000 C 
ATOM      8  C   UNL     1      49.180   5.307  17.535  0.00  0.00    +0.000 A 
ATOM      9  C   UNL     1      48.416   4.237  18.007  0.00  0.00    +0.000 A 
ATOM     10  C   UNL     1      47.381   3.740  17.226  0.00  0.00    +0.000 A 
ATOM     11  C   UNL     1      47.086   4.298  15.983  0.00  0.00    +0.000 A 
ATOM     12  C   UNL     1      47.847   5.362  15.466  0.00  0.00    +0.000 A 
ATOM     13  C   UNL     1      48.894   5.853  16.269  0.00  0.00    +0.000 A 
BRANCH  10  14
ATOM     14  O   UNL     1      46.616   2.691  17.643  0.00  0.00    +0.000 OA
ATOM     15  H   UNL     1      46.792   2.533  18.585  0.00  0.00    +0.000 HD
ENDBRANCH  10  14
ENDBRANCH   1  12
BRANCH   5  16
ATOM     16  C   UNL     1      44.634   6.290  11.665  0.00  0.00    +0.000 C 
BRANCH  16  17
ATOM     17  C   UNL     1      44.188   4.826  11.596  0.00  0.00    +0.000 C 
BRANCH  17  18
ATOM     18  N   UNL     1      43.713   4.482  10.258  0.00  0.00    +0.000 N 
ATOM     19  H   UNL     1      42.727   4.251  10.184  0.00  0.00    +0.000 HD
BRANCH  18  20
ATOM     20  C   UNL     1      44.531   3.772   9.379  0.00  0.00    +0.000 A 
ATOM     21  C   UNL     1      44.702   2.383   9.438  0.00  0.00    +0.000 A 
ATOM     22  C   UNL     1      45.633   1.727   8.623  0.00  0.00    +0.000 A 
ATOM     23  C   UNL     1      46.432   2.453   7.738  0.00  0.00    +0.000 A 
ATOM     24  C   UNL     1      46.287   3.841   7.673  0.00  0.00    +0.000 A 
ATOM     25  C   UNL     1      45.349   4.486   8.492  0.00  0.00    +0.000 A 
BRANCH  23  26
ATOM     26  C   UNL     1      47.442   1.711   6.939  0.00  0.00    +0.000 C 
ATOM     27  N   UNL     1      48.516   2.412   6.468  0.00  0.00    +0.000 N 
ATOM     28  O   UNL     1      47.311   0.521   6.676  0.00  0.00    +0.000 OA
ATOM     29  H   UNL     1      48.540   3.422   6.449  0.00  0.00    +0.000 HD
ATOM     30  H   UNL     1      49.133   1.913   5.841  0.00  0.00    +0.000 HD
ENDBRANCH  23  26
ENDBRANCH  18  20
ENDBRANCH  17  18
ENDBRANCH  16  17
ENDBRANCH   5  16
TORSDOF 7
ENDMDL
MODEL 2
REMARK VINA RESULT:    -8.746      2.884      4.492
REMARK INTER + INTRA:         -13.014
REMARK INTER:                 -11.848
REMARK INTRA:                  -1.166
REMARK UNBOUND:                -0.944
REMARK  Name = 
REMARK  8 active torsions:
REMARK  status: ('A' for Active; 'I' for Inactive)
REMARK    1  A    between atoms: C_1  and  C_2
REMARK    2  A    between atoms: C_4  and  O_5
REMARK    3  A    between atoms: C_7  and  C_8
REMARK    4  A    between atoms: C_12  and  C_13
REMARK    5  A    between atoms: C_13  and  C_14
REMARK    6  A    between atoms: C_14  and  N_15
REMARK    7  A    between atoms: N_15  and  C_16
REMARK    8  A    between atoms: C_19  and  C_20
REMARK                            x       y       z     vdW  Elec       q    Type
REMARK                         _______ _______ _______ _____ _____    ______ ____
ROOT
ATOM      1  C   UNL     1      46.890   6.573  12.631  0.00  0.00    +0.000 A 
ATOM      2  C   UNL     1      47.479   5.501  13.327  0.00  0.00    +0.000 A 
ATOM      3  C   UNL     1      46.740   4.376  13.698  0.00  0.00    +0.000 A 
ATOM      4  C   UNL     1      45.391   4.287  13.371  0.00  0.00    +0.000 A 
ATOM      5  C   UNL     1      44.768   5.326  12.670  0.00  0.00    +0.000 A 
ATOM      6  C   UNL     1      45.522   6.460  12.315  0.00  0.00    +0.000 A 
ENDROOT
BRANCH   1  12
ATOM      7  C   UNL     1      47.164  11.511  11.662  0.00  0.00    +0.000 C 
ATOM      8  C   UNL     1      47.839  10.174  11.756  0.00  0.00    +0.000 A 
ATOM      9  C   UNL     1      49.197  10.033  11.463  0.00  0.00    +0.000 A 
ATOM     10  C   UNL     1      49.793   8.783  11.566  0.00  0.00    +0.000 A 
ATOM     11  C   UNL     1      49.058   7.668  11.967  0.00  0.00    +0.000 A 
ATOM     12  C   UNL     1      47.684   7.767  12.250  0.00  0.00    +0.000 A 
ATOM     13  C   UNL     1      47.096   9.041  12.138  0.00  0.00    +0.000 A 
BRANCH  10  14
ATOM     14  O   UNL     1      51.113   8.597  11.280  0.00  0.00    +0.000 OA
ATOM     15  H   UNL     1      51.287   8.936  10.386  0.00  0.00    +0.000 HD
ENDBRANCH  10  14
ENDBRANCH   1  12
BRANCH   5  16
ATOM     16  C   UNL     1      43.292   5.253  12.363  0.00  0.00    +0.000 C 
BRANCH  16  17
ATOM     17  C   UNL     1      43.022   4.307  11.188  0.00  0.00    +0.000 C 
BRANCH  17  18
ATOM     18  N   UNL     1      43.672   4.782   9.969  0.00  0.00    +0.000 N 
ATOM     19  H   UNL     1      43.084   5.308   9.329  0.00  0.00    +0.000 HD
BRANCH  18  20
ATOM     20  C   UNL     1      44.645   4.004   9.340  0.00  0.00    +0.000 A 
ATOM     21  C   UNL     1      45.554   4.515   8.404  0.00  0.00    +0.000 A 
ATOM     22  C   UNL     1      46.425   3.675   7.700  0.00  0.00    +0.000 A 
ATOM     23  C   UNL     1      46.393   2.295   7.903  0.00  0.00    +0.000 A 
ATOM     24  C   UNL     1      45.485   1.762   8.821  0.00  0.00    +0.000 A 
ATOM     25  C   UNL     1      44.620   2.614   9.523  0.00  0.00    +0.000 A 
BRANCH  23  26
ATOM     26  C   UNL     1      47.302   1.448   7.086  0.00  0.00    +0.000 C 
ATOM     27  N   UNL     1      48.332   2.069   6.436  0.00  0.00    +0.000 N 
ATOM     28  O   UNL     1      47.126   0.242   6.965  0.00  0.00    +0.000 OA
ATOM     29  H   UNL     1      48.369   3.070   6.308  0.00  0.00    +0.000 HD
ATOM     30  H   UNL     1      48.872   1.491   5.804  0.00  0.00    +0.000 HD
ENDBRANCH  23  26
ENDBRANCH  18  20
ENDBRANCH  17  18
ENDBRANCH  16  17
ENDBRANCH   5  16
TORSDOF 7
ENDMDL
MODEL 3
REMARK VINA RESULT:    -8.512      2.929      4.360
REMARK INTER + INTRA:         -12.691
REMARK INTER:                 -11.569
REMARK INTRA:                  -1.122
REMARK UNBOUND:                -0.944
REMARK  Name = 
REMARK  8 active torsions:
REMARK  status: ('A' for Active; 'I' for Inactive)
REMARK    1  A    between atoms: C_1  and  C_2
REMARK    2  A    between atoms: C_4  and  O_5
REMARK    3  A    between atoms: C_7  and  C_8
REMARK    4  A    between atoms: C_12  and  C_13
REMARK    5  A    between atoms: C_13  and  C_14
REMARK    6  A    between atoms: C_14  and  N_15
REMARK    7  A    between atoms: N_15  and  C_16
REMARK    8  A    between atoms: C_19  and  C_20
REMARK                            x       y       z     vdW  Elec       q    Type
REMARK                         _______ _______ _______ _____ _____    ______ ____
ROOT
ATOM      1  C   UNL     1      47.128   6.673  12.686  0.00  0.00    +0.000 A 
ATOM      2  C   UNL     1      47.583   5.702  13.598  0.00  0.00    +0.000 A 
ATOM      3  C   UNL     1      46.745   4.689  14.068  0.00  0.00    +0.000 A 
ATOM      4  C   UNL     1      45.427   4.613  13.627  0.00  0.00    +0.000 A 
ATOM      5  C   UNL     1      44.936   5.551  12.712  0.00  0.00    +0.000 A 
ATOM      6  C   UNL     1      45.789   6.574  12.258  0.00  0.00    +0.000 A 
ENDROOT
BRANCH   1  12
ATOM      7  C   UNL     1      51.630   8.172  10.989  0.00  0.00    +0.000 C 
ATOM      8  C   UNL     1      50.222   8.507  11.386  0.00  0.00    +0.000 A 
ATOM      9  C   UNL     1      49.755   9.823  11.333  0.00  0.00    +0.000 A 
ATOM     10  C   UNL     1      48.445  10.099  11.702  0.00  0.00    +0.000 A 
ATOM     11  C   UNL     1      47.586   9.082  12.116  0.00  0.00    +0.000 A 
ATOM     12  C   UNL     1      48.026   7.749  12.202  0.00  0.00    +0.000 A 
ATOM     13  C   UNL     1      49.358   7.487  11.826  0.00  0.00    +0.000 A 
BRANCH  10  14
ATOM     14  O   UNL     1      47.951  11.369  11.675  0.00  0.00    +0.000 OA
ATOM     15  H   UNL     1      47.144  11.376  11.133  0.00  0.00    +0.000 HD
ENDBRANCH  10  14
ENDBRANCH   1  12
BRANCH   5  16
ATOM     16  C   UNL     1      43.493   5.499  12.275  0.00  0.00    +0.000 C 
BRANCH  16  17
ATOM     17  C   UNL     1      43.378   5.078  10.806  0.00  0.00    +0.000 C 
BRANCH  17  18
ATOM     18  N   UNL     1      43.780   3.686  10.624  0.00  0.00    +0.000 N 
ATOM     19  H   UNL     1      43.946   3.158  11.476  0.00  0.00    +0.000 HD
BRANCH  18  20
ATOM     20  C   UNL     1      44.605   3.322   9.560  0.00  0.00    +0.000 A 
ATOM     21  C   UNL     1      44.980   2.000   9.291  0.00  0.00    +0.000 A 
ATOM     22  C   UNL     1      45.914   1.695   8.294  0.00  0.00    +0.000 A 
ATOM     23  C   UNL     1      46.511   2.713   7.550  0.00  0.00    +0.000 A 
ATOM     24  C   UNL     1      46.162   4.040   7.810  0.00  0.00    +0.000 A 
ATOM     25  C   UNL     1      45.222   4.333   8.809  0.00  0.00    +0.000 A 
BRANCH  23  26
ATOM     26  C   UNL     1      47.537   2.333   6.543  0.00  0.00    +0.000 C 
ATOM     27  N   UNL     1      47.500   2.966   5.332  0.00  0.00    +0.000 N 
ATOM     28  O   UNL     1      48.371   1.464   6.767  0.00  0.00    +0.000 OA
ATOM     29  H   UNL     1      46.699   3.497   5.022  0.00  0.00    +0.000 HD
ATOM     30  H   UNL     1      48.138   2.619   4.629  0.00  0.00    +0.000 HD
ENDBRANCH  23  26
ENDBRANCH  18  20
ENDBRANCH  17  18
ENDBRANCH  16  17
ENDBRANCH   5  16
TORSDOF 7
ENDMDL
MODEL 4
REMARK VINA RESULT:    -8.468      1.412      2.121
REMARK INTER + INTRA:         -12.630
REMARK INTER:                 -11.541
REMARK INTRA:                  -1.089
REMARK UNBOUND:                -0.944
REMARK  Name = 
REMARK  8 active torsions:
REMARK  status: ('A' for Active; 'I' for Inactive)
REMARK    1  A    between atoms: C_1  and  C_2
REMARK    2  A    between atoms: C_4  and  O_5
REMARK    3  A    between atoms: C_7  and  C_8
REMARK    4  A    between atoms: C_12  and  C_13
REMARK    5  A    between atoms: C_13  and  C_14
REMARK    6  A    between atoms: C_14  and  N_15
REMARK    7  A    between atoms: N_15  and  C_16
REMARK    8  A    between atoms: C_19  and  C_20
REMARK                            x       y       z     vdW  Elec       q    Type
REMARK                         _______ _______ _______ _____ _____    ______ ____
ROOT
ATOM      1  C   UNL     1      46.994   5.806  13.786  0.00  0.00    +0.000 A 
ATOM      2  C   UNL     1      47.640   6.551  12.782  0.00  0.00    +0.000 A 
ATOM      3  C   UNL     1      46.993   6.894  11.593  0.00  0.00    +0.000 A 
ATOM      4  C   UNL     1      45.672   6.511  11.382  0.00  0.00    +0.000 A 
ATOM      5  C   UNL     1      44.987   5.779  12.359  0.00  0.00    +0.000 A 
ATOM      6  C   UNL     1      45.657   5.429  13.546  0.00  0.00    +0.000 A 
ENDROOT
BRANCH   1  12
ATOM      7  C   UNL     1      47.523   2.767  17.770  0.00  0.00    +0.000 C 
ATOM      8  C   UNL     1      47.963   3.979  17.003  0.00  0.00    +0.000 A 
ATOM      9  C   UNL     1      49.006   4.783  17.468  0.00  0.00    +0.000 A 
ATOM     10  C   UNL     1      49.393   5.894  16.731  0.00  0.00    +0.000 A 
ATOM     11  C   UNL     1      48.763   6.215  15.529  0.00  0.00    +0.000 A 
ATOM     12  C   UNL     1      47.696   5.441  15.040  0.00  0.00    +0.000 A 
ATOM     13  C   UNL     1      47.315   4.319  15.801  0.00  0.00    +0.000 A 
BRANCH  10  14
ATOM     14  O   UNL     1      50.399   6.713  17.152  0.00  0.00    +0.000 OA
ATOM     15  H   UNL     1      51.144   6.162  17.446  0.00  0.00    +0.000 HD
ENDBRANCH  10  14
ENDBRANCH   1  12
BRANCH   5  16
ATOM     16  C   UNL     1      43.572   5.319  12.107  0.00  0.00    +0.000 C 
BRANCH  16  17
ATOM     17  C   UNL     1      43.368   4.948  10.635  0.00  0.00    +0.000 C 
BRANCH  17  18
ATOM     18  N   UNL     1      43.800   3.578  10.371  0.00  0.00    +0.000 N 
ATOM     19  H   UNL     1      43.809   2.954  11.173  0.00  0.00    +0.000 HD
BRANCH  18  20
ATOM     20  C   UNL     1      44.808   3.322   9.441  0.00  0.00    +0.000 A 
ATOM     21  C   UNL     1      45.350   4.304   8.602  0.00  0.00    +0.000 A 
ATOM     22  C   UNL     1      46.264   3.977   7.593  0.00  0.00    +0.000 A 
ATOM     23  C   UNL     1      46.646   2.651   7.388  0.00  0.00    +0.000 A 
ATOM     24  C   UNL     1      46.108   1.653   8.205  0.00  0.00    +0.000 A 
ATOM     25  C   UNL     1      45.195   1.993   9.214  0.00  0.00    +0.000 A 
BRANCH  23  26
ATOM     26  C   UNL     1      47.576   2.356   6.266  0.00  0.00    +0.000 C 
ATOM     27  N   UNL     1      47.392   3.039   5.096  0.00  0.00    +0.000 N 
ATOM     28  O   UNL     1      48.459   1.512   6.363  0.00  0.00    +0.000 OA
ATOM     29  H   UNL     1      46.546   3.551   4.893  0.00  0.00    +0.000 HD
ATOM     30  H   UNL     1      47.967   2.749   4.316  0.00  0.00    +0.000 HD
ENDBRANCH  23  26
ENDBRANCH  18  20
ENDBRANCH  17  18
ENDBRANCH  16  17
ENDBRANCH   5  16
TORSDOF 7
ENDMDL
MODEL 5
REMARK VINA RESULT:    -8.166      2.297      3.558
REMARK INTER + INTRA:         -12.213
REMARK INTER:                 -11.468
REMARK INTRA:                  -0.745
REMARK UNBOUND:                -0.944
REMARK  Name = 
REMARK  8 active torsions:
REMARK  status: ('A' for Active; 'I' for Inactive)
REMARK    1  A    between atoms: C_1  and  C_2
REMARK    2  A    between atoms: C_4  and  O_5
REMARK    3  A    between atoms: C_7  and  C_8
REMARK    4  A    between atoms: C_12  and  C_13
REMARK    5  A    between atoms: C_13  and  C_14
REMARK    6  A    between atoms: C_14  and  N_15
REMARK    7  A    between atoms: N_15  and  C_16
REMARK    8  A    between atoms: C_19  and  C_20
REMARK                            x       y       z     vdW  Elec       q    Type
REMARK                         _______ _______ _______ _____ _____    ______ ____
ROOT
ATOM      1  C   UNL     1      46.061   6.832  12.425  0.00  0.00    +0.000 A 
ATOM      2  C   UNL     1      45.281   7.746  11.694  0.00  0.00    +0.000 A 
ATOM      3  C   UNL     1      43.963   7.460  11.334  0.00  0.00    +0.000 A 
ATOM      4  C   UNL     1      43.384   6.251  11.707  0.00  0.00    +0.000 A 
ATOM      5  C   UNL     1      44.120   5.317  12.444  0.00  0.00    +0.000 A 
ATOM      6  C   UNL     1      45.452   5.614  12.788  0.00  0.00    +0.000 A 
ENDROOT
BRANCH   1  12
ATOM      7  C   UNL     1      50.523   8.881  11.292  0.00  0.00    +0.000 C 
ATOM      8  C   UNL     1      49.656   8.125  12.256  0.00  0.00    +0.000 A 
ATOM      9  C   UNL     1      50.160   7.687  13.483  0.00  0.00    +0.000 A 
ATOM     10  C   UNL     1      49.330   6.996  14.355  0.00  0.00    +0.000 A 
ATOM     11  C   UNL     1      48.000   6.739  14.029  0.00  0.00    +0.000 A 
ATOM     12  C   UNL     1      47.463   7.145  12.794  0.00  0.00    +0.000 A 
ATOM     13  C   UNL     1      48.319   7.843  11.921  0.00  0.00    +0.000 A 
BRANCH  10  14
ATOM     14  O   UNL     1      49.782   6.542  15.559  0.00  0.00    +0.000 OA
ATOM     15  H   UNL     1      49.809   5.571  15.534  0.00  0.00    +0.000 HD
ENDBRANCH  10  14
ENDBRANCH   1  12
BRANCH   5  16
ATOM     16  C   UNL     1      43.509   3.984  12.803  0.00  0.00    +0.000 C 
BRANCH  16  17
ATOM     17  C   UNL     1      43.678   2.976  11.661  0.00  0.00    +0.000 C 
BRANCH  17  18
ATOM     18  N   UNL     1      43.718   3.650  10.366  0.00  0.00    +0.000 N 
ATOM     19  H   UNL     1      42.817   3.840   9.937  0.00  0.00    +0.000 HD
BRANCH  18  20
ATOM     20  C   UNL     1      44.733   3.364   9.453  0.00  0.00    +0.000 A 
ATOM     21  C   UNL     1      45.315   4.328   8.619  0.00  0.00    +0.000 A 
ATOM     22  C   UNL     1      46.237   3.973   7.627  0.00  0.00    +0.000 A 
ATOM     23  C   UNL     1      46.586   2.636   7.432  0.00  0.00    +0.000 A 
ATOM     24  C   UNL     1      46.008   1.656   8.243  0.00  0.00    +0.000 A 
ATOM     25  C   UNL     1      45.088   2.024   9.236  0.00  0.00    +0.000 A 
BRANCH  23  26
ATOM     26  C   UNL     1      47.526   2.313   6.326  0.00  0.00    +0.000 C 
ATOM     27  N   UNL     1      47.433   3.053   5.181  0.00  0.00    +0.000 N 
ATOM     28  O   UNL     1      48.336   1.399   6.413  0.00  0.00    +0.000 OA
ATOM     29  H   UNL     1      46.637   3.638   4.975  0.00  0.00    +0.000 HD
ATOM     30  H   UNL     1      48.009   2.749   4.407  0.00  0.00    +0.000 HD
ENDBRANCH  23  26
ENDBRANCH  18  20
ENDBRANCH  17  18
ENDBRANCH  16  17
ENDBRANCH   5  16
TORSDOF 7
ENDMDL
MODEL 6
REMARK VINA RESULT:    -7.970      2.365      8.056
REMARK INTER + INTRA:         -11.943
REMARK INTER:                 -10.761
REMARK INTRA:                  -1.182
REMARK UNBOUND:                -0.944
REMARK  Name = 
REMARK  8 active torsions:
REMARK  status: ('A' for Active; 'I' for Inactive)
REMARK    1  A    between atoms: C_1  and  C_2
REMARK    2  A    between atoms: C_4  and  O_5
REMARK    3  A    between atoms: C_7  and  C_8
REMARK    4  A    between atoms: C_12  and  C_13
REMARK    5  A    between atoms: C_13  and  C_14
REMARK    6  A    between atoms: C_14  and  N_15
REMARK    7  A    between atoms: N_15  and  C_16
REMARK    8  A    between atoms: C_19  and  C_20
REMARK                            x       y       z     vdW  Elec       q    Type
REMARK                         _______ _______ _______ _____ _____    ______ ____
ROOT
ATOM      1  C   UNL     1      44.938   3.479   9.678  0.00  0.00    +0.000 A 
ATOM      2  C   UNL     1      43.922   2.833  10.406  0.00  0.00    +0.000 A 
ATOM      3  C   UNL     1      43.230   3.482  11.432  0.00  0.00    +0.000 A 
ATOM      4  C   UNL     1      43.530   4.803  11.749  0.00  0.00    +0.000 A 
ATOM      5  C   UNL     1      44.526   5.487  11.042  0.00  0.00    +0.000 A 
ATOM      6  C   UNL     1      45.223   4.816  10.021  0.00  0.00    +0.000 A 
ENDROOT
BRANCH   1  12
ATOM      7  C   UNL     1      47.206   3.544   5.179  0.00  0.00    +0.000 C 
ATOM      8  C   UNL     1      46.769   2.780   6.394  0.00  0.00    +0.000 A 
ATOM      9  C   UNL     1      47.018   1.410   6.509  0.00  0.00    +0.000 A 
ATOM     10  C   UNL     1      46.607   0.734   7.650  0.00  0.00    +0.000 A 
ATOM     11  C   UNL     1      45.958   1.402   8.686  0.00  0.00    +0.000 A 
ATOM     12  C   UNL     1      45.671   2.776   8.597  0.00  0.00    +0.000 A 
ATOM     13  C   UNL     1      46.093   3.446   7.433  0.00  0.00    +0.000 A 
BRANCH  10  14
ATOM     14  O   UNL     1      46.821  -0.605   7.799  0.00  0.00    +0.000 OA
ATOM     15  H   UNL     1      47.762  -0.749   7.993  0.00  0.00    +0.000 HD
ENDBRANCH  10  14
ENDBRANCH   1  12
BRANCH   5  16
ATOM     16  C   UNL     1      44.887   6.903  11.422  0.00  0.00    +0.000 C 
BRANCH  16  17
ATOM     17  C   UNL     1      46.377   7.019  11.760  0.00  0.00    +0.000 C 
BRANCH  17  18
ATOM     18  N   UNL     1      46.583   7.134  13.201  0.00  0.00    +0.000 N 
ATOM     19  H   UNL     1      46.917   8.035  13.530  0.00  0.00    +0.000 HD
BRANCH  18  20
ATOM     20  C   UNL     1      47.060   6.048  13.935  0.00  0.00    +0.000 A 
ATOM     21  C   UNL     1      46.761   4.715  13.623  0.00  0.00    +0.000 A 
ATOM     22  C   UNL     1      47.151   3.664  14.461  0.00  0.00    +0.000 A 
ATOM     23  C   UNL     1      47.837   3.925  15.648  0.00  0.00    +0.000 A 
ATOM     24  C   UNL     1      48.134   5.247  15.986  0.00  0.00    +0.000 A 
ATOM     25  C   UNL     1      47.741   6.292  15.136  0.00  0.00    +0.000 A 
BRANCH  23  26
ATOM     26  C   UNL     1      48.176   2.774  16.527  0.00  0.00    +0.000 C 
ATOM     27  N   UNL     1      47.645   2.762  17.786  0.00  0.00    +0.000 N 
ATOM     28  O   UNL     1      48.929   1.880  16.159  0.00  0.00    +0.000 OA
ATOM     29  H   UNL     1      47.230   3.580  18.209  0.00  0.00    +0.000 HD
ATOM     30  H   UNL     1      47.972   2.027  18.400  0.00  0.00    +0.000 HD
ENDBRANCH  23  26
ENDBRANCH  18  20
ENDBRANCH  17  18
ENDBRANCH  16  17
ENDBRANCH   5  16
TORSDOF 7
ENDMDL
MODEL 7
REMARK VINA RESULT:    -7.729      3.078      7.637
REMARK INTER + INTRA:         -11.611
REMARK INTER:                 -10.215
REMARK INTRA:                  -1.396
REMARK UNBOUND:                -0.944
REMARK  Name = 
REMARK  8 active torsions:
REMARK  status: ('A' for Active; 'I' for Inactive)
REMARK    1  A    between atoms: C_1  and  C_2
REMARK    2  A    between atoms: C_4  and  O_5
REMARK    3  A    between atoms: C_7  and  C_8
REMARK    4  A    between atoms: C_12  and  C_13
REMARK    5  A    between atoms: C_13  and  C_14
REMARK    6  A    between atoms: C_14  and  N_15
REMARK    7  A    between atoms: N_15  and  C_16
REMARK    8  A    between atoms: C_19  and  C_20
REMARK                            x       y       z     vdW  Elec       q    Type
REMARK                         _______ _______ _______ _____ _____    ______ ____
ROOT
ATOM      1  C   UNL     1      45.914   6.683  11.737  0.00  0.00    +0.000 A 
ATOM      2  C   UNL     1      45.035   7.638  12.281  0.00  0.00    +0.000 A 
ATOM      3  C   UNL     1      45.496   8.864  12.767  0.00  0.00    +0.000 A 
ATOM      4  C   UNL     1      46.852   9.172  12.710  0.00  0.00    +0.000 A 
ATOM      5  C   UNL     1      47.759   8.256  12.166  0.00  0.00    +0.000 A 
ATOM      6  C   UNL     1      47.281   7.020  11.693  0.00  0.00    +0.000 A 
ENDROOT
BRANCH   1  12
ATOM      7  C   UNL     1      45.004   3.543   7.902  0.00  0.00    +0.000 C 
ATOM      8  C   UNL     1      44.944   3.838   9.373  0.00  0.00    +0.000 A 
ATOM      9  C   UNL     1      44.397   2.916  10.268  0.00  0.00    +0.000 A 
ATOM     10  C   UNL     1      44.362   3.216  11.623  0.00  0.00    +0.000 A 
ATOM     11  C   UNL     1      44.873   4.420  12.105  0.00  0.00    +0.000 A 
ATOM     12  C   UNL     1      45.412   5.382  11.232  0.00  0.00    +0.000 A 
ATOM     13  C   UNL     1      45.438   5.062   9.861  0.00  0.00    +0.000 A 
BRANCH  10  14
ATOM     14  O   UNL     1      43.829   2.350  12.531  0.00  0.00    +0.000 OA
ATOM     15  H   UNL     1      44.552   1.965  13.054  0.00  0.00    +0.000 HD
ENDBRANCH  10  14
ENDBRANCH   1  12
BRANCH   5  16
ATOM     16  C   UNL     1      49.235   8.569  12.153  0.00  0.00    +0.000 C 
BRANCH  16  17
ATOM     17  C   UNL     1      50.003   7.645  13.103  0.00  0.00    +0.000 C 
BRANCH  17  18
ATOM     18  N   UNL     1      49.514   7.775  14.474  0.00  0.00    +0.000 N 
ATOM     19  H   UNL     1      49.973   8.480  15.043  0.00  0.00    +0.000 HD
BRANCH  18  20
ATOM     20  C   UNL     1      49.102   6.649  15.186  0.00  0.00    +0.000 A 
ATOM     21  C   UNL     1      47.987   5.879  14.834  0.00  0.00    +0.000 A 
ATOM     22  C   UNL     1      47.532   4.837  15.651  0.00  0.00    +0.000 A 
ATOM     23  C   UNL     1      48.176   4.551  16.855  0.00  0.00    +0.000 A 
ATOM     24  C   UNL     1      49.283   5.315  17.233  0.00  0.00    +0.000 A 
ATOM     25  C   UNL     1      49.731   6.355  16.405  0.00  0.00    +0.000 A 
BRANCH  23  26
ATOM     26  C   UNL     1      47.615   3.470  17.709  0.00  0.00    +0.000 C 
ATOM     27  N   UNL     1      48.276   3.173  18.868  0.00  0.00    +0.000 N 
ATOM     28  O   UNL     1      46.618   2.839  17.380  0.00  0.00    +0.000 OA
ATOM     29  H   UNL     1      49.216   3.489  19.054  0.00  0.00    +0.000 HD
ATOM     30  H   UNL     1      47.938   2.368  19.378  0.00  0.00    +0.000 HD
ENDBRANCH  23  26
ENDBRANCH  18  20
ENDBRANCH  17  18
ENDBRANCH  16  17
ENDBRANCH   5  16
TORSDOF 7
ENDMDL
MODEL 8
REMARK VINA RESULT:    -7.214      4.377      8.020
REMARK INTER + INTRA:         -10.900
REMARK INTER:                  -9.992
REMARK INTRA:                  -0.908
REMARK UNBOUND:                -0.944
REMARK  Name = 
REMARK  8 active torsions:
REMARK  status: ('A' for Active; 'I' for Inactive)
REMARK    1  A    between atoms: C_1  and  C_2
REMARK    2  A    between atoms: C_4  and  O_5
REMARK    3  A    between atoms: C_7  and  C_8
REMARK    4  A    between atoms: C_12  and  C_13
REMARK    5  A    between atoms: C_13  and  C_14
REMARK    6  A    between atoms: C_14  and  N_15
REMARK    7  A    between atoms: N_15  and  C_16
REMARK    8  A    between atoms: C_19  and  C_20
REMARK                            x       y       z     vdW  Elec       q    Type
REMARK                         _______ _______ _______ _____ _____    ______ ____
ROOT
ATOM      1  C   UNL     1      44.775   3.459  10.312  0.00  0.00    +0.000 A 
ATOM      2  C   UNL     1      43.859   2.635  10.991  0.00  0.00    +0.000 A 
ATOM      3  C   UNL     1      43.227   3.053  12.164  0.00  0.00    +0.000 A 
ATOM      4  C   UNL     1      43.487   4.317  12.684  0.00  0.00    +0.000 A 
ATOM      5  C   UNL     1      44.384   5.173  12.035  0.00  0.00    +0.000 A 
ATOM      6  C   UNL     1      45.023   4.732  10.862  0.00  0.00    +0.000 A 
ENDROOT
BRANCH   1  12
ATOM      7  C   UNL     1      46.756  -0.251   7.536  0.00  0.00    +0.000 C 
ATOM      8  C   UNL     1      46.434   1.205   7.705  0.00  0.00    +0.000 A 
ATOM      9  C   UNL     1      46.782   2.136   6.724  0.00  0.00    +0.000 A 
ATOM     10  C   UNL     1      46.464   3.475   6.908  0.00  0.00    +0.000 A 
ATOM     11  C   UNL     1      45.794   3.903   8.053  0.00  0.00    +0.000 A 
ATOM     12  C   UNL     1      45.446   2.998   9.072  0.00  0.00    +0.000 A 
ATOM     13  C   UNL     1      45.778   1.645   8.870  0.00  0.00    +0.000 A 
BRANCH  10  14
ATOM     14  O   UNL     1      46.793   4.419   5.981  0.00  0.00    +0.000 OA
ATOM     15  H   UNL     1      46.310   5.237   6.186  0.00  0.00    +0.000 HD
ENDBRANCH  10  14
ENDBRANCH   1  12
BRANCH   5  16
ATOM     16  C   UNL     1      44.706   6.523  12.629  0.00  0.00    +0.000 C 
BRANCH  16  17
ATOM     17  C   UNL     1      45.325   7.452  11.579  0.00  0.00    +0.000 C 
BRANCH  17  18
ATOM     18  N   UNL     1      46.168   8.467  12.205  0.00  0.00    +0.000 N 
ATOM     19  H   UNL     1      45.731   9.370  12.363  0.00  0.00    +0.000 HD
BRANCH  18  20
ATOM     20  C   UNL     1      47.528   8.539  11.903  0.00  0.00    +0.000 A 
ATOM     21  C   UNL     1      48.362   7.416  11.827  0.00  0.00    +0.000 A 
ATOM     22  C   UNL     1      49.745   7.544  11.652  0.00  0.00    +0.000 A 
ATOM     23  C   UNL     1      50.332   8.807  11.567  0.00  0.00    +0.000 A 
ATOM     24  C   UNL     1      49.521   9.942  11.654  0.00  0.00    +0.000 A 
ATOM     25  C   UNL     1      48.136   9.800  11.826  0.00  0.00    +0.000 A 
BRANCH  23  26
ATOM     26  C   UNL     1      51.811   8.883  11.438  0.00  0.00    +0.000 C 
ATOM     27  N   UNL     1      52.526   7.742  11.674  0.00  0.00    +0.000 N 
ATOM     28  O   UNL     1      52.383   9.931  11.163  0.00  0.00    +0.000 OA
ATOM     29  H   UNL     1      52.127   6.937  12.135  0.00  0.00    +0.000 HD
ATOM     30  H   UNL     1      53.533   7.842  11.684  0.00  0.00    +0.000 HD
ENDBRANCH  23  26
ENDBRANCH  18  20
ENDBRANCH  17  18
ENDBRANCH  16  17
ENDBRANCH   5  16
TORSDOF 7
ENDMDL
MODEL 9
REMARK VINA RESULT:    -7.042      3.390      8.397
REMARK INTER + INTRA:         -10.662
REMARK INTER:                  -9.853
REMARK INTRA:                  -0.810
REMARK UNBOUND:                -0.944
REMARK  Name = 
REMARK  8 active torsions:
REMARK  status: ('A' for Active; 'I' for Inactive)
REMARK    1  A    between atoms: C_1  and  C_2
REMARK    2  A    between atoms: C_4  and  O_5
REMARK    3  A    between atoms: C_7  and  C_8
REMARK    4  A    between atoms: C_12  and  C_13
REMARK    5  A    between atoms: C_13  and  C_14
REMARK    6  A    between atoms: C_14  and  N_15
REMARK    7  A    between atoms: N_15  and  C_16
REMARK    8  A    between atoms: C_19  and  C_20
REMARK                            x       y       z     vdW  Elec       q    Type
REMARK                         _______ _______ _______ _____ _____    ______ ____
ROOT
ATOM      1  C   UNL     1      45.644   6.397  11.249  0.00  0.00    +0.000 A 
ATOM      2  C   UNL     1      44.725   7.453  11.389  0.00  0.00    +0.000 A 
ATOM      3  C   UNL     1      45.073   8.649  12.020  0.00  0.00    +0.000 A 
ATOM      4  C   UNL     1      46.360   8.826  12.519  0.00  0.00    +0.000 A 
ATOM      5  C   UNL     1      47.310   7.805  12.392  0.00  0.00    +0.000 A 
ATOM      6  C   UNL     1      46.939   6.601  11.766  0.00  0.00    +0.000 A 
ENDROOT
BRANCH   1  12
ATOM      7  C   UNL     1      45.717   3.384   7.211  0.00  0.00    +0.000 C 
ATOM      8  C   UNL     1      45.267   3.647   8.618  0.00  0.00    +0.000 A 
ATOM      9  C   UNL     1      44.467   2.728   9.300  0.00  0.00    +0.000 A 
ATOM     10  C   UNL     1      44.073   2.999  10.603  0.00  0.00    +0.000 A 
ATOM     11  C   UNL     1      44.471   4.170  11.246  0.00  0.00    +0.000 A 
ATOM     12  C   UNL     1      45.259   5.129  10.584  0.00  0.00    +0.000 A 
ATOM     13  C   UNL     1      45.647   4.839   9.262  0.00  0.00    +0.000 A 
BRANCH  10  14
ATOM     14  O   UNL     1      43.284   2.134  11.303  0.00  0.00    +0.000 OA
ATOM     15  H   UNL     1      43.498   1.227  11.027  0.00  0.00    +0.000 HD
ENDBRANCH  10  14
ENDBRANCH   1  12
BRANCH   5  16
ATOM     16  C   UNL     1      48.689   7.977  12.981  0.00  0.00    +0.000 C 
BRANCH  16  17
ATOM     17  C   UNL     1      48.614   8.265  14.484  0.00  0.00    +0.000 C 
BRANCH  17  18
ATOM     18  N   UNL     1      48.122   7.101  15.218  0.00  0.00    +0.000 N 
ATOM     19  H   UNL     1      47.155   7.147  15.525  0.00  0.00    +0.000 HD
BRANCH  18  20
ATOM     20  C   UNL     1      48.964   6.411  16.091  0.00  0.00    +0.000 A 
ATOM     21  C   UNL     1      50.342   6.644  16.179  0.00  0.00    +0.000 A 
ATOM     22  C   UNL     1      51.169   5.839  16.972  0.00  0.00    +0.000 A 
ATOM     23  C   UNL     1      50.635   4.764  17.685  0.00  0.00    +0.000 A 
ATOM     24  C   UNL     1      49.265   4.505  17.601  0.00  0.00    +0.000 A 
ATOM     25  C   UNL     1      48.446   5.321  16.806  0.00  0.00    +0.000 A 
BRANCH  23  26
ATOM     26  C   UNL     1      51.569   3.910  18.465  0.00  0.00    +0.000 C 
ATOM     27  N   UNL     1      51.791   2.639  18.013  0.00  0.00    +0.000 N 
ATOM     28  O   UNL     1      52.101   4.307  19.494  0.00  0.00    +0.000 OA
ATOM     29  H   UNL     1      51.199   2.196  17.326  0.00  0.00    +0.000 HD
ATOM     30  H   UNL     1      52.345   2.044  18.614  0.00  0.00    +0.000 HD
ENDBRANCH  23  26
ENDBRANCH  18  20
ENDBRANCH  17  18
ENDBRANCH  16  17
ENDBRANCH   5  16
TORSDOF 7
ENDMDL
