MODEL 1
REMARK VINA RESULT:    -8.082      0.000      0.000
REMARK INTER + INTRA:         -10.677
REMARK INTER:                  -9.972
REMARK INTRA:                  -0.705
REMARK UNBOUND:                -0.705
REMARK  Name = 
REMARK  5 active torsions:
REMARK  status: ('A' for Active; 'I' for Inactive)
REMARK    1  A    between atoms: C_1  and  C_2
REMARK    2  A    between atoms: C_2  and  N_3
REMARK    3  A    between atoms: C_2  and  C_13
REMARK    4  A    between atoms: N_3  and  C_4
REMARK    5  A    between atoms: C_7  and  C_8
REMARK                            x       y       z     vdW  Elec       q    Type
REMARK                         _______ _______ _______ _____ _____    ______ ____
ROOT
ATOM      1  C   UNL     1      44.600   4.034   9.207  0.00  0.00    +0.000 A 
ATOM      2  C   UNL     1      44.567   2.644   9.350  0.00  0.00    +0.000 A 
ATOM      3  C   UNL     1      45.477   1.815   8.683  0.00  0.00    +0.000 A 
ATOM      4  C   UNL     1      46.425   2.355   7.815  0.00  0.00    +0.000 A 
ATOM      5  C   UNL     1      46.451   3.739   7.619  0.00  0.00    +0.000 A 
ATOM      6  C   UNL     1      45.538   4.561   8.304  0.00  0.00    +0.000 A 
ENDROOT
BRANCH   4   7
ATOM      7  C   UNL     1      47.368   1.405   7.164  0.00  0.00    +0.000 C 
ATOM      8  N   UNL     1      48.471   1.915   6.540  0.00  0.00    +0.000 N 
ATOM      9  O   UNL     1      47.145   0.198   7.135  0.00  0.00    +0.000 OA
ATOM     10  H   UNL     1      48.572   2.891   6.325  0.00  0.00    +0.000 HD
ATOM     11  H   UNL     1      49.013   1.251   5.995  0.00  0.00    +0.000 HD
ENDBRANCH   4   7
BRANCH   1  12
ATOM     12  N   UNL     1      43.696   4.906   9.861  0.00  0.00    +0.000 N 
ATOM     13  H   UNL     1      42.756   4.554   9.690  0.00  0.00    +0.000 HD
BRANCH  12  15
ATOM     14  C   UNL     1      43.136   4.239  12.162  0.00  0.00    +0.000 C 
ATOM     15  C   UNL     1      43.922   5.231  11.292  0.00  0.00    +0.000 C 
BRANCH  15  16
ATOM     16  C   UNL     1      45.438   5.223  11.697  0.00  0.00    +0.000 C 
ATOM     17  C   UNL     1      45.662   4.623  13.098  0.00  0.00    +0.000 C 
ATOM     18  C   UNL     1      47.101   4.758  13.588  0.00  0.00    +0.000 C 
ATOM     19  C   UNL     1      47.543   6.211  13.551  0.00  0.00    +0.000 C 
ATOM     20  C   UNL     1      47.514   6.732  12.124  0.00  0.00    +0.000 C 
ATOM     21  C   UNL     1      46.149   6.570  11.452  0.00  0.00    +0.000 C 
ENDBRANCH  15  16
ENDBRANCH  12  15
ENDBRANCH   1  12
TORSDOF 4
ENDMDL
MODEL 2
REMARK VINA RESULT:    -7.728      1.001      1.900
REMARK INTER + INTRA:         -10.240
REMARK INTER:                  -9.558
REMARK INTRA:                  -0.681
REMARK UNBOUND:                -0.705
REMARK  Name = 
REMARK  5 active torsions:
REMARK  status: ('A' for Active; 'I' for Inactive)
REMARK    1  A    between atoms: C_1  and  C_2
REMARK    2  A    between atoms: C_2  and  N_3
REMARK    3  A    between atoms: C_2  and  C_13
REMARK    4  A    between atoms: N_3  and  C_4
REMARK    5  A    between atoms: C_7  and  C_8
REMARK                            x       y       z     vdW  Elec       q    Type
REMARK                         _______ _______ _______ _____ _____    ______ ____
ROOT
ATOM      1  C   UNL     1      44.661   3.483   9.688  0.00  0.00    +0.000 A 
ATOM      2  C   UNL     1      45.268   4.423   8.851  0.00  0.00    +0.000 A 
ATOM      3  C   UNL     1      46.114   4.037   7.803  0.00  0.00    +0.000 A 
ATOM      4  C   UNL     1      46.410   2.692   7.590  0.00  0.00    +0.000 A 
ATOM      5  C   UNL     1      45.852   1.733   8.440  0.00  0.00    +0.000 A 
ATOM      6  C   UNL     1      44.996   2.134   9.482  0.00  0.00    +0.000 A 
ENDROOT
BRANCH   4   7
ATOM      7  C   UNL     1      47.300   2.368   6.440  0.00  0.00    +0.000 C 
ATOM      8  N   UNL     1      47.267   3.185   5.346  0.00  0.00    +0.000 N 
ATOM      9  O   UNL     1      48.009   1.366   6.441  0.00  0.00    +0.000 OA
ATOM     10  H   UNL     1      46.540   3.863   5.196  0.00  0.00    +0.000 HD
ATOM     11  H   UNL     1      47.783   2.855   4.537  0.00  0.00    +0.000 HD
ENDBRANCH   4   7
BRANCH   1  12
ATOM     12  N   UNL     1      43.804   3.832  10.759  0.00  0.00    +0.000 N 
ATOM     13  H   UNL     1      44.038   3.230  11.546  0.00  0.00    +0.000 HD
BRANCH  12  15
ATOM     14  C   UNL     1      42.276   5.536  11.664  0.00  0.00    +0.000 C 
ATOM     15  C   UNL     1      43.699   5.260  11.157  0.00  0.00    +0.000 C 
BRANCH  15  16
ATOM     16  C   UNL     1      44.752   5.680  12.241  0.00  0.00    +0.000 C 
ATOM     17  C   UNL     1      45.778   6.690  11.695  0.00  0.00    +0.000 C 
ATOM     18  C   UNL     1      46.912   6.985  12.672  0.00  0.00    +0.000 C 
ATOM     19  C   UNL     1      47.601   5.698  13.095  0.00  0.00    +0.000 C 
ATOM     20  C   UNL     1      46.620   4.792  13.820  0.00  0.00    +0.000 C 
ATOM     21  C   UNL     1      45.366   4.484  13.000  0.00  0.00    +0.000 C 
ENDBRANCH  15  16
ENDBRANCH  12  15
ENDBRANCH   1  12
TORSDOF 4
ENDMDL
MODEL 3
REMARK VINA RESULT:    -7.004      1.195      2.095
REMARK INTER + INTRA:          -9.347
REMARK INTER:                  -9.138
REMARK INTRA:                  -0.209
REMARK UNBOUND:                -0.705
REMARK  Name = 
REMARK  5 active torsions:
REMARK  status: ('A' for Active; 'I' for Inactive)
REMARK    1  A    between atoms: C_1  and  C_2
REMARK    2  A    between atoms: C_2  and  N_3
REMARK    3  A    between atoms: C_2  and  C_13
REMARK    4  A    between atoms: N_3  and  C_4
REMARK    5  A    between atoms: C_7  and  C_8
REMARK                            x       y       z     vdW  Elec       q    Type
REMARK                         _______ _______ _______ _____ _____    ______ ____
ROOT
ATOM      1  C   UNL     1      44.642   3.581   9.565  0.00  0.00    +0.000 A 
ATOM      2  C   UNL     1      45.394   4.488   8.813  0.00  0.00    +0.000 A 
ATOM      3  C   UNL     1      46.309   4.059   7.843  0.00  0.00    +0.000 A 
ATOM      4  C   UNL     1      46.528   2.700   7.627  0.00  0.00    +0.000 A 
ATOM      5  C   UNL     1      45.822   1.770   8.397  0.00  0.00    +0.000 A 
ATOM      6  C   UNL     1      44.899   2.215   9.360  0.00  0.00    +0.000 A 
ENDROOT
BRANCH   4   7
ATOM      7  C   UNL     1      47.501   2.330   6.561  0.00  0.00    +0.000 C 
ATOM      8  N   UNL     1      47.466   3.026   5.386  0.00  0.00    +0.000 N 
ATOM      9  O   UNL     1      48.281   1.394   6.702  0.00  0.00    +0.000 OA
ATOM     10  H   UNL     1      46.701   3.625   5.131  0.00  0.00    +0.000 HD
ATOM     11  H   UNL     1      48.049   2.656   4.641  0.00  0.00    +0.000 HD
ENDBRANCH   4   7
BRANCH   1  12
ATOM     12  N   UNL     1      43.711   3.974  10.557  0.00  0.00    +0.000 N 
ATOM     13  H   UNL     1      42.872   3.412  10.427  0.00  0.00    +0.000 HD
BRANCH  12  15
ATOM     14  C   UNL     1      45.241   2.953  12.191  0.00  0.00    +0.000 C 
ATOM     15  C   UNL     1      44.149   4.011  11.976  0.00  0.00    +0.000 C 
BRANCH  15  16
ATOM     16  C   UNL     1      44.665   5.422  12.428  0.00  0.00    +0.000 C 
ATOM     17  C   UNL     1      44.253   6.534  11.445  0.00  0.00    +0.000 C 
ATOM     18  C   UNL     1      44.883   7.886  11.767  0.00  0.00    +0.000 C 
ATOM     19  C   UNL     1      46.396   7.766  11.837  0.00  0.00    +0.000 C 
ATOM     20  C   UNL     1      46.797   6.817  12.954  0.00  0.00    +0.000 C 
ATOM     21  C   UNL     1      46.156   5.434  12.827  0.00  0.00    +0.000 C 
ENDBRANCH  15  16
ENDBRANCH  12  15
ENDBRANCH   1  12
TORSDOF 4
ENDMDL
MODEL 4
REMARK VINA RESULT:    -6.448      3.615      6.647
REMARK INTER + INTRA:          -8.660
REMARK INTER:                  -8.091
REMARK INTRA:                  -0.569
REMARK UNBOUND:                -0.705
REMARK  Name = 
REMARK  5 active torsions:
REMARK  status: ('A' for Active; 'I' for Inactive)
REMARK    1  A    between atoms: C_1  and  C_2
REMARK    2  A    between atoms: C_2  and  N_3
REMARK    3  A    between atoms: C_2  and  C_13
REMARK    4  A    between atoms: N_3  and  C_4
REMARK    5  A    between atoms: C_7  and  C_8
REMARK                            x       y       z     vdW  Elec       q    Type
REMARK                         _______ _______ _______ _____ _____    ______ ____
ROOT
ATOM      1  C   UNL     1      45.631   6.956  11.596  0.00  0.00    +0.000 A 
ATOM      2  C   UNL     1      45.370   8.219  12.132  0.00  0.00    +0.000 A 
ATOM      3  C   UNL     1      46.204   8.795  13.100  0.00  0.00    +0.000 A 
ATOM      4  C   UNL     1      47.307   8.097  13.590  0.00  0.00    +0.000 A 
ATOM      5  C   UNL     1      47.566   6.813  13.104  0.00  0.00    +0.000 A 
ATOM      6  C   UNL     1      46.726   6.252  12.125  0.00  0.00    +0.000 A 
ENDROOT
BRANCH   4   7
ATOM      7  C   UNL     1      48.153   8.791  14.600  0.00  0.00    +0.000 C 
ATOM      8  N   UNL     1      47.578   9.158  15.784  0.00  0.00    +0.000 N 
ATOM      9  O   UNL     1      49.323   9.079  14.368  0.00  0.00    +0.000 OA
ATOM     10  H   UNL     1      46.583   9.167  15.924  0.00  0.00    +0.000 HD
ATOM     11  H   UNL     1      48.148   9.745  16.385  0.00  0.00    +0.000 HD
ENDBRANCH   4   7
BRANCH   1  12
ATOM     12  N   UNL     1      44.811   6.339  10.621  0.00  0.00    +0.000 N 
ATOM     13  H   UNL     1      45.270   6.453   9.719  0.00  0.00    +0.000 HD
BRANCH  12  15
ATOM     14  C   UNL     1      42.891   4.960  11.306  0.00  0.00    +0.000 C 
ATOM     15  C   UNL     1      44.357   4.942  10.847  0.00  0.00    +0.000 C 
BRANCH  15  16
ATOM     16  C   UNL     1      44.518   4.027   9.583  0.00  0.00    +0.000 C 
ATOM     17  C   UNL     1      44.673   2.541   9.958  0.00  0.00    +0.000 C 
ATOM     18  C   UNL     1      45.002   1.649   8.764  0.00  0.00    +0.000 C 
ATOM     19  C   UNL     1      46.243   2.154   8.047  0.00  0.00    +0.000 C 
ATOM     20  C   UNL     1      46.003   3.551   7.500  0.00  0.00    +0.000 C 
ATOM     21  C   UNL     1      45.561   4.548   8.572  0.00  0.00    +0.000 C 
ENDBRANCH  15  16
ENDBRANCH  12  15
ENDBRANCH   1  12
TORSDOF 4
ENDMDL
MODEL 5
REMARK VINA RESULT:    -6.397      1.350      1.888
REMARK INTER + INTRA:          -8.598
REMARK INTER:                  -8.213
REMARK INTRA:                  -0.385
REMARK UNBOUND:                -0.705
REMARK  Name = 
REMARK  5 active torsions:
REMARK  status: ('A' for Active; 'I' for Inactive)
REMARK    1  A    between atoms: C_1  and  C_2
REMARK    2  A    between atoms: C_2  and  N_3
REMARK    3  A    between atoms: C_2  and  C_13
REMARK    4  A    between atoms: N_3  and  C_4
REMARK    5  A    between atoms: C_7  and  C_8
REMARK                            x       y       z     vdW  Elec       q    Type
REMARK                         _______ _______ _______ _____ _____    ______ ____
ROOT
ATOM      1  C   UNL     1      44.317   4.378   9.822  0.00  0.00    +0.000 A 
ATOM      2  C   UNL     1      45.352   4.804   8.985  0.00  0.00    +0.000 A 
ATOM      3  C   UNL     1      46.092   3.900   8.212  0.00  0.00    +0.000 A 
ATOM      4  C   UNL     1      45.842   2.531   8.289  0.00  0.00    +0.000 A 
ATOM      5  C   UNL     1      44.842   2.073   9.153  0.00  0.00    +0.000 A 
ATOM      6  C   UNL     1      44.100   2.993   9.915  0.00  0.00    +0.000 A 
ENDROOT
BRANCH   4   7
ATOM      7  C   UNL     1      46.659   1.642   7.417  0.00  0.00    +0.000 C 
ATOM      8  N   UNL     1      46.748   0.319   7.746  0.00  0.00    +0.000 N 
ATOM      9  O   UNL     1      47.284   2.083   6.458  0.00  0.00    +0.000 OA
ATOM     10  H   UNL     1      46.464  -0.040   8.641  0.00  0.00    +0.000 HD
ATOM     11  H   UNL     1      47.420  -0.222   7.209  0.00  0.00    +0.000 HD
ENDBRANCH   4   7
BRANCH   1  12
ATOM     12  N   UNL     1      43.549   5.259  10.621  0.00  0.00    +0.000 N 
ATOM     13  H   UNL     1      42.605   4.881  10.672  0.00  0.00    +0.000 HD
BRANCH  12  15
ATOM     14  C   UNL     1      44.367   4.386  12.772  0.00  0.00    +0.000 C 
ATOM     15  C   UNL     1      44.069   5.653  11.956  0.00  0.00    +0.000 C 
BRANCH  15  16
ATOM     16  C   UNL     1      45.346   6.561  11.880  0.00  0.00    +0.000 C 
ATOM     17  C   UNL     1      46.629   5.792  12.249  0.00  0.00    +0.000 C 
ATOM     18  C   UNL     1      47.860   6.687  12.351  0.00  0.00    +0.000 C 
ATOM     19  C   UNL     1      47.615   7.823  13.330  0.00  0.00    +0.000 C 
ATOM     20  C   UNL     1      46.473   8.699  12.843  0.00  0.00    +0.000 C 
ATOM     21  C   UNL     1      45.181   7.919  12.594  0.00  0.00    +0.000 C 
ENDBRANCH  15  16
ENDBRANCH  12  15
ENDBRANCH   1  12
TORSDOF 4
ENDMDL
MODEL 6
REMARK VINA RESULT:    -6.147      3.509      6.164
REMARK INTER + INTRA:          -8.289
REMARK INTER:                  -7.698
REMARK INTRA:                  -0.590
REMARK UNBOUND:                -0.705
REMARK  Name = 
REMARK  5 active torsions:
REMARK  status: ('A' for Active; 'I' for Inactive)
REMARK    1  A    between atoms: C_1  and  C_2
REMARK    2  A    between atoms: C_2  and  N_3
REMARK    3  A    between atoms: C_2  and  C_13
REMARK    4  A    between atoms: N_3  and  C_4
REMARK    5  A    between atoms: C_7  and  C_8
REMARK                            x       y       z     vdW  Elec       q    Type
REMARK                         _______ _______ _______ _____ _____    ______ ____
ROOT
ATOM      1  C   UNL     1      45.985   6.506  12.002  0.00  0.00    +0.000 A 
ATOM      2  C   UNL     1      46.474   5.472  12.804  0.00  0.00    +0.000 A 
ATOM      3  C   UNL     1      47.523   5.677  13.711  0.00  0.00    +0.000 A 
ATOM      4  C   UNL     1      48.142   6.922  13.809  0.00  0.00    +0.000 A 
ATOM      5  C   UNL     1      47.702   7.963  12.985  0.00  0.00    +0.000 A 
ATOM      6  C   UNL     1      46.641   7.745  12.088  0.00  0.00    +0.000 A 
ENDROOT
BRANCH   4   7
ATOM      7  C   UNL     1      49.232   7.060  14.814  0.00  0.00    +0.000 C 
ATOM      8  N   UNL     1      50.479   7.400  14.371  0.00  0.00    +0.000 N 
ATOM      9  O   UNL     1      49.042   6.825  16.003  0.00  0.00    +0.000 OA
ATOM     10  H   UNL     1      50.741   7.363  13.401  0.00  0.00    +0.000 HD
ATOM     11  H   UNL     1      51.219   7.351  15.065  0.00  0.00    +0.000 HD
ENDBRANCH   4   7
BRANCH   1  12
ATOM     12  N   UNL     1      44.931   6.338  11.072  0.00  0.00    +0.000 N 
ATOM     13  H   UNL     1      45.320   6.481  10.141  0.00  0.00    +0.000 HD
BRANCH  12  15
ATOM     14  C   UNL     1      42.631   5.517  11.367  0.00  0.00    +0.000 C 
ATOM     15  C   UNL     1      44.096   5.112  11.149  0.00  0.00    +0.000 C 
BRANCH  15  16
ATOM     16  C   UNL     1      44.222   4.196   9.881  0.00  0.00    +0.000 C 
ATOM     17  C   UNL     1      44.240   2.700  10.246  0.00  0.00    +0.000 C 
ATOM     18  C   UNL     1      44.534   1.793   9.054  0.00  0.00    +0.000 C 
ATOM     19  C   UNL     1      45.837   2.198   8.383  0.00  0.00    +0.000 C 
ATOM     20  C   UNL     1      45.731   3.614   7.843  0.00  0.00    +0.000 C 
ATOM     21  C   UNL     1      45.338   4.637   8.911  0.00  0.00    +0.000 C 
ENDBRANCH  15  16
ENDBRANCH  12  15
ENDBRANCH   1  12
TORSDOF 4
ENDMDL
MODEL 7
REMARK VINA RESULT:    -5.772      3.112      5.207
REMARK INTER + INTRA:          -7.827
REMARK INTER:                  -7.339
REMARK INTRA:                  -0.487
REMARK UNBOUND:                -0.705
REMARK  Name = 
REMARK  5 active torsions:
REMARK  status: ('A' for Active; 'I' for Inactive)
REMARK    1  A    between atoms: C_1  and  C_2
REMARK    2  A    between atoms: C_2  and  N_3
REMARK    3  A    between atoms: C_2  and  C_13
REMARK    4  A    between atoms: N_3  and  C_4
REMARK    5  A    between atoms: C_7  and  C_8
REMARK                            x       y       z     vdW  Elec       q    Type
REMARK                         _______ _______ _______ _____ _____    ______ ____
ROOT
ATOM      1  C   UNL     1      46.358   5.935  13.080  0.00  0.00    +0.000 A 
ATOM      2  C   UNL     1      45.631   4.763  13.303  0.00  0.00    +0.000 A 
ATOM      3  C   UNL     1      44.974   4.096  12.261  0.00  0.00    +0.000 A 
ATOM      4  C   UNL     1      44.993   4.611  10.966  0.00  0.00    +0.000 A 
ATOM      5  C   UNL     1      45.675   5.807  10.723  0.00  0.00    +0.000 A 
ATOM      6  C   UNL     1      46.339   6.461  11.777  0.00  0.00    +0.000 A 
ENDROOT
BRANCH   4   7
ATOM      7  C   UNL     1      44.288   3.827   9.914  0.00  0.00    +0.000 C 
ATOM      8  N   UNL     1      44.175   4.374   8.667  0.00  0.00    +0.000 N 
ATOM      9  O   UNL     1      43.772   2.741  10.161  0.00  0.00    +0.000 OA
ATOM     10  H   UNL     1      44.359   5.344   8.481  0.00  0.00    +0.000 HD
ATOM     11  H   UNL     1      43.574   3.872   8.021  0.00  0.00    +0.000 HD
ENDBRANCH   4   7
BRANCH   1  12
ATOM     12  N   UNL     1      47.032   6.641  14.106  0.00  0.00    +0.000 N 
ATOM     13  H   UNL     1      46.339   6.892  14.809  0.00  0.00    +0.000 HD
BRANCH  12  15
ATOM     14  C   UNL     1      49.343   7.116  14.803  0.00  0.00    +0.000 C 
ATOM     15  C   UNL     1      48.250   6.041  14.707  0.00  0.00    +0.000 C 
BRANCH  15  16
ATOM     16  C   UNL     1      47.995   5.402  16.117  0.00  0.00    +0.000 C 
ATOM     17  C   UNL     1      49.176   5.627  17.080  0.00  0.00    +0.000 C 
ATOM     18  C   UNL     1      49.031   4.872  18.398  0.00  0.00    +0.000 C 
ATOM     19  C   UNL     1      48.821   3.389  18.144  0.00  0.00    +0.000 C 
ATOM     20  C   UNL     1      47.535   3.166  17.366  0.00  0.00    +0.000 C 
ATOM     21  C   UNL     1      47.485   3.947  16.051  0.00  0.00    +0.000 C 
ENDBRANCH  15  16
ENDBRANCH  12  15
ENDBRANCH   1  12
TORSDOF 4
ENDMDL
MODEL 8
REMARK VINA RESULT:    -5.311      3.128      5.130
REMARK INTER + INTRA:          -7.257
REMARK INTER:                  -6.624
REMARK INTRA:                  -0.633
REMARK UNBOUND:                -0.705
REMARK  Name = 
REMARK  5 active torsions:
REMARK  status: ('A' for Active; 'I' for Inactive)
REMARK    1  A    between atoms: C_1  and  C_2
REMARK    2  A    between atoms: C_2  and  N_3
REMARK    3  A    between atoms: C_2  and  C_13
REMARK    4  A    between atoms: N_3  and  C_4
REMARK    5  A    between atoms: C_7  and  C_8
REMARK                            x       y       z     vdW  Elec       q    Type
REMARK                         _______ _______ _______ _____ _____    ______ ____
ROOT
ATOM      1  C   UNL     1      46.640   5.770  13.131  0.00  0.00    +0.000 A 
ATOM      2  C   UNL     1      46.153   4.494  13.428  0.00  0.00    +0.000 A 
ATOM      3  C   UNL     1      45.362   3.780  12.520  0.00  0.00    +0.000 A 
ATOM      4  C   UNL     1      44.998   4.345  11.298  0.00  0.00    +0.000 A 
ATOM      5  C   UNL     1      45.434   5.638  10.995  0.00  0.00    +0.000 A 
ATOM      6  C   UNL     1      46.237   6.340  11.912  0.00  0.00    +0.000 A 
ENDROOT
BRANCH   4   7
ATOM      7  C   UNL     1      44.174   3.508  10.382  0.00  0.00    +0.000 C 
ATOM      8  N   UNL     1      44.171   3.817   9.052  0.00  0.00    +0.000 N 
ATOM      9  O   UNL     1      43.470   2.597  10.806  0.00  0.00    +0.000 OA
ATOM     10  H   UNL     1      44.528   4.686   8.695  0.00  0.00    +0.000 HD
ATOM     11  H   UNL     1      43.496   3.312   8.486  0.00  0.00    +0.000 HD
ENDBRANCH   4   7
BRANCH   1  12
ATOM     12  N   UNL     1      47.438   6.526  14.023  0.00  0.00    +0.000 N 
ATOM     13  H   UNL     1      48.131   5.895  14.422  0.00  0.00    +0.000 HD
BRANCH  12  15
ATOM     14  C   UNL     1      47.963   8.844  14.661  0.00  0.00    +0.000 C 
ATOM     15  C   UNL     1      48.045   7.794  13.543  0.00  0.00    +0.000 C 
BRANCH  15  16
ATOM     16  C   UNL     1      49.529   7.628  13.063  0.00  0.00    +0.000 C 
ATOM     17  C   UNL     1      50.499   8.526  13.853  0.00  0.00    +0.000 C 
ATOM     18  C   UNL     1      51.920   8.514  13.296  0.00  0.00    +0.000 C 
ATOM     19  C   UNL     1      51.919   8.892  11.824  0.00  0.00    +0.000 C 
ATOM     20  C   UNL     1      51.124   7.875  11.022  0.00  0.00    +0.000 C 
ATOM     21  C   UNL     1      49.692   7.696  11.530  0.00  0.00    +0.000 C 
ENDBRANCH  15  16
ENDBRANCH  12  15
ENDBRANCH   1  12
TORSDOF 4
ENDMDL
MODEL 9
REMARK VINA RESULT:    -5.178      3.087      5.195
REMARK INTER + INTRA:          -7.094
REMARK INTER:                  -6.521
REMARK INTRA:                  -0.574
REMARK UNBOUND:                -0.705
REMARK  Name = 
REMARK  5 active torsions:
REMARK  status: ('A' for Active; 'I' for Inactive)
REMARK    1  A    between atoms: C_1  and  C_2
REMARK    2  A    between atoms: C_2  and  N_3
REMARK    3  A    between atoms: C_2  and  C_13
REMARK    4  A    between atoms: N_3  and  C_4
REMARK    5  A    between atoms: C_7  and  C_8
REMARK                            x       y       z     vdW  Elec       q    Type
REMARK                         _______ _______ _______ _____ _____    ______ ____
ROOT
ATOM      1  C   UNL     1      46.322   6.268  12.376  0.00  0.00    +0.000 A 
ATOM      2  C   UNL     1      45.816   6.201  11.075  0.00  0.00    +0.000 A 
ATOM      3  C   UNL     1      45.087   5.092  10.625  0.00  0.00    +0.000 A 
ATOM      4  C   UNL     1      44.880   3.994  11.458  0.00  0.00    +0.000 A 
ATOM      5  C   UNL     1      45.414   4.015  12.751  0.00  0.00    +0.000 A 
ATOM      6  C   UNL     1      46.134   5.139  13.193  0.00  0.00    +0.000 A 
ENDROOT
BRANCH   4   7
ATOM      7  C   UNL     1      44.076   2.868  10.909  0.00  0.00    +0.000 C 
ATOM      8  N   UNL     1      44.557   2.203   9.816  0.00  0.00    +0.000 N 
ATOM      9  O   UNL     1      42.984   2.568  11.382  0.00  0.00    +0.000 OA
ATOM     10  H   UNL     1      45.308   2.559   9.251  0.00  0.00    +0.000 HD
ATOM     11  H   UNL     1      43.919   1.537   9.392  0.00  0.00    +0.000 HD
ENDBRANCH   4   7
BRANCH   1  12
ATOM     12  N   UNL     1      47.066   7.367  12.867  0.00  0.00    +0.000 N 
ATOM     13  H   UNL     1      46.711   7.585  13.796  0.00  0.00    +0.000 HD
BRANCH  12  15
ATOM     14  C   UNL     1      49.071   8.281  11.772  0.00  0.00    +0.000 C 
ATOM     15  C   UNL     1      48.549   7.301  12.834  0.00  0.00    +0.000 C 
BRANCH  15  16
ATOM     16  C   UNL     1      49.214   7.602  14.222  0.00  0.00    +0.000 C 
ATOM     17  C   UNL     1      50.711   7.940  14.089  0.00  0.00    +0.000 C 
ATOM     18  C   UNL     1      51.421   8.068  15.433  0.00  0.00    +0.000 C 
ATOM     19  C   UNL     1      51.227   6.809  16.262  0.00  0.00    +0.000 C 
ATOM     20  C   UNL     1      49.753   6.601  16.562  0.00  0.00    +0.000 C 
ATOM     21  C   UNL     1      48.884   6.553  15.304  0.00  0.00    +0.000 C 
ENDBRANCH  15  16
ENDBRANCH  12  15
ENDBRANCH   1  12
TORSDOF 4
ENDMDL
