MODEL 1
REMARK VINA RESULT:    -8.865      0.000      0.000
REMARK INTER + INTRA:         -11.083
REMARK INTER:                 -11.198
REMARK INTRA:                   0.115
REMARK UNBOUND:                 0.115
REMARK  Name = 
REMARK  5 active torsions:
REMARK  status: ('A' for Active; 'I' for Inactive)
REMARK    1  A    between atoms: N_1  and  C_2
REMARK    2  A    between atoms: C_2  and  C_3
REMARK    3  A    between atoms: C_6  and  C_7
REMARK    4  A    between atoms: C_7  and  C_8
REMARK    5  A    between atoms: C_15  and  C_16
REMARK                            x       y       z     vdW  Elec       q    Type
REMARK                         _______ _______ _______ _____ _____    ______ ____
ROOT
ATOM      1  C   UNL     1      44.027   4.026  10.863  0.00  0.00    +0.000 A 
ATOM      2  N   UNL     1      43.445   5.064  10.238  0.00  0.00    +0.000 NA
ATOM      3  O   UNL     1      44.028   6.196  10.778  0.00  0.00    +0.000 OA
ATOM      4  C   UNL     1      44.887   5.832  11.763  0.00  0.00    +0.000 A 
ATOM      5  C   UNL     1      45.743   6.682  12.448  0.00  0.00    +0.000 A 
ATOM      6  C   UNL     1      46.524   6.092  13.441  0.00  0.00    +0.000 A 
ATOM      7  F   UNL     1      47.399   6.884  14.080  0.00  0.00    +0.000 F 
ATOM      8  C   UNL     1      46.418   4.732  13.765  0.00  0.00    +0.000 A 
ATOM      9  C   UNL     1      45.569   3.895  13.009  0.00  0.00    +0.000 A 
ATOM     10  C   UNL     1      44.818   4.465  11.963  0.00  0.00    +0.000 A 
ENDROOT
BRANCH   8  11
ATOM     11  C   UNL     1      47.182   4.127  14.893  0.00  0.00    +0.000 C 
ATOM     12  N   UNL     1      47.236   4.806  16.077  0.00  0.00    +0.000 N 
ATOM     13  O   UNL     1      47.732   3.038  14.771  0.00  0.00    +0.000 OA
ATOM     14  H   UNL     1      46.787   5.703  16.224  0.00  0.00    +0.000 HD
ATOM     15  H   UNL     1      47.729   4.381  16.851  0.00  0.00    +0.000 HD
ENDBRANCH   8  11
BRANCH   1  16
ATOM     16  C   UNL     1      43.952   2.663  10.256  0.00  0.00    +0.000 C 
BRANCH  16  20
ATOM     17  C   UNL     1      46.660   2.739   6.855  0.00  0.00    +0.000 A 
ATOM     18  C   UNL     1      46.016   3.910   7.284  0.00  0.00    +0.000 A 
ATOM     19  C   UNL     1      45.185   3.904   8.410  0.00  0.00    +0.000 A 
ATOM     20  C   UNL     1      44.980   2.723   9.137  0.00  0.00    +0.000 A 
ATOM     21  C   UNL     1      45.663   1.562   8.731  0.00  0.00    +0.000 A 
ATOM     22  C   UNL     1      46.483   1.569   7.600  0.00  0.00    +0.000 A 
BRANCH  17  23
ATOM     23  C   UNL     1      47.473   2.726   5.586  0.00  0.00    +0.000 C 
BRANCH  23  24
ATOM     24  N   UNL     1      48.587   1.788   5.658  0.00  0.00    +0.000 NA
ATOM     25  H   UNL     1      49.292   2.160   6.290  0.00  0.00    +0.000 HD
ATOM     26  H   UNL     1      49.024   1.734   4.739  0.00  0.00    +0.000 HD
ENDBRANCH  23  24
ENDBRANCH  17  23
ENDBRANCH  16  20
ENDBRANCH   1  16
TORSDOF 5
ENDMDL
MODEL 2
REMARK VINA RESULT:    -8.763      2.181      3.067
REMARK INTER + INTRA:         -10.953
REMARK INTER:                 -10.187
REMARK INTRA:                  -0.767
REMARK UNBOUND:                 0.115
REMARK  Name = 
REMARK  5 active torsions:
REMARK  status: ('A' for Active; 'I' for Inactive)
REMARK    1  A    between atoms: N_1  and  C_2
REMARK    2  A    between atoms: C_2  and  C_3
REMARK    3  A    between atoms: C_6  and  C_7
REMARK    4  A    between atoms: C_7  and  C_8
REMARK    5  A    between atoms: C_15  and  C_16
REMARK                            x       y       z     vdW  Elec       q    Type
REMARK                         _______ _______ _______ _____ _____    ______ ____
ROOT
ATOM      1  C   UNL     1      45.048   4.247  11.630  0.00  0.00    +0.000 A 
ATOM      2  N   UNL     1      44.861   3.279  12.544  0.00  0.00    +0.000 NA
ATOM      3  O   UNL     1      45.561   3.690  13.664  0.00  0.00    +0.000 OA
ATOM      4  C   UNL     1      46.214   4.845  13.388  0.00  0.00    +0.000 A 
ATOM      5  C   UNL     1      46.919   5.618  14.299  0.00  0.00    +0.000 A 
ATOM      6  C   UNL     1      47.534   6.760  13.786  0.00  0.00    +0.000 A 
ATOM      7  F   UNL     1      48.175   7.552  14.660  0.00  0.00    +0.000 F 
ATOM      8  C   UNL     1      47.488   7.084  12.424  0.00  0.00    +0.000 A 
ATOM      9  C   UNL     1      46.719   6.296  11.540  0.00  0.00    +0.000 A 
ATOM     10  C   UNL     1      46.042   5.172  12.054  0.00  0.00    +0.000 A 
ENDROOT
BRANCH   8  11
ATOM     11  C   UNL     1      48.229   8.250  11.863  0.00  0.00    +0.000 C 
ATOM     12  N   UNL     1      49.502   8.051  11.409  0.00  0.00    +0.000 N 
ATOM     13  O   UNL     1      47.705   9.357  11.792  0.00  0.00    +0.000 OA
ATOM     14  H   UNL     1      49.968   7.151  11.440  0.00  0.00    +0.000 HD
ATOM     15  H   UNL     1      49.993   8.836  11.002  0.00  0.00    +0.000 HD
ENDBRANCH   8  11
BRANCH   1  16
ATOM     16  C   UNL     1      44.119   4.348  10.463  0.00  0.00    +0.000 C 
BRANCH  16  20
ATOM     17  C   UNL     1      46.578   2.401   7.452  0.00  0.00    +0.000 A 
ATOM     18  C   UNL     1      45.827   1.642   8.364  0.00  0.00    +0.000 A 
ATOM     19  C   UNL     1      44.992   2.261   9.300  0.00  0.00    +0.000 A 
ATOM     20  C   UNL     1      44.887   3.658   9.346  0.00  0.00    +0.000 A 
ATOM     21  C   UNL     1      45.606   4.414   8.402  0.00  0.00    +0.000 A 
ATOM     22  C   UNL     1      46.447   3.793   7.475  0.00  0.00    +0.000 A 
BRANCH  17  23
ATOM     23  C   UNL     1      47.551   1.736   6.513  0.00  0.00    +0.000 C 
BRANCH  23  24
ATOM     24  N   UNL     1      48.725   2.563   6.263  0.00  0.00    +0.000 NA
ATOM     25  H   UNL     1      48.563   3.123   5.429  0.00  0.00    +0.000 HD
ATOM     26  H   UNL     1      49.513   1.952   6.051  0.00  0.00    +0.000 HD
ENDBRANCH  23  24
ENDBRANCH  17  23
ENDBRANCH  16  20
ENDBRANCH   1  16
TORSDOF 5
ENDMDL
MODEL 3
REMARK VINA RESULT:    -8.345      2.803      6.775
REMARK INTER + INTRA:         -10.425
REMARK INTER:                 -10.297
REMARK INTRA:                  -0.128
REMARK UNBOUND:                 0.115
REMARK  Name = 
REMARK  5 active torsions:
REMARK  status: ('A' for Active; 'I' for Inactive)
REMARK    1  A    between atoms: N_1  and  C_2
REMARK    2  A    between atoms: C_2  and  C_3
REMARK    3  A    between atoms: C_6  and  C_7
REMARK    4  A    between atoms: C_7  and  C_8
REMARK    5  A    between atoms: C_15  and  C_16
REMARK                            x       y       z     vdW  Elec       q    Type
REMARK                         _______ _______ _______ _____ _____    ______ ____
ROOT
ATOM      1  C   UNL     1      44.499   4.793  10.114  0.00  0.00    +0.000 A 
ATOM      2  N   UNL     1      43.463   4.243  10.772  0.00  0.00    +0.000 NA
ATOM      3  O   UNL     1      43.492   2.899  10.448  0.00  0.00    +0.000 OA
ATOM      4  C   UNL     1      44.484   2.673   9.552  0.00  0.00    +0.000 A 
ATOM      5  C   UNL     1      44.893   1.431   9.089  0.00  0.00    +0.000 A 
ATOM      6  C   UNL     1      45.922   1.439   8.147  0.00  0.00    +0.000 A 
ATOM      7  F   UNL     1      46.372   0.246   7.726  0.00  0.00    +0.000 F 
ATOM      8  C   UNL     1      46.478   2.628   7.658  0.00  0.00    +0.000 A 
ATOM      9  C   UNL     1      46.064   3.868   8.192  0.00  0.00    +0.000 A 
ATOM     10  C   UNL     1      45.068   3.874   9.188  0.00  0.00    +0.000 A 
ENDROOT
BRANCH   8  11
ATOM     11  C   UNL     1      47.507   2.635   6.579  0.00  0.00    +0.000 C 
ATOM     12  N   UNL     1      47.230   3.307   5.423  0.00  0.00    +0.000 N 
ATOM     13  O   UNL     1      48.585   2.069   6.731  0.00  0.00    +0.000 OA
ATOM     14  H   UNL     1      46.357   3.797   5.262  0.00  0.00    +0.000 HD
ATOM     15  H   UNL     1      47.940   3.337   4.704  0.00  0.00    +0.000 HD
ENDBRANCH   8  11
BRANCH   1  16
ATOM     16  C   UNL     1      45.022   6.125  10.545  0.00  0.00    +0.000 C 
BRANCH  16  20
ATOM     17  C   UNL     1      47.350   5.376  14.140  0.00  0.00    +0.000 A 
ATOM     18  C   UNL     1      46.243   4.572  13.824  0.00  0.00    +0.000 A 
ATOM     19  C   UNL     1      45.522   4.774  12.641  0.00  0.00    +0.000 A 
ATOM     20  C   UNL     1      45.894   5.785  11.745  0.00  0.00    +0.000 A 
ATOM     21  C   UNL     1      47.030   6.559  12.043  0.00  0.00    +0.000 A 
ATOM     22  C   UNL     1      47.741   6.362  13.230  0.00  0.00    +0.000 A 
BRANCH  17  23
ATOM     23  C   UNL     1      48.062   5.221  15.460  0.00  0.00    +0.000 C 
BRANCH  23  24
ATOM     24  N   UNL     1      47.173   4.735  16.509  0.00  0.00    +0.000 NA
ATOM     25  H   UNL     1      47.085   5.453  17.225  0.00  0.00    +0.000 HD
ATOM     26  H   UNL     1      47.612   3.933  16.958  0.00  0.00    +0.000 HD
ENDBRANCH  23  24
ENDBRANCH  17  23
ENDBRANCH  16  20
ENDBRANCH   1  16
TORSDOF 5
ENDMDL
MODEL 4
REMARK VINA RESULT:    -8.198      1.669      2.042
REMARK INTER + INTRA:         -10.240
REMARK INTER:                 -10.188
REMARK INTRA:                  -0.052
REMARK UNBOUND:                 0.115
REMARK  Name = 
REMARK  5 active torsions:
REMARK  status: ('A' for Active; 'I' for Inactive)
REMARK    1  A    between atoms: N_1  and  C_2
REMARK    2  A    between atoms: C_2  and  C_3
REMARK    3  A    between atoms: C_6  and  C_7
REMARK    4  A    between atoms: C_7  and  C_8
REMARK    5  A    between atoms: C_15  and  C_16
REMARK                            x       y       z     vdW  Elec       q    Type
REMARK                         _______ _______ _______ _____ _____    ______ ____
ROOT
ATOM      1  C   UNL     1      43.768   4.449  11.441  0.00  0.00    +0.000 A 
ATOM      2  N   UNL     1      42.653   5.118  11.100  0.00  0.00    +0.000 NA
ATOM      3  O   UNL     1      42.993   6.457  11.163  0.00  0.00    +0.000 OA
ATOM      4  C   UNL     1      44.268   6.577  11.610  0.00  0.00    +0.000 A 
ATOM      5  C   UNL     1      44.993   7.757  11.688  0.00  0.00    +0.000 A 
ATOM      6  C   UNL     1      46.284   7.647  12.203  0.00  0.00    +0.000 A 
ATOM      7  F   UNL     1      47.025   8.767  12.236  0.00  0.00    +0.000 F 
ATOM      8  C   UNL     1      46.804   6.430  12.663  0.00  0.00    +0.000 A 
ATOM      9  C   UNL     1      46.048   5.245  12.520  0.00  0.00    +0.000 A 
ATOM     10  C   UNL     1      44.765   5.330  11.946  0.00  0.00    +0.000 A 
ENDROOT
BRANCH   8  11
ATOM     11  C   UNL     1      48.147   6.335  13.305  0.00  0.00    +0.000 C 
ATOM     12  N   UNL     1      49.240   6.704  12.575  0.00  0.00    +0.000 N 
ATOM     13  O   UNL     1      48.267   5.955  14.464  0.00  0.00    +0.000 OA
ATOM     14  H   UNL     1      49.184   7.034  11.618  0.00  0.00    +0.000 HD
ATOM     15  H   UNL     1      50.148   6.668  13.020  0.00  0.00    +0.000 HD
ENDBRANCH   8  11
BRANCH   1  16
ATOM     16  C   UNL     1      43.897   3.002  11.086  0.00  0.00    +0.000 C 
BRANCH  16  20
ATOM     17  C   UNL     1      46.250   3.141   7.433  0.00  0.00    +0.000 A 
ATOM     18  C   UNL     1      45.911   1.912   8.020  0.00  0.00    +0.000 A 
ATOM     19  C   UNL     1      45.108   1.858   9.165  0.00  0.00    +0.000 A 
ATOM     20  C   UNL     1      44.625   3.036   9.751  0.00  0.00    +0.000 A 
ATOM     21  C   UNL     1      44.929   4.263   9.135  0.00  0.00    +0.000 A 
ATOM     22  C   UNL     1      45.739   4.314   7.998  0.00  0.00    +0.000 A 
BRANCH  17  23
ATOM     23  C   UNL     1      47.195   3.200   6.260  0.00  0.00    +0.000 C 
BRANCH  23  24
ATOM     24  N   UNL     1      48.458   2.529   6.538  0.00  0.00    +0.000 NA
ATOM     25  H   UNL     1      48.766   2.780   7.476  0.00  0.00    +0.000 HD
ATOM     26  H   UNL     1      49.164   2.888   5.898  0.00  0.00    +0.000 HD
ENDBRANCH  23  24
ENDBRANCH  17  23
ENDBRANCH  16  20
ENDBRANCH   1  16
TORSDOF 5
ENDMDL
MODEL 5
REMARK VINA RESULT:    -7.323      2.676      3.634
REMARK INTER + INTRA:          -9.135
REMARK INTER:                  -8.408
REMARK INTRA:                  -0.727
REMARK UNBOUND:                 0.115
REMARK  Name = 
REMARK  5 active torsions:
REMARK  status: ('A' for Active; 'I' for Inactive)
REMARK    1  A    between atoms: N_1  and  C_2
REMARK    2  A    between atoms: C_2  and  C_3
REMARK    3  A    between atoms: C_6  and  C_7
REMARK    4  A    between atoms: C_7  and  C_8
REMARK    5  A    between atoms: C_15  and  C_16
REMARK                            x       y       z     vdW  Elec       q    Type
REMARK                         _______ _______ _______ _____ _____    ______ ____
ROOT
ATOM      1  C   UNL     1      45.654   4.990  12.892  0.00  0.00    +0.000 A 
ATOM      2  N   UNL     1      45.423   4.112  13.883  0.00  0.00    +0.000 NA
ATOM      3  O   UNL     1      46.404   4.354  14.827  0.00  0.00    +0.000 OA
ATOM      4  C   UNL     1      47.249   5.308  14.363  0.00  0.00    +0.000 A 
ATOM      5  C   UNL     1      48.282   5.896  15.079  0.00  0.00    +0.000 A 
ATOM      6  C   UNL     1      49.040   6.842  14.391  0.00  0.00    +0.000 A 
ATOM      7  F   UNL     1      50.010   7.464  15.080  0.00  0.00    +0.000 F 
ATOM      8  C   UNL     1      48.809   7.148  13.043  0.00  0.00    +0.000 A 
ATOM      9  C   UNL     1      47.717   6.562  12.368  0.00  0.00    +0.000 A 
ATOM     10  C   UNL     1      46.904   5.648  13.066  0.00  0.00    +0.000 A 
ENDROOT
BRANCH   8  11
ATOM     11  C   UNL     1      49.684   8.087  12.284  0.00  0.00    +0.000 C 
ATOM     12  N   UNL     1      50.826   7.594  11.719  0.00  0.00    +0.000 N 
ATOM     13  O   UNL     1      49.380   9.267  12.151  0.00  0.00    +0.000 OA
ATOM     14  H   UNL     1      51.109   6.624  11.795  0.00  0.00    +0.000 HD
ATOM     15  H   UNL     1      51.404   8.225  11.179  0.00  0.00    +0.000 HD
ENDBRANCH   8  11
BRANCH   1  16
ATOM     16  C   UNL     1      44.567   5.301  11.914  0.00  0.00    +0.000 C 
BRANCH  16  20
ATOM     17  C   UNL     1      45.729   3.587   8.091  0.00  0.00    +0.000 A 
ATOM     18  C   UNL     1      46.052   4.916   8.407  0.00  0.00    +0.000 A 
ATOM     19  C   UNL     1      45.729   5.457   9.656  0.00  0.00    +0.000 A 
ATOM     20  C   UNL     1      45.075   4.679  10.621  0.00  0.00    +0.000 A 
ATOM     21  C   UNL     1      44.793   3.335  10.318  0.00  0.00    +0.000 A 
ATOM     22  C   UNL     1      45.108   2.800   9.066  0.00  0.00    +0.000 A 
BRANCH  17  23
ATOM     23  C   UNL     1      45.989   3.038   6.711  0.00  0.00    +0.000 C 
BRANCH  23  24
ATOM     24  N   UNL     1      46.866   3.904   5.933  0.00  0.00    +0.000 NA
ATOM     25  H   UNL     1      47.594   3.336   5.502  0.00  0.00    +0.000 HD
ATOM     26  H   UNL     1      47.339   4.543   6.570  0.00  0.00    +0.000 HD
ENDBRANCH  23  24
ENDBRANCH  17  23
ENDBRANCH  16  20
ENDBRANCH   1  16
TORSDOF 5
ENDMDL
MODEL 6
REMARK VINA RESULT:    -6.931      3.296      6.880
REMARK INTER + INTRA:          -8.639
REMARK INTER:                  -8.068
REMARK INTRA:                  -0.571
REMARK UNBOUND:                 0.115
REMARK  Name = 
REMARK  5 active torsions:
REMARK  status: ('A' for Active; 'I' for Inactive)
REMARK    1  A    between atoms: N_1  and  C_2
REMARK    2  A    between atoms: C_2  and  C_3
REMARK    3  A    between atoms: C_6  and  C_7
REMARK    4  A    between atoms: C_7  and  C_8
REMARK    5  A    between atoms: C_15  and  C_16
REMARK                            x       y       z     vdW  Elec       q    Type
REMARK                         _______ _______ _______ _____ _____    ______ ____
ROOT
ATOM      1  C   UNL     1      47.066   7.368  12.389  0.00  0.00    +0.000 A 
ATOM      2  N   UNL     1      46.608   8.554  12.825  0.00  0.00    +0.000 NA
ATOM      3  O   UNL     1      45.239   8.516  12.628  0.00  0.00    +0.000 OA
ATOM      4  C   UNL     1      44.905   7.355  12.013  0.00  0.00    +0.000 A 
ATOM      5  C   UNL     1      43.616   6.910  11.763  0.00  0.00    +0.000 A 
ATOM      6  C   UNL     1      43.509   5.690  11.095  0.00  0.00    +0.000 A 
ATOM      7  F   UNL     1      42.270   5.214  10.891  0.00  0.00    +0.000 F 
ATOM      8  C   UNL     1      44.633   4.978  10.656  0.00  0.00    +0.000 A 
ATOM      9  C   UNL     1      45.927   5.444  10.975  0.00  0.00    +0.000 A 
ATOM     10  C   UNL     1      46.052   6.644  11.702  0.00  0.00    +0.000 A 
ENDROOT
BRANCH   8  11
ATOM     11  C   UNL     1      44.513   3.726   9.855  0.00  0.00    +0.000 C 
ATOM     12  N   UNL     1      44.487   2.533  10.519  0.00  0.00    +0.000 N 
ATOM     13  O   UNL     1      44.419   3.764   8.633  0.00  0.00    +0.000 OA
ATOM     14  H   UNL     1      44.550   2.458  11.528  0.00  0.00    +0.000 HD
ATOM     15  H   UNL     1      44.375   1.686   9.978  0.00  0.00    +0.000 HD
ENDBRANCH   8  11
BRANCH   1  16
ATOM     16  C   UNL     1      48.416   6.895  12.822  0.00  0.00    +0.000 C 
BRANCH  16  20
ATOM     17  C   UNL     1      47.842   4.691  16.525  0.00  0.00    +0.000 A 
ATOM     18  C   UNL     1      48.636   5.848  16.497  0.00  0.00    +0.000 A 
ATOM     19  C   UNL     1      48.782   6.593  15.321  0.00  0.00    +0.000 A 
ATOM     20  C   UNL     1      48.133   6.197  14.143  0.00  0.00    +0.000 A 
ATOM     21  C   UNL     1      47.303   5.062  14.186  0.00  0.00    +0.000 A 
ATOM     22  C   UNL     1      47.168   4.315  15.360  0.00  0.00    +0.000 A 
BRANCH  17  23
ATOM     23  C   UNL     1      47.768   3.837  17.765  0.00  0.00    +0.000 C 
BRANCH  23  24
ATOM     24  N   UNL     1      46.656   2.896  17.718  0.00  0.00    +0.000 NA
ATOM     25  H   UNL     1      46.906   2.062  18.246  0.00  0.00    +0.000 HD
ATOM     26  H   UNL     1      46.526   2.597  16.752  0.00  0.00    +0.000 HD
ENDBRANCH  23  24
ENDBRANCH  17  23
ENDBRANCH  16  20
ENDBRANCH   1  16
TORSDOF 5
ENDMDL
MODEL 7
REMARK VINA RESULT:    -6.431      3.863      6.538
REMARK INTER + INTRA:          -8.008
REMARK INTER:                  -7.439
REMARK INTRA:                  -0.570
REMARK UNBOUND:                 0.115
REMARK  Name = 
REMARK  5 active torsions:
REMARK  status: ('A' for Active; 'I' for Inactive)
REMARK    1  A    between atoms: N_1  and  C_2
REMARK    2  A    between atoms: C_2  and  C_3
REMARK    3  A    between atoms: C_6  and  C_7
REMARK    4  A    between atoms: C_7  and  C_8
REMARK    5  A    between atoms: C_15  and  C_16
REMARK                            x       y       z     vdW  Elec       q    Type
REMARK                         _______ _______ _______ _____ _____    ______ ____
ROOT
ATOM      1  C   UNL     1      47.400   7.469  13.655  0.00  0.00    +0.000 A 
ATOM      2  N   UNL     1      48.257   6.872  14.502  0.00  0.00    +0.000 NA
ATOM      3  O   UNL     1      47.955   5.524  14.443  0.00  0.00    +0.000 OA
ATOM      4  C   UNL     1      46.884   5.338  13.632  0.00  0.00    +0.000 A 
ATOM      5  C   UNL     1      46.369   4.112  13.237  0.00  0.00    +0.000 A 
ATOM      6  C   UNL     1      45.243   4.160  12.415  0.00  0.00    +0.000 A 
ATOM      7  F   UNL     1      44.760   2.987  11.974  0.00  0.00    +0.000 F 
ATOM      8  C   UNL     1      44.636   5.368  12.049  0.00  0.00    +0.000 A 
ATOM      9  C   UNL     1      45.222   6.593  12.435  0.00  0.00    +0.000 A 
ATOM     10  C   UNL     1      46.394   6.563  13.216  0.00  0.00    +0.000 A 
ENDROOT
BRANCH   8  11
ATOM     11  C   UNL     1      43.375   5.411  11.253  0.00  0.00    +0.000 C 
ATOM     12  N   UNL     1      42.281   6.014  11.805  0.00  0.00    +0.000 N 
ATOM     13  O   UNL     1      43.325   4.935  10.124  0.00  0.00    +0.000 OA
ATOM     14  H   UNL     1      42.283   6.430  12.730  0.00  0.00    +0.000 HD
ATOM     15  H   UNL     1      41.436   6.069  11.253  0.00  0.00    +0.000 HD
ENDBRANCH   8  11
BRANCH   1  16
ATOM     16  C   UNL     1      47.699   8.844  13.151  0.00  0.00    +0.000 C 
BRANCH  16  20
ATOM     17  C   UNL     1      51.664   8.163  11.501  0.00  0.00    +0.000 A 
ATOM     18  C   UNL     1      50.537   7.543  10.937  0.00  0.00    +0.000 A 
ATOM     19  C   UNL     1      49.252   7.800  11.429  0.00  0.00    +0.000 A 
ATOM     20  C   UNL     1      49.064   8.686  12.498  0.00  0.00    +0.000 A 
ATOM     21  C   UNL     1      50.190   9.340  13.031  0.00  0.00    +0.000 A 
ATOM     22  C   UNL     1      51.472   9.074  12.544  0.00  0.00    +0.000 A 
BRANCH  17  23
ATOM     23  C   UNL     1      53.052   7.809  11.034  0.00  0.00    +0.000 C 
BRANCH  23  24
ATOM     24  N   UNL     1      53.136   6.435  10.555  0.00  0.00    +0.000 NA
ATOM     25  H   UNL     1      52.195   6.057  10.470  0.00  0.00    +0.000 HD
ATOM     26  H   UNL     1      53.609   5.873  11.262  0.00  0.00    +0.000 HD
ENDBRANCH  23  24
ENDBRANCH  17  23
ENDBRANCH  16  20
ENDBRANCH   1  16
TORSDOF 5
ENDMDL
MODEL 8
REMARK VINA RESULT:    -6.330      3.586      6.493
REMARK INTER + INTRA:          -7.880
REMARK INTER:                  -7.516
REMARK INTRA:                  -0.364
REMARK UNBOUND:                 0.115
REMARK  Name = 
REMARK  5 active torsions:
REMARK  status: ('A' for Active; 'I' for Inactive)
REMARK    1  A    between atoms: N_1  and  C_2
REMARK    2  A    between atoms: C_2  and  C_3
REMARK    3  A    between atoms: C_6  and  C_7
REMARK    4  A    between atoms: C_7  and  C_8
REMARK    5  A    between atoms: C_15  and  C_16
REMARK                            x       y       z     vdW  Elec       q    Type
REMARK                         _______ _______ _______ _____ _____    ______ ____
ROOT
ATOM      1  C   UNL     1      47.077   4.880  14.454  0.00  0.00    +0.000 A 
ATOM      2  N   UNL     1      47.268   3.550  14.504  0.00  0.00    +0.000 NA
ATOM      3  O   UNL     1      46.605   3.040  13.402  0.00  0.00    +0.000 OA
ATOM      4  C   UNL     1      45.968   4.047  12.755  0.00  0.00    +0.000 A 
ATOM      5  C   UNL     1      45.302   3.940  11.543  0.00  0.00    +0.000 A 
ATOM      6  C   UNL     1      44.696   5.105  11.074  0.00  0.00    +0.000 A 
ATOM      7  F   UNL     1      44.093   5.039   9.876  0.00  0.00    +0.000 F 
ATOM      8  C   UNL     1      44.713   6.302  11.803  0.00  0.00    +0.000 A 
ATOM      9  C   UNL     1      45.444   6.378  13.009  0.00  0.00    +0.000 A 
ATOM     10  C   UNL     1      46.111   5.225  13.467  0.00  0.00    +0.000 A 
ENDROOT
BRANCH   8  11
ATOM     11  C   UNL     1      43.981   7.517  11.345  0.00  0.00    +0.000 C 
ATOM     12  N   UNL     1      42.630   7.431  11.169  0.00  0.00    +0.000 N 
ATOM     13  O   UNL     1      44.571   8.574  11.151  0.00  0.00    +0.000 OA
ATOM     14  H   UNL     1      42.102   6.580  11.329  0.00  0.00    +0.000 HD
ATOM     15  H   UNL     1      42.129   8.263  10.888  0.00  0.00    +0.000 HD
ENDBRANCH   8  11
BRANCH   1  16
ATOM     16  C   UNL     1      47.977   5.784  15.232  0.00  0.00    +0.000 C 
BRANCH  16  20
ATOM     17  C   UNL     1      48.594   8.901  12.265  0.00  0.00    +0.000 A 
ATOM     18  C   UNL     1      48.059   9.209  13.526  0.00  0.00    +0.000 A 
ATOM     19  C   UNL     1      47.908   8.220  14.505  0.00  0.00    +0.000 A 
ATOM     20  C   UNL     1      48.291   6.897  14.244  0.00  0.00    +0.000 A 
ATOM     21  C   UNL     1      48.868   6.601  12.996  0.00  0.00    +0.000 A 
ATOM     22  C   UNL     1      49.007   7.589  12.017  0.00  0.00    +0.000 A 
BRANCH  17  23
ATOM     23  C   UNL     1      48.662   9.946  11.181  0.00  0.00    +0.000 C 
BRANCH  23  24
ATOM     24  N   UNL     1      47.681  11.006  11.378  0.00  0.00    +0.000 NA
ATOM     25  H   UNL     1      47.216  11.195  10.492  0.00  0.00    +0.000 HD
ATOM     26  H   UNL     1      48.174  11.861  11.632  0.00  0.00    +0.000 HD
ENDBRANCH  23  24
ENDBRANCH  17  23
ENDBRANCH  16  20
ENDBRANCH   1  16
TORSDOF 5
ENDMDL
MODEL 9
REMARK VINA RESULT:    -6.267      4.592      6.221
REMARK INTER + INTRA:          -7.801
REMARK INTER:                  -7.192
REMARK INTRA:                  -0.609
REMARK UNBOUND:                 0.115
REMARK  Name = 
REMARK  5 active torsions:
REMARK  status: ('A' for Active; 'I' for Inactive)
REMARK    1  A    between atoms: N_1  and  C_2
REMARK    2  A    between atoms: C_2  and  C_3
REMARK    3  A    between atoms: C_6  and  C_7
REMARK    4  A    between atoms: C_7  and  C_8
REMARK    5  A    between atoms: C_15  and  C_16
REMARK                            x       y       z     vdW  Elec       q    Type
REMARK                         _______ _______ _______ _____ _____    ______ ____
ROOT
ATOM      1  C   UNL     1      48.457   7.034  14.546  0.00  0.00    +0.000 A 
ATOM      2  N   UNL     1      48.430   8.372  14.670  0.00  0.00    +0.000 NA
ATOM      3  O   UNL     1      48.814   8.630  15.973  0.00  0.00    +0.000 OA
ATOM      4  C   UNL     1      48.988   7.458  16.631  0.00  0.00    +0.000 A 
ATOM      5  C   UNL     1      49.487   7.315  17.918  0.00  0.00    +0.000 A 
ATOM      6  C   UNL     1      49.559   6.010  18.404  0.00  0.00    +0.000 A 
ATOM      7  F   UNL     1      50.091   5.843  19.626  0.00  0.00    +0.000 F 
ATOM      8  C   UNL     1      49.108   4.911  17.662  0.00  0.00    +0.000 A 
ATOM      9  C   UNL     1      48.653   5.097  16.338  0.00  0.00    +0.000 A 
ATOM     10  C   UNL     1      48.630   6.402  15.811  0.00  0.00    +0.000 A 
ENDROOT
BRANCH   8  11
ATOM     11  C   UNL     1      49.095   3.529  18.223  0.00  0.00    +0.000 C 
ATOM     12  N   UNL     1      48.331   3.288  19.329  0.00  0.00    +0.000 N 
ATOM     13  O   UNL     1      49.735   2.627  17.696  0.00  0.00    +0.000 OA
ATOM     14  H   UNL     1      47.778   4.002  19.790  0.00  0.00    +0.000 HD
ATOM     15  H   UNL     1      48.299   2.344  19.692  0.00  0.00    +0.000 HD
ENDBRANCH   8  11
BRANCH   1  16
ATOM     16  C   UNL     1      48.505   6.419  13.185  0.00  0.00    +0.000 C 
BRANCH  16  20
ATOM     17  C   UNL     1      44.405   5.615  11.982  0.00  0.00    +0.000 A 
ATOM     18  C   UNL     1      44.992   4.907  13.042  0.00  0.00    +0.000 A 
ATOM     19  C   UNL     1      46.293   5.198  13.470  0.00  0.00    +0.000 A 
ATOM     20  C   UNL     1      47.038   6.208  12.846  0.00  0.00    +0.000 A 
ATOM     21  C   UNL     1      46.430   6.946  11.814  0.00  0.00    +0.000 A 
ATOM     22  C   UNL     1      45.136   6.646  11.382  0.00  0.00    +0.000 A 
BRANCH  17  23
ATOM     23  C   UNL     1      43.044   5.233  11.459  0.00  0.00    +0.000 C 
BRANCH  23  24
ATOM     24  N   UNL     1      42.045   6.260  11.730  0.00  0.00    +0.000 NA
ATOM     25  H   UNL     1      42.005   6.425  12.734  0.00  0.00    +0.000 HD
ATOM     26  H   UNL     1      41.130   5.901  11.461  0.00  0.00    +0.000 HD
ENDBRANCH  23  24
ENDBRANCH  17  23
ENDBRANCH  16  20
ENDBRANCH   1  16
TORSDOF 5
ENDMDL
