MODEL 1
REMARK VINA RESULT:    -8.158      0.000      0.000
REMARK INTER + INTRA:         -12.035
REMARK INTER:                 -11.019
REMARK INTRA:                  -1.016
REMARK UNBOUND:                -1.016
REMARK  Name = 
REMARK  7 active torsions:
REMARK  status: ('A' for Active; 'I' for Inactive)
REMARK    1  A    between atoms: C_1  and  C_2
REMARK    2  A    between atoms: C_2  and  N_3
REMARK    3  A    between atoms: C_2  and  C_16
REMARK    4  A    between atoms: C_4  and  C_6
REMARK    5  A    between atoms: C_19  and  C_20
REMARK    6  A    between atoms: C_20  and  N_21
REMARK    7  A    between atoms: C_22  and  C_24
REMARK                            x       y       z     vdW  Elec       q    Type
REMARK                         _______ _______ _______ _____ _____    ______ ____
ROOT
ATOM      1  C   UNL     1      47.292   9.084  13.381  0.00  0.00    +0.000 C 
ATOM      2  C   UNL     1      47.766   7.657  13.676  0.00  0.00    +0.000 C 
ENDROOT
BRANCH   2   3
ATOM      3  C   UNL     1      46.875   6.600  13.041  0.00  0.00    +0.000 A 
ATOM      4  C   UNL     1      46.869   5.301  13.565  0.00  0.00    +0.000 A 
ATOM      5  C   UNL     1      46.042   4.310  13.027  0.00  0.00    +0.000 A 
ATOM      6  C   UNL     1      45.200   4.590  11.944  0.00  0.00    +0.000 A 
ATOM      7  C   UNL     1      45.182   5.895  11.431  0.00  0.00    +0.000 A 
ATOM      8  C   UNL     1      46.018   6.886  11.966  0.00  0.00    +0.000 A 
BRANCH   6   9
ATOM      9  C   UNL     1      44.364   3.500  11.325  0.00  0.00    +0.000 C 
BRANCH   9  10
ATOM     10  N   UNL     1      45.077   2.699  10.368  0.00  0.00    +0.000 N 
ATOM     11  C   UNL     1      45.108   3.042   9.031  0.00  0.00    +0.000 C 
ATOM     12  O   UNL     1      44.504   4.008   8.570  0.00  0.00    +0.000 OA
ATOM     13  H   UNL     1      45.672   1.925  10.653  0.00  0.00    +0.000 HD
BRANCH  11  14
ATOM     14  C   UNL     1      45.935   2.150   8.200  0.00  0.00    +0.000 A 
ATOM     15  C   UNL     1      46.780   2.527   7.121  0.00  0.00    +0.000 A 
ATOM     16  C   UNL     1      47.332   1.357   6.660  0.00  0.00    +0.000 A 
ATOM     17  N   UNL     1      46.817   0.369   7.445  0.00  0.00    +0.000 N 
ATOM     18  N   UNL     1      45.973   0.814   8.392  0.00  0.00    +0.000 NA
ATOM     19  H   UNL     1      46.997  -0.629   7.389  0.00  0.00    +0.000 HD
ENDBRANCH  11  14
ENDBRANCH   9  10
ENDBRANCH   6   9
ENDBRANCH   2   3
BRANCH   2  20
ATOM     20  N   UNL     1      47.850   7.424  15.103  0.00  0.00    +0.000 N 
ATOM     21  C   UNL     1      49.000   7.029  15.731  0.00  0.00    +0.000 C 
ATOM     22  O   UNL     1      50.008   6.682  15.124  0.00  0.00    +0.000 OA
ATOM     23  H   UNL     1      47.100   7.813  15.660  0.00  0.00    +0.000 HD
BRANCH  21  24
ATOM     24  C   UNL     1      48.936   6.999  17.196  0.00  0.00    +0.000 A 
ATOM     25  C   UNL     1      48.847   8.178  17.921  0.00  0.00    +0.000 A 
ATOM     26  S   UNL     1      48.782   7.932  19.609  0.00  0.00    +0.000 S 
ATOM     27  C   UNL     1      48.837   6.241  19.423  0.00  0.00    +0.000 A 
ATOM     28  N   UNL     1      48.795   5.413  20.502  0.00  0.00    +0.000 NA
ATOM     29  C   UNL     1      48.811   4.155  20.210  0.00  0.00    +0.000 A 
ATOM     30  N   UNL     1      48.870   3.649  18.938  0.00  0.00    +0.000 N 
ATOM     31  C   UNL     1      48.957   4.445  17.822  0.00  0.00    +0.000 A 
ATOM     32  O   UNL     1      49.089   3.956  16.704  0.00  0.00    +0.000 OA
ATOM     33  C   UNL     1      48.922   5.869  18.094  0.00  0.00    +0.000 A 
ATOM     34  H   UNL     1      48.899   2.653  18.777  0.00  0.00    +0.000 HD
ENDBRANCH  21  24
ENDBRANCH   2  20
TORSDOF 6
ENDMDL
MODEL 2
REMARK VINA RESULT:    -8.060      1.402      2.017
REMARK INTER + INTRA:         -11.904
REMARK INTER:                 -10.690
REMARK INTRA:                  -1.214
REMARK UNBOUND:                -1.016
REMARK  Name = 
REMARK  7 active torsions:
REMARK  status: ('A' for Active; 'I' for Inactive)
REMARK    1  A    between atoms: C_1  and  C_2
REMARK    2  A    between atoms: C_2  and  N_3
REMARK    3  A    between atoms: C_2  and  C_16
REMARK    4  A    between atoms: C_4  and  C_6
REMARK    5  A    between atoms: C_19  and  C_20
REMARK    6  A    between atoms: C_20  and  N_21
REMARK    7  A    between atoms: C_22  and  C_24
REMARK                            x       y       z     vdW  Elec       q    Type
REMARK                         _______ _______ _______ _____ _____    ______ ____
ROOT
ATOM      1  C   UNL     1      47.489   8.896  13.831  0.00  0.00    +0.000 C 
ATOM      2  C   UNL     1      47.844   7.406  13.803  0.00  0.00    +0.000 C 
ENDROOT
BRANCH   2   3
ATOM      3  C   UNL     1      46.889   6.592  12.943  0.00  0.00    +0.000 A 
ATOM      4  C   UNL     1      46.555   5.288  13.331  0.00  0.00    +0.000 A 
ATOM      5  C   UNL     1      45.659   4.519  12.582  0.00  0.00    +0.000 A 
ATOM      6  C   UNL     1      45.074   5.033  11.418  0.00  0.00    +0.000 A 
ATOM      7  C   UNL     1      45.383   6.346  11.038  0.00  0.00    +0.000 A 
ATOM      8  C   UNL     1      46.289   7.114  11.785  0.00  0.00    +0.000 A 
BRANCH   6   9
ATOM      9  C   UNL     1      44.163   4.174  10.578  0.00  0.00    +0.000 C 
BRANCH   9  10
ATOM     10  N   UNL     1      44.856   3.168   9.822  0.00  0.00    +0.000 N 
ATOM     11  C   UNL     1      45.434   3.461   8.603  0.00  0.00    +0.000 C 
ATOM     12  O   UNL     1      45.357   4.566   8.071  0.00  0.00    +0.000 OA
ATOM     13  H   UNL     1      45.044   2.243  10.204  0.00  0.00    +0.000 HD
BRANCH  11  14
ATOM     14  C   UNL     1      46.156   2.332   7.992  0.00  0.00    +0.000 A 
ATOM     15  C   UNL     1      47.121   2.397   6.950  0.00  0.00    +0.000 A 
ATOM     16  C   UNL     1      47.503   1.098   6.721  0.00  0.00    +0.000 A 
ATOM     17  N   UNL     1      46.784   0.339   7.594  0.00  0.00    +0.000 N 
ATOM     18  N   UNL     1      45.963   1.053   8.384  0.00  0.00    +0.000 NA
ATOM     19  H   UNL     1      46.802  -0.670   7.705  0.00  0.00    +0.000 HD
ENDBRANCH  11  14
ENDBRANCH   9  10
ENDBRANCH   6   9
ENDBRANCH   2   3
BRANCH   2  20
ATOM     20  N   UNL     1      47.875   6.855  15.142  0.00  0.00    +0.000 N 
ATOM     21  C   UNL     1      49.036   6.606  15.823  0.00  0.00    +0.000 C 
ATOM     22  O   UNL     1      50.144   6.672  15.301  0.00  0.00    +0.000 OA
ATOM     23  H   UNL     1      47.007   6.904  15.661  0.00  0.00    +0.000 HD
BRANCH  21  24
ATOM     24  C   UNL     1      48.868   6.202  17.223  0.00  0.00    +0.000 A 
ATOM     25  C   UNL     1      49.228   4.927  17.636  0.00  0.00    +0.000 A 
ATOM     26  S   UNL     1      48.958   4.652  19.298  0.00  0.00    +0.000 S 
ATOM     27  C   UNL     1      48.384   6.239  19.527  0.00  0.00    +0.000 A 
ATOM     28  N   UNL     1      47.995   6.676  20.755  0.00  0.00    +0.000 NA
ATOM     29  C   UNL     1      47.614   7.909  20.787  0.00  0.00    +0.000 A 
ATOM     30  N   UNL     1      47.583   8.746  19.701  0.00  0.00    +0.000 N 
ATOM     31  C   UNL     1      47.927   8.337  18.435  0.00  0.00    +0.000 A 
ATOM     32  O   UNL     1      47.810   9.090  17.473  0.00  0.00    +0.000 OA
ATOM     33  C   UNL     1      48.382   6.962  18.349  0.00  0.00    +0.000 A 
ATOM     34  H   UNL     1      47.256   9.696  19.788  0.00  0.00    +0.000 HD
ENDBRANCH  21  24
ENDBRANCH   2  20
TORSDOF 6
ENDMDL
MODEL 3
REMARK VINA RESULT:    -7.693      3.521      8.427
REMARK INTER + INTRA:         -11.408
REMARK INTER:                 -10.307
REMARK INTRA:                  -1.101
REMARK UNBOUND:                -1.016
REMARK  Name = 
REMARK  7 active torsions:
REMARK  status: ('A' for Active; 'I' for Inactive)
REMARK    1  A    between atoms: C_1  and  C_2
REMARK    2  A    between atoms: C_2  and  N_3
REMARK    3  A    between atoms: C_2  and  C_16
REMARK    4  A    between atoms: C_4  and  C_6
REMARK    5  A    between atoms: C_19  and  C_20
REMARK    6  A    between atoms: C_20  and  N_21
REMARK    7  A    between atoms: C_22  and  C_24
REMARK                            x       y       z     vdW  Elec       q    Type
REMARK                         _______ _______ _______ _____ _____    ______ ____
ROOT
ATOM      1  C   UNL     1      49.486   8.160  11.375  0.00  0.00    +0.000 C 
ATOM      2  C   UNL     1      48.382   7.763  12.360  0.00  0.00    +0.000 C 
ENDROOT
BRANCH   2   3
ATOM      3  C   UNL     1      48.929   7.346  13.717  0.00  0.00    +0.000 A 
ATOM      4  C   UNL     1      50.212   7.760  14.098  0.00  0.00    +0.000 A 
ATOM      5  C   UNL     1      50.737   7.420  15.349  0.00  0.00    +0.000 A 
ATOM      6  C   UNL     1      49.994   6.652  16.253  0.00  0.00    +0.000 A 
ATOM      7  C   UNL     1      48.699   6.258  15.889  0.00  0.00    +0.000 A 
ATOM      8  C   UNL     1      48.176   6.591  14.631  0.00  0.00    +0.000 A 
BRANCH   6   9
ATOM      9  C   UNL     1      50.593   6.232  17.571  0.00  0.00    +0.000 C 
BRANCH   9  10
ATOM     10  N   UNL     1      51.255   4.958  17.522  0.00  0.00    +0.000 N 
ATOM     11  C   UNL     1      50.599   3.797  17.882  0.00  0.00    +0.000 C 
ATOM     12  O   UNL     1      49.444   3.780  18.302  0.00  0.00    +0.000 OA
ATOM     13  H   UNL     1      52.182   4.849  17.118  0.00  0.00    +0.000 HD
BRANCH  11  14
ATOM     14  C   UNL     1      51.403   2.575  17.714  0.00  0.00    +0.000 A 
ATOM     15  C   UNL     1      52.748   2.371  18.130  0.00  0.00    +0.000 A 
ATOM     16  C   UNL     1      53.059   1.088  17.752  0.00  0.00    +0.000 A 
ATOM     17  N   UNL     1      51.940   0.595  17.150  0.00  0.00    +0.000 N 
ATOM     18  N   UNL     1      50.916   1.466  17.115  0.00  0.00    +0.000 NA
ATOM     19  H   UNL     1      51.806  -0.324  16.741  0.00  0.00    +0.000 HD
ENDBRANCH  11  14
ENDBRANCH   9  10
ENDBRANCH   6   9
ENDBRANCH   2   3
BRANCH   2  20
ATOM     20  N   UNL     1      47.566   6.695  11.820  0.00  0.00    +0.000 N 
ATOM     21  C   UNL     1      46.255   6.862  11.463  0.00  0.00    +0.000 C 
ATOM     22  O   UNL     1      45.616   7.877  11.720  0.00  0.00    +0.000 OA
ATOM     23  H   UNL     1      48.067   5.888  11.470  0.00  0.00    +0.000 HD
BRANCH  21  24
ATOM     24  C   UNL     1      45.638   5.716  10.787  0.00  0.00    +0.000 A 
ATOM     25  C   UNL     1      45.822   5.519   9.426  0.00  0.00    +0.000 A 
ATOM     26  S   UNL     1      45.026   4.132   8.829  0.00  0.00    +0.000 S 
ATOM     27  C   UNL     1      44.439   3.732  10.376  0.00  0.00    +0.000 A 
ATOM     28  N   UNL     1      43.683   2.618  10.576  0.00  0.00    +0.000 NA
ATOM     29  C   UNL     1      43.336   2.421  11.803  0.00  0.00    +0.000 A 
ATOM     30  N   UNL     1      43.672   3.239  12.851  0.00  0.00    +0.000 N 
ATOM     31  C   UNL     1      44.396   4.395  12.692  0.00  0.00    +0.000 A 
ATOM     32  O   UNL     1      44.610   5.145  13.640  0.00  0.00    +0.000 OA
ATOM     33  C   UNL     1      44.829   4.652  11.331  0.00  0.00    +0.000 A 
ATOM     34  H   UNL     1      43.351   3.040  13.787  0.00  0.00    +0.000 HD
ENDBRANCH  21  24
ENDBRANCH   2  20
TORSDOF 6
ENDMDL
MODEL 4
REMARK VINA RESULT:    -7.563      2.869      3.695
REMARK INTER + INTRA:         -11.231
REMARK INTER:                 -10.055
REMARK INTRA:                  -1.177
REMARK UNBOUND:                -1.016
REMARK  Name = 
REMARK  7 active torsions:
REMARK  status: ('A' for Active; 'I' for Inactive)
REMARK    1  A    between atoms: C_1  and  C_2
REMARK    2  A    between atoms: C_2  and  N_3
REMARK    3  A    between atoms: C_2  and  C_16
REMARK    4  A    between atoms: C_4  and  C_6
REMARK    5  A    between atoms: C_19  and  C_20
REMARK    6  A    between atoms: C_20  and  N_21
REMARK    7  A    between atoms: C_22  and  C_24
REMARK                            x       y       z     vdW  Elec       q    Type
REMARK                         _______ _______ _______ _____ _____    ______ ____
ROOT
ATOM      1  C   UNL     1      47.141   4.422  15.300  0.00  0.00    +0.000 C 
ATOM      2  C   UNL     1      46.967   5.610  14.348  0.00  0.00    +0.000 C 
ENDROOT
BRANCH   2   3
ATOM      3  C   UNL     1      46.311   5.217  13.033  0.00  0.00    +0.000 A 
ATOM      4  C   UNL     1      45.658   3.981  12.933  0.00  0.00    +0.000 A 
ATOM      5  C   UNL     1      45.020   3.597  11.749  0.00  0.00    +0.000 A 
ATOM      6  C   UNL     1      45.020   4.438  10.629  0.00  0.00    +0.000 A 
ATOM      7  C   UNL     1      45.649   5.687  10.731  0.00  0.00    +0.000 A 
ATOM      8  C   UNL     1      46.297   6.068  11.916  0.00  0.00    +0.000 A 
BRANCH   6   9
ATOM      9  C   UNL     1      44.390   3.988   9.336  0.00  0.00    +0.000 C 
BRANCH   9  10
ATOM     10  N   UNL     1      45.342   3.715   8.296  0.00  0.00    +0.000 N 
ATOM     11  C   UNL     1      45.905   2.462   8.154  0.00  0.00    +0.000 C 
ATOM     12  O   UNL     1      45.670   1.528   8.918  0.00  0.00    +0.000 OA
ATOM     13  H   UNL     1      45.549   4.391   7.565  0.00  0.00    +0.000 HD
BRANCH  11  14
ATOM     14  C   UNL     1      46.813   2.337   7.001  0.00  0.00    +0.000 A 
ATOM     15  C   UNL     1      46.665   2.948   5.725  0.00  0.00    +0.000 A 
ATOM     16  C   UNL     1      47.748   2.533   4.991  0.00  0.00    +0.000 A 
ATOM     17  N   UNL     1      48.470   1.724   5.816  0.00  0.00    +0.000 N 
ATOM     18  N   UNL     1      47.937   1.588   7.043  0.00  0.00    +0.000 NA
ATOM     19  H   UNL     1      49.333   1.232   5.609  0.00  0.00    +0.000 HD
ENDBRANCH  11  14
ENDBRANCH   9  10
ENDBRANCH   6   9
ENDBRANCH   2   3
BRANCH   2  20
ATOM     20  N   UNL     1      48.239   6.250  14.080  0.00  0.00    +0.000 N 
ATOM     21  C   UNL     1      48.444   7.596  14.223  0.00  0.00    +0.000 C 
ATOM     22  O   UNL     1      47.535   8.393  14.428  0.00  0.00    +0.000 OA
ATOM     23  H   UNL     1      49.042   5.636  14.036  0.00  0.00    +0.000 HD
BRANCH  21  24
ATOM     24  C   UNL     1      49.833   8.038  14.063  0.00  0.00    +0.000 A 
ATOM     25  C   UNL     1      50.166   8.982  13.102  0.00  0.00    +0.000 A 
ATOM     26  S   UNL     1      51.829   9.365  13.075  0.00  0.00    +0.000 S 
ATOM     27  C   UNL     1      52.152   8.308  14.370  0.00  0.00    +0.000 A 
ATOM     28  N   UNL     1      53.410   8.172  14.869  0.00  0.00    +0.000 NA
ATOM     29  C   UNL     1      53.503   7.362  15.871  0.00  0.00    +0.000 A 
ATOM     30  N   UNL     1      52.451   6.672  16.417  0.00  0.00    +0.000 N 
ATOM     31  C   UNL     1      51.173   6.745  15.920  0.00  0.00    +0.000 A 
ATOM     32  O   UNL     1      50.272   6.051  16.383  0.00  0.00    +0.000 OA
ATOM     33  C   UNL     1      51.012   7.659  14.805  0.00  0.00    +0.000 A 
ATOM     34  H   UNL     1      52.593   6.037  17.189  0.00  0.00    +0.000 HD
ENDBRANCH  21  24
ENDBRANCH   2  20
TORSDOF 6
ENDMDL
MODEL 5
REMARK VINA RESULT:    -7.542      2.999      4.629
REMARK INTER + INTRA:         -11.204
REMARK INTER:                  -9.991
REMARK INTRA:                  -1.213
REMARK UNBOUND:                -1.016
REMARK  Name = 
REMARK  7 active torsions:
REMARK  status: ('A' for Active; 'I' for Inactive)
REMARK    1  A    between atoms: C_1  and  C_2
REMARK    2  A    between atoms: C_2  and  N_3
REMARK    3  A    between atoms: C_2  and  C_16
REMARK    4  A    between atoms: C_4  and  C_6
REMARK    5  A    between atoms: C_19  and  C_20
REMARK    6  A    between atoms: C_20  and  N_21
REMARK    7  A    between atoms: C_22  and  C_24
REMARK                            x       y       z     vdW  Elec       q    Type
REMARK                         _______ _______ _______ _____ _____    ______ ____
ROOT
ATOM      1  C   UNL     1      47.222   4.446  15.375  0.00  0.00    +0.000 C 
ATOM      2  C   UNL     1      47.062   5.643  14.434  0.00  0.00    +0.000 C 
ENDROOT
BRANCH   2   3
ATOM      3  C   UNL     1      46.389   5.272  13.121  0.00  0.00    +0.000 A 
ATOM      4  C   UNL     1      45.731   4.040  13.010  0.00  0.00    +0.000 A 
ATOM      5  C   UNL     1      45.077   3.676  11.829  0.00  0.00    +0.000 A 
ATOM      6  C   UNL     1      45.067   4.533  10.722  0.00  0.00    +0.000 A 
ATOM      7  C   UNL     1      45.702   5.778  10.835  0.00  0.00    +0.000 A 
ATOM      8  C   UNL     1      46.365   6.139  12.017  0.00  0.00    +0.000 A 
BRANCH   6   9
ATOM      9  C   UNL     1      44.420   4.105   9.429  0.00  0.00    +0.000 C 
BRANCH   9  10
ATOM     10  N   UNL     1      45.360   3.823   8.380  0.00  0.00    +0.000 N 
ATOM     11  C   UNL     1      45.899   2.561   8.223  0.00  0.00    +0.000 C 
ATOM     12  O   UNL     1      45.652   1.626   8.980  0.00  0.00    +0.000 OA
ATOM     13  H   UNL     1      45.575   4.503   7.654  0.00  0.00    +0.000 HD
BRANCH  11  14
ATOM     14  C   UNL     1      46.796   2.430   7.063  0.00  0.00    +0.000 A 
ATOM     15  C   UNL     1      46.611   2.993   5.770  0.00  0.00    +0.000 A 
ATOM     16  C   UNL     1      47.699   2.592   5.035  0.00  0.00    +0.000 A 
ATOM     17  N   UNL     1      48.460   1.838   5.877  0.00  0.00    +0.000 N 
ATOM     18  N   UNL     1      47.947   1.724   7.115  0.00  0.00    +0.000 NA
ATOM     19  H   UNL     1      49.338   1.370   5.674  0.00  0.00    +0.000 HD
ENDBRANCH  11  14
ENDBRANCH   9  10
ENDBRANCH   6   9
ENDBRANCH   2   3
BRANCH   2  20
ATOM     20  N   UNL     1      48.343   6.262  14.161  0.00  0.00    +0.000 N 
ATOM     21  C   UNL     1      48.612   7.578  14.430  0.00  0.00    +0.000 C 
ATOM     22  O   UNL     1      47.749   8.380  14.768  0.00  0.00    +0.000 OA
ATOM     23  H   UNL     1      49.117   5.629  14.008  0.00  0.00    +0.000 HD
BRANCH  21  24
ATOM     24  C   UNL     1      50.007   7.985  14.238  0.00  0.00    +0.000 A 
ATOM     25  C   UNL     1      50.818   8.258  15.330  0.00  0.00    +0.000 A 
ATOM     26  S   UNL     1      52.405   8.713  14.898  0.00  0.00    +0.000 S 
ATOM     27  C   UNL     1      52.070   8.525  13.239  0.00  0.00    +0.000 A 
ATOM     28  N   UNL     1      53.029   8.744  12.299  0.00  0.00    +0.000 NA
ATOM     29  C   UNL     1      52.644   8.532  11.085  0.00  0.00    +0.000 A 
ATOM     30  N   UNL     1      51.385   8.125  10.724  0.00  0.00    +0.000 N 
ATOM     31  C   UNL     1      50.374   7.933  11.634  0.00  0.00    +0.000 A 
ATOM     32  O   UNL     1      49.238   7.647  11.268  0.00  0.00    +0.000 OA
ATOM     33  C   UNL     1      50.762   8.139  13.017  0.00  0.00    +0.000 A 
ATOM     34  H   UNL     1      51.141   7.996   9.754  0.00  0.00    +0.000 HD
ENDBRANCH  21  24
ENDBRANCH   2  20
TORSDOF 6
ENDMDL
MODEL 6
REMARK VINA RESULT:    -7.294      3.242      8.798
REMARK INTER + INTRA:         -10.868
REMARK INTER:                  -9.802
REMARK INTRA:                  -1.066
REMARK UNBOUND:                -1.016
REMARK  Name = 
REMARK  7 active torsions:
REMARK  status: ('A' for Active; 'I' for Inactive)
REMARK    1  A    between atoms: C_1  and  C_2
REMARK    2  A    between atoms: C_2  and  N_3
REMARK    3  A    between atoms: C_2  and  C_16
REMARK    4  A    between atoms: C_4  and  C_6
REMARK    5  A    between atoms: C_19  and  C_20
REMARK    6  A    between atoms: C_20  and  N_21
REMARK    7  A    between atoms: C_22  and  C_24
REMARK                            x       y       z     vdW  Elec       q    Type
REMARK                         _______ _______ _______ _____ _____    ______ ____
ROOT
ATOM      1  C   UNL     1      48.480   7.858  11.408  0.00  0.00    +0.000 C 
ATOM      2  C   UNL     1      47.642   7.413  12.610  0.00  0.00    +0.000 C 
ENDROOT
BRANCH   2   3
ATOM      3  C   UNL     1      48.489   7.123  13.841  0.00  0.00    +0.000 A 
ATOM      4  C   UNL     1      47.981   6.286  14.843  0.00  0.00    +0.000 A 
ATOM      5  C   UNL     1      48.741   5.973  15.975  0.00  0.00    +0.000 A 
ATOM      6  C   UNL     1      50.031   6.493  16.138  0.00  0.00    +0.000 A 
ATOM      7  C   UNL     1      50.555   7.310  15.126  0.00  0.00    +0.000 A 
ATOM      8  C   UNL     1      49.789   7.630  13.995  0.00  0.00    +0.000 A 
BRANCH   6   9
ATOM      9  C   UNL     1      50.816   6.208  17.392  0.00  0.00    +0.000 C 
BRANCH   9  10
ATOM     10  N   UNL     1      51.446   4.917  17.396  0.00  0.00    +0.000 N 
ATOM     11  C   UNL     1      50.784   3.800  17.867  0.00  0.00    +0.000 C 
ATOM     12  O   UNL     1      49.654   3.841  18.347  0.00  0.00    +0.000 OA
ATOM     13  H   UNL     1      52.347   4.757  16.952  0.00  0.00    +0.000 HD
BRANCH  11  14
ATOM     14  C   UNL     1      51.550   2.548  17.741  0.00  0.00    +0.000 A 
ATOM     15  C   UNL     1      52.936   2.364  18.001  0.00  0.00    +0.000 A 
ATOM     16  C   UNL     1      53.186   1.039  17.739  0.00  0.00    +0.000 A 
ATOM     17  N   UNL     1      51.995   0.506  17.348  0.00  0.00    +0.000 N 
ATOM     18  N   UNL     1      50.981   1.389  17.344  0.00  0.00    +0.000 NA
ATOM     19  H   UNL     1      51.801  -0.451  17.070  0.00  0.00    +0.000 HD
ENDBRANCH  11  14
ENDBRANCH   9  10
ENDBRANCH   6   9
ENDBRANCH   2   3
BRANCH   2  20
ATOM     20  N   UNL     1      46.849   6.245  12.285  0.00  0.00    +0.000 N 
ATOM     21  C   UNL     1      45.482   6.268  12.198  0.00  0.00    +0.000 C 
ATOM     22  O   UNL     1      44.807   7.231  12.547  0.00  0.00    +0.000 OA
ATOM     23  H   UNL     1      47.350   5.472  11.867  0.00  0.00    +0.000 HD
BRANCH  21  24
ATOM     24  C   UNL     1      44.864   5.035  11.701  0.00  0.00    +0.000 A 
ATOM     25  C   UNL     1      44.038   4.281  12.522  0.00  0.00    +0.000 A 
ATOM     26  S   UNL     1      43.417   2.886  11.761  0.00  0.00    +0.000 S 
ATOM     27  C   UNL     1      44.204   3.263  10.299  0.00  0.00    +0.000 A 
ATOM     28  N   UNL     1      44.071   2.468   9.203  0.00  0.00    +0.000 NA
ATOM     29  C   UNL     1      44.696   2.893   8.156  0.00  0.00    +0.000 A 
ATOM     30  N   UNL     1      45.446   4.039   8.105  0.00  0.00    +0.000 N 
ATOM     31  C   UNL     1      45.643   4.850   9.196  0.00  0.00    +0.000 A 
ATOM     32  O   UNL     1      46.387   5.824   9.136  0.00  0.00    +0.000 OA
ATOM     33  C   UNL     1      44.944   4.426  10.395  0.00  0.00    +0.000 A 
ATOM     34  H   UNL     1      45.927   4.306   7.259  0.00  0.00    +0.000 HD
ENDBRANCH  21  24
ENDBRANCH   2  20
TORSDOF 6
ENDMDL
MODEL 7
REMARK VINA RESULT:    -7.226      2.560      4.064
REMARK INTER + INTRA:         -10.776
REMARK INTER:                  -9.782
REMARK INTRA:                  -0.995
REMARK UNBOUND:                -1.016
REMARK  Name = 
REMARK  7 active torsions:
REMARK  status: ('A' for Active; 'I' for Inactive)
REMARK    1  A    between atoms: C_1  and  C_2
REMARK    2  A    between atoms: C_2  and  N_3
REMARK    3  A    between atoms: C_2  and  C_16
REMARK    4  A    between atoms: C_4  and  C_6
REMARK    5  A    between atoms: C_19  and  C_20
REMARK    6  A    between atoms: C_20  and  N_21
REMARK    7  A    between atoms: C_22  and  C_24
REMARK                            x       y       z     vdW  Elec       q    Type
REMARK                         _______ _______ _______ _____ _____    ______ ____
ROOT
ATOM      1  C   UNL     1      47.515   3.513  15.639  0.00  0.00    +0.000 C 
ATOM      2  C   UNL     1      47.000   4.863  15.133  0.00  0.00    +0.000 C 
ENDROOT
BRANCH   2   3
ATOM      3  C   UNL     1      46.287   4.754  13.793  0.00  0.00    +0.000 A 
ATOM      4  C   UNL     1      45.950   3.489  13.294  0.00  0.00    +0.000 A 
ATOM      5  C   UNL     1      45.270   3.351  12.080  0.00  0.00    +0.000 A 
ATOM      6  C   UNL     1      44.911   4.476  11.327  0.00  0.00    +0.000 A 
ATOM      7  C   UNL     1      45.222   5.746  11.833  0.00  0.00    +0.000 A 
ATOM      8  C   UNL     1      45.912   5.883  13.047  0.00  0.00    +0.000 A 
BRANCH   6   9
ATOM      9  C   UNL     1      44.240   4.316   9.987  0.00  0.00    +0.000 C 
BRANCH   9  10
ATOM     10  N   UNL     1      45.158   4.087   8.907  0.00  0.00    +0.000 N 
ATOM     11  C   UNL     1      45.442   2.809   8.468  0.00  0.00    +0.000 C 
ATOM     12  O   UNL     1      44.975   1.799   8.990  0.00  0.00    +0.000 OA
ATOM     13  H   UNL     1      45.541   4.852   8.356  0.00  0.00    +0.000 HD
BRANCH  11  14
ATOM     14  C   UNL     1      46.355   2.757   7.313  0.00  0.00    +0.000 A 
ATOM     15  C   UNL     1      47.316   1.749   7.027  0.00  0.00    +0.000 A 
ATOM     16  C   UNL     1      47.921   2.140   5.857  0.00  0.00    +0.000 A 
ATOM     17  N   UNL     1      47.327   3.314   5.505  0.00  0.00    +0.000 N 
ATOM     18  N   UNL     1      46.369   3.715   6.360  0.00  0.00    +0.000 NA
ATOM     19  H   UNL     1      47.525   3.896   4.697  0.00  0.00    +0.000 HD
ENDBRANCH  11  14
ENDBRANCH   9  10
ENDBRANCH   6   9
ENDBRANCH   2   3
BRANCH   2  20
ATOM     20  N   UNL     1      48.080   5.823  15.027  0.00  0.00    +0.000 N 
ATOM     21  C   UNL     1      48.768   6.298  16.111  0.00  0.00    +0.000 C 
ATOM     22  O   UNL     1      48.424   6.082  17.268  0.00  0.00    +0.000 OA
ATOM     23  H   UNL     1      48.486   5.934  14.106  0.00  0.00    +0.000 HD
BRANCH  21  24
ATOM     24  C   UNL     1      49.930   7.136  15.798  0.00  0.00    +0.000 A 
ATOM     25  C   UNL     1      51.198   6.772  16.231  0.00  0.00    +0.000 A 
ATOM     26  S   UNL     1      52.415   7.874  15.766  0.00  0.00    +0.000 S 
ATOM     27  C   UNL     1      51.293   8.854  14.942  0.00  0.00    +0.000 A 
ATOM     28  N   UNL     1      51.689   9.979  14.287  0.00  0.00    +0.000 NA
ATOM     29  C   UNL     1      50.739  10.606  13.679  0.00  0.00    +0.000 A 
ATOM     30  N   UNL     1      49.425  10.214  13.670  0.00  0.00    +0.000 N 
ATOM     31  C   UNL     1      48.971   9.111  14.351  0.00  0.00    +0.000 A 
ATOM     32  O   UNL     1      47.776   8.836  14.388  0.00  0.00    +0.000 OA
ATOM     33  C   UNL     1      50.006   8.359  15.035  0.00  0.00    +0.000 A 
ATOM     34  H   UNL     1      48.725  10.760  13.191  0.00  0.00    +0.000 HD
ENDBRANCH  21  24
ENDBRANCH   2  20
TORSDOF 6
ENDMDL
MODEL 8
REMARK VINA RESULT:    -7.215      3.461      4.806
REMARK INTER + INTRA:         -10.762
REMARK INTER:                  -9.611
REMARK INTRA:                  -1.152
REMARK UNBOUND:                -1.016
REMARK  Name = 
REMARK  7 active torsions:
REMARK  status: ('A' for Active; 'I' for Inactive)
REMARK    1  A    between atoms: C_1  and  C_2
REMARK    2  A    between atoms: C_2  and  N_3
REMARK    3  A    between atoms: C_2  and  C_16
REMARK    4  A    between atoms: C_4  and  C_6
REMARK    5  A    between atoms: C_19  and  C_20
REMARK    6  A    between atoms: C_20  and  N_21
REMARK    7  A    between atoms: C_22  and  C_24
REMARK                            x       y       z     vdW  Elec       q    Type
REMARK                         _______ _______ _______ _____ _____    ______ ____
ROOT
ATOM      1  C   UNL     1      47.849   2.982  17.835  0.00  0.00    +0.000 C 
ATOM      2  C   UNL     1      48.573   4.283  17.473  0.00  0.00    +0.000 C 
ENDROOT
BRANCH   2   3
ATOM      3  C   UNL     1      48.075   4.888  16.170  0.00  0.00    +0.000 A 
ATOM      4  C   UNL     1      48.616   6.101  15.724  0.00  0.00    +0.000 A 
ATOM      5  C   UNL     1      48.204   6.675  14.517  0.00  0.00    +0.000 A 
ATOM      6  C   UNL     1      47.234   6.052  13.722  0.00  0.00    +0.000 A 
ATOM      7  C   UNL     1      46.707   4.824  14.149  0.00  0.00    +0.000 A 
ATOM      8  C   UNL     1      47.115   4.254  15.364  0.00  0.00    +0.000 A 
BRANCH   6   9
ATOM      9  C   UNL     1      46.745   6.709  12.457  0.00  0.00    +0.000 C 
BRANCH   9  10
ATOM     10  N   UNL     1      46.429   5.779  11.409  0.00  0.00    +0.000 N 
ATOM     11  C   UNL     1      45.121   5.540  11.036  0.00  0.00    +0.000 C 
ATOM     12  O   UNL     1      44.157   6.060  11.593  0.00  0.00    +0.000 OA
ATOM     13  H   UNL     1      47.151   5.353  10.833  0.00  0.00    +0.000 HD
BRANCH  11  14
ATOM     14  C   UNL     1      44.979   4.606   9.905  0.00  0.00    +0.000 A 
ATOM     15  C   UNL     1      45.687   4.642   8.673  0.00  0.00    +0.000 A 
ATOM     16  C   UNL     1      45.210   3.579   7.944  0.00  0.00    +0.000 A 
ATOM     17  N   UNL     1      44.276   2.977   8.732  0.00  0.00    +0.000 N 
ATOM     18  N   UNL     1      44.115   3.568   9.929  0.00  0.00    +0.000 NA
ATOM     19  H   UNL     1      43.711   2.162   8.517  0.00  0.00    +0.000 HD
ENDBRANCH  11  14
ENDBRANCH   9  10
ENDBRANCH   6   9
ENDBRANCH   2   3
BRANCH   2  20
ATOM     20  N   UNL     1      50.004   4.073  17.391  0.00  0.00    +0.000 N 
ATOM     21  C   UNL     1      50.841   4.194  18.468  0.00  0.00    +0.000 C 
ATOM     22  O   UNL     1      50.479   4.647  19.549  0.00  0.00    +0.000 OA
ATOM     23  H   UNL     1      50.333   3.579  16.572  0.00  0.00    +0.000 HD
BRANCH  21  24
ATOM     24  C   UNL     1      52.230   3.787  18.231  0.00  0.00    +0.000 A 
ATOM     25  C   UNL     1      53.271   4.680  18.443  0.00  0.00    +0.000 A 
ATOM     26  S   UNL     1      54.809   4.018  18.114  0.00  0.00    +0.000 S 
ATOM     27  C   UNL     1      54.136   2.507  17.710  0.00  0.00    +0.000 A 
ATOM     28  N   UNL     1      54.925   1.461  17.346  0.00  0.00    +0.000 NA
ATOM     29  C   UNL     1      54.283   0.368  17.099  0.00  0.00    +0.000 A 
ATOM     30  N   UNL     1      52.922   0.227  17.180  0.00  0.00    +0.000 N 
ATOM     31  C   UNL     1      52.082   1.265  17.501  0.00  0.00    +0.000 A 
ATOM     32  O   UNL     1      50.863   1.124  17.485  0.00  0.00    +0.000 OA
ATOM     33  C   UNL     1      52.757   2.512  17.807  0.00  0.00    +0.000 A 
ATOM     34  H   UNL     1      52.478  -0.651  16.955  0.00  0.00    +0.000 HD
ENDBRANCH  21  24
ENDBRANCH   2  20
TORSDOF 6
ENDMDL
MODEL 9
REMARK VINA RESULT:    -6.742      3.592      4.920
REMARK INTER + INTRA:         -10.123
REMARK INTER:                  -8.944
REMARK INTRA:                  -1.180
REMARK UNBOUND:                -1.016
REMARK  Name = 
REMARK  7 active torsions:
REMARK  status: ('A' for Active; 'I' for Inactive)
REMARK    1  A    between atoms: C_1  and  C_2
REMARK    2  A    between atoms: C_2  and  N_3
REMARK    3  A    between atoms: C_2  and  C_16
REMARK    4  A    between atoms: C_4  and  C_6
REMARK    5  A    between atoms: C_19  and  C_20
REMARK    6  A    between atoms: C_20  and  N_21
REMARK    7  A    between atoms: C_22  and  C_24
REMARK                            x       y       z     vdW  Elec       q    Type
REMARK                         _______ _______ _______ _____ _____    ______ ____
ROOT
ATOM      1  C   UNL     1      48.646   6.338  15.640  0.00  0.00    +0.000 C 
ATOM      2  C   UNL     1      48.303   7.047  14.327  0.00  0.00    +0.000 C 
ENDROOT
BRANCH   2   3
ATOM      3  C   UNL     1      47.307   6.267  13.481  0.00  0.00    +0.000 A 
ATOM      4  C   UNL     1      46.799   6.845  12.310  0.00  0.00    +0.000 A 
ATOM      5  C   UNL     1      45.903   6.149  11.493  0.00  0.00    +0.000 A 
ATOM      6  C   UNL     1      45.488   4.854  11.826  0.00  0.00    +0.000 A 
ATOM      7  C   UNL     1      46.013   4.259  12.982  0.00  0.00    +0.000 A 
ATOM      8  C   UNL     1      46.904   4.962  13.806  0.00  0.00    +0.000 A 
BRANCH   6   9
ATOM      9  C   UNL     1      44.470   4.136  10.977  0.00  0.00    +0.000 C 
BRANCH   9  10
ATOM     10  N   UNL     1      45.044   3.164  10.088  0.00  0.00    +0.000 N 
ATOM     11  C   UNL     1      45.513   3.525   8.841  0.00  0.00    +0.000 C 
ATOM     12  O   UNL     1      45.433   4.669   8.397  0.00  0.00    +0.000 OA
ATOM     13  H   UNL     1      45.228   2.208  10.384  0.00  0.00    +0.000 HD
BRANCH  11  14
ATOM     14  C   UNL     1      46.126   2.420   8.085  0.00  0.00    +0.000 A 
ATOM     15  C   UNL     1      46.910   2.523   6.903  0.00  0.00    +0.000 A 
ATOM     16  C   UNL     1      47.248   1.233   6.572  0.00  0.00    +0.000 A 
ATOM     17  N   UNL     1      46.678   0.444   7.524  0.00  0.00    +0.000 N 
ATOM     18  N   UNL     1      45.997   1.129   8.460  0.00  0.00    +0.000 NA
ATOM     19  H   UNL     1      46.712  -0.568   7.597  0.00  0.00    +0.000 HD
ENDBRANCH  11  14
ENDBRANCH   9  10
ENDBRANCH   6   9
ENDBRANCH   2   3
BRANCH   2  20
ATOM     20  N   UNL     1      49.499   7.303  13.549  0.00  0.00    +0.000 N 
ATOM     21  C   UNL     1      49.818   8.537  13.051  0.00  0.00    +0.000 C 
ATOM     22  O   UNL     1      49.044   9.489  13.077  0.00  0.00    +0.000 OA
ATOM     23  H   UNL     1      50.224   6.599  13.608  0.00  0.00    +0.000 HD
BRANCH  21  24
ATOM     24  C   UNL     1      51.142   8.640  12.429  0.00  0.00    +0.000 A 
ATOM     25  C   UNL     1      51.268   8.999  11.095  0.00  0.00    +0.000 A 
ATOM     26  S   UNL     1      52.888   9.064  10.561  0.00  0.00    +0.000 S 
ATOM     27  C   UNL     1      53.474   8.649  12.105  0.00  0.00    +0.000 A 
ATOM     28  N   UNL     1      54.809   8.550  12.347  0.00  0.00    +0.000 NA
ATOM     29  C   UNL     1      55.110   8.260  13.569  0.00  0.00    +0.000 A 
ATOM     30  N   UNL     1      54.197   8.056  14.571  0.00  0.00    +0.000 N 
ATOM     31  C   UNL     1      52.840   8.103  14.364  0.00  0.00    +0.000 A 
ATOM     32  O   UNL     1      52.052   7.835  15.266  0.00  0.00    +0.000 OA
ATOM     33  C   UNL     1      52.449   8.445  13.010  0.00  0.00    +0.000 A 
ATOM     34  H   UNL     1      54.497   7.813  15.503  0.00  0.00    +0.000 HD
ENDBRANCH  21  24
ENDBRANCH   2  20
TORSDOF 6
ENDMDL
