MODEL 1
REMARK VINA RESULT:    -8.291      0.000      0.000
REMARK INTER + INTRA:         -11.947
REMARK INTER:                 -11.199
REMARK INTRA:                  -0.748
REMARK UNBOUND:                -0.748
REMARK  Name = 
REMARK  6 active torsions:
REMARK  status: ('A' for Active; 'I' for Inactive)
REMARK    1  A    between atoms: C_2  and  C_25
REMARK    2  A    between atoms: N_3  and  C_4
REMARK    3  A    between atoms: C_4  and  C_5
REMARK    4  A    between atoms: C_8  and  C_9
REMARK    5  A    between atoms: C_9  and  N_10
REMARK    6  A    between atoms: C_11  and  C_13
REMARK                            x       y       z     vdW  Elec       q    Type
REMARK                         _______ _______ _______ _____ _____    ______ ____
ROOT
ATOM      1  C   UNL     1      44.620   5.294  11.351  0.00  0.00    +0.000 A 
ATOM      2  C   UNL     1      45.730   4.822  12.064  0.00  0.00    +0.000 A 
ATOM      3  C   UNL     1      46.567   5.708  12.755  0.00  0.00    +0.000 A 
ATOM      4  C   UNL     1      46.299   7.083  12.764  0.00  0.00    +0.000 A 
ATOM      5  C   UNL     1      45.190   7.555  12.050  0.00  0.00    +0.000 A 
ATOM      6  C   UNL     1      44.353   6.670  11.361  0.00  0.00    +0.000 A 
ENDROOT
BRANCH   1   7
ATOM      7  C   UNL     1      43.761   4.354  10.548  0.00  0.00    +0.000 C 
BRANCH   7  10
ATOM      8  O   UNL     1      45.346   4.730   8.265  0.00  0.00    +0.000 OA
ATOM      9  C   UNL     1      45.247   3.617   8.766  0.00  0.00    +0.000 C 
ATOM     10  N   UNL     1      44.498   3.312   9.879  0.00  0.00    +0.000 N 
ATOM     11  H   UNL     1      44.494   2.355  10.217  0.00  0.00    +0.000 HD
BRANCH   9  12
ATOM     12  C   UNL     1      45.988   2.465   8.144  0.00  0.00    +0.000 C 
ATOM     13  C   UNL     1      46.979   2.658   7.073  0.00  0.00    +0.000 C 
ATOM     14  C   UNL     1      47.443   1.333   6.812  0.00  0.00    +0.000 C 
ATOM     15  C   UNL     1      46.761   0.546   7.658  0.00  0.00    +0.000 C 
ATOM     16  N   UNL     1      45.861   1.204   8.485  0.00  0.00    +0.000 NA
ENDBRANCH   9  12
ENDBRANCH   7  10
ENDBRANCH   1   7
BRANCH   4  17
ATOM     17  C   UNL     1      47.202   8.048  13.491  0.00  0.00    +0.000 C 
BRANCH  17  18
ATOM     18  N   UNL     1      47.658   7.503  14.746  0.00  0.00    +0.000 N 
ATOM     19  C   UNL     1      48.935   7.021  14.892  0.00  0.00    +0.000 C 
ATOM     20  O   UNL     1      49.761   7.080  13.985  0.00  0.00    +0.000 OA
ATOM     21  H   UNL     1      46.944   7.230  15.412  0.00  0.00    +0.000 HD
BRANCH  19  22
ATOM     22  C   UNL     1      49.285   6.483  16.213  0.00  0.00    +0.000 A 
ATOM     23  C   UNL     1      50.242   7.127  16.988  0.00  0.00    +0.000 A 
ATOM     24  S   UNL     1      50.491   6.404  18.512  0.00  0.00    +0.000 S 
ATOM     25  C   UNL     1      49.368   5.172  18.171  0.00  0.00    +0.000 A 
ATOM     26  N   UNL     1      49.118   4.184  19.072  0.00  0.00    +0.000 NA
ATOM     27  C   UNL     1      48.269   3.298  18.671  0.00  0.00    +0.000 A 
ATOM     28  N   UNL     1      47.643   3.314  17.451  0.00  0.00    +0.000 N 
ATOM     29  C   UNL     1      47.845   4.305  16.520  0.00  0.00    +0.000 A 
ATOM     30  O   UNL     1      47.241   4.308  15.453  0.00  0.00    +0.000 OA
ATOM     31  C   UNL     1      48.799   5.322  16.919  0.00  0.00    +0.000 A 
ATOM     32  H   UNL     1      46.982   2.594  17.199  0.00  0.00    +0.000 HD
ENDBRANCH  19  22
ENDBRANCH  17  18
ENDBRANCH   4  17
TORSDOF 6
ENDMDL
MODEL 2
REMARK VINA RESULT:    -7.722      1.870      2.391
REMARK INTER + INTRA:         -11.178
REMARK INTER:                 -10.293
REMARK INTRA:                  -0.886
REMARK UNBOUND:                -0.748
REMARK  Name = 
REMARK  6 active torsions:
REMARK  status: ('A' for Active; 'I' for Inactive)
REMARK    1  A    between atoms: C_2  and  C_25
REMARK    2  A    between atoms: N_3  and  C_4
REMARK    3  A    between atoms: C_4  and  C_5
REMARK    4  A    between atoms: C_8  and  C_9
REMARK    5  A    between atoms: C_9  and  N_10
REMARK    6  A    between atoms: C_11  and  C_13
REMARK                            x       y       z     vdW  Elec       q    Type
REMARK                         _______ _______ _______ _____ _____    ______ ____
ROOT
ATOM      1  C   UNL     1      45.193   5.513  11.380  0.00  0.00    +0.000 A 
ATOM      2  C   UNL     1      45.364   6.893  11.207  0.00  0.00    +0.000 A 
ATOM      3  C   UNL     1      46.250   7.611  12.020  0.00  0.00    +0.000 A 
ATOM      4  C   UNL     1      47.000   6.961  13.009  0.00  0.00    +0.000 A 
ATOM      5  C   UNL     1      46.827   5.581  13.182  0.00  0.00    +0.000 A 
ATOM      6  C   UNL     1      45.943   4.863  12.370  0.00  0.00    +0.000 A 
ENDROOT
BRANCH   1   7
ATOM      7  C   UNL     1      44.188   4.750  10.559  0.00  0.00    +0.000 C 
BRANCH   7  10
ATOM      8  O   UNL     1      45.830   4.981   8.296  0.00  0.00    +0.000 OA
ATOM      9  C   UNL     1      45.544   3.874   8.736  0.00  0.00    +0.000 C 
ATOM     10  N   UNL     1      44.747   3.638   9.832  0.00  0.00    +0.000 N 
ATOM     11  H   UNL     1      44.582   2.678  10.117  0.00  0.00    +0.000 HD
BRANCH   9  12
ATOM     12  C   UNL     1      46.089   2.651   8.051  0.00  0.00    +0.000 C 
ATOM     13  C   UNL     1      46.766   2.720   6.746  0.00  0.00    +0.000 C 
ATOM     14  C   UNL     1      47.136   1.363   6.495  0.00  0.00    +0.000 C 
ATOM     15  C   UNL     1      46.693   0.674   7.559  0.00  0.00    +0.000 C 
ATOM     16  N   UNL     1      46.046   1.428   8.527  0.00  0.00    +0.000 NA
ENDBRANCH   9  12
ENDBRANCH   7  10
ENDBRANCH   1   7
BRANCH   4  17
ATOM     17  C   UNL     1      47.946   7.727  13.901  0.00  0.00    +0.000 C 
BRANCH  17  18
ATOM     18  N   UNL     1      47.925   7.221  15.251  0.00  0.00    +0.000 N 
ATOM     19  C   UNL     1      49.063   6.738  15.848  0.00  0.00    +0.000 C 
ATOM     20  O   UNL     1      50.155   6.764  15.287  0.00  0.00    +0.000 OA
ATOM     21  H   UNL     1      47.020   6.973  15.633  0.00  0.00    +0.000 HD
BRANCH  19  22
ATOM     22  C   UNL     1      48.922   6.242  17.224  0.00  0.00    +0.000 A 
ATOM     23  C   UNL     1      49.286   4.937  17.529  0.00  0.00    +0.000 A 
ATOM     24  S   UNL     1      49.108   4.542  19.178  0.00  0.00    +0.000 S 
ATOM     25  C   UNL     1      48.488   6.084  19.536  0.00  0.00    +0.000 A 
ATOM     26  N   UNL     1      48.102   6.407  20.800  0.00  0.00    +0.000 NA
ATOM     27  C   UNL     1      47.620   7.599  20.923  0.00  0.00    +0.000 A 
ATOM     28  N   UNL     1      47.493   8.499  19.897  0.00  0.00    +0.000 N 
ATOM     29  C   UNL     1      47.892   8.226  18.610  0.00  0.00    +0.000 A 
ATOM     30  O   UNL     1      47.798   9.067  17.723  0.00  0.00    +0.000 OA
ATOM     31  C   UNL     1      48.433   6.895  18.416  0.00  0.00    +0.000 A 
ATOM     32  H   UNL     1      47.114   9.420  20.059  0.00  0.00    +0.000 HD
ENDBRANCH  19  22
ENDBRANCH  17  18
ENDBRANCH   4  17
TORSDOF 6
ENDMDL
MODEL 3
REMARK VINA RESULT:    -7.477      1.736      2.130
REMARK INTER + INTRA:         -10.848
REMARK INTER:                  -9.979
REMARK INTRA:                  -0.868
REMARK UNBOUND:                -0.748
REMARK  Name = 
REMARK  6 active torsions:
REMARK  status: ('A' for Active; 'I' for Inactive)
REMARK    1  A    between atoms: C_2  and  C_25
REMARK    2  A    between atoms: N_3  and  C_4
REMARK    3  A    between atoms: C_4  and  C_5
REMARK    4  A    between atoms: C_8  and  C_9
REMARK    5  A    between atoms: C_9  and  N_10
REMARK    6  A    between atoms: C_11  and  C_13
REMARK                            x       y       z     vdW  Elec       q    Type
REMARK                         _______ _______ _______ _____ _____    ______ ____
ROOT
ATOM      1  C   UNL     1      45.290   6.371  11.352  0.00  0.00    +0.000 A 
ATOM      2  C   UNL     1      44.841   7.663  11.659  0.00  0.00    +0.000 A 
ATOM      3  C   UNL     1      45.578   8.493  12.514  0.00  0.00    +0.000 A 
ATOM      4  C   UNL     1      46.791   8.056  13.063  0.00  0.00    +0.000 A 
ATOM      5  C   UNL     1      47.239   6.764  12.757  0.00  0.00    +0.000 A 
ATOM      6  C   UNL     1      46.504   5.936  11.902  0.00  0.00    +0.000 A 
ENDROOT
BRANCH   1   7
ATOM      7  C   UNL     1      44.466   5.450  10.494  0.00  0.00    +0.000 C 
BRANCH   7  10
ATOM      8  O   UNL     1      44.184   2.696  10.045  0.00  0.00    +0.000 OA
ATOM      9  C   UNL     1      45.006   3.341   9.405  0.00  0.00    +0.000 C 
ATOM     10  N   UNL     1      45.235   4.691   9.541  0.00  0.00    +0.000 N 
ATOM     11  H   UNL     1      45.935   5.128   8.951  0.00  0.00    +0.000 HD
BRANCH   9  12
ATOM     12  C   UNL     1      45.850   2.637   8.379  0.00  0.00    +0.000 C 
ATOM     13  C   UNL     1      46.444   3.345   7.233  0.00  0.00    +0.000 C 
ATOM     14  C   UNL     1      47.169   2.320   6.553  0.00  0.00    +0.000 C 
ATOM     15  C   UNL     1      46.967   1.206   7.273  0.00  0.00    +0.000 C 
ATOM     16  N   UNL     1      46.163   1.362   8.394  0.00  0.00    +0.000 NA
ENDBRANCH   9  12
ENDBRANCH   7  10
ENDBRANCH   1   7
BRANCH   4  17
ATOM     17  C   UNL     1      47.585   8.935  13.997  0.00  0.00    +0.000 C 
BRANCH  17  18
ATOM     18  N   UNL     1      47.731   8.329  15.297  0.00  0.00    +0.000 N 
ATOM     19  C   UNL     1      48.326   9.002  16.336  0.00  0.00    +0.000 C 
ATOM     20  O   UNL     1      48.709  10.163  16.224  0.00  0.00    +0.000 OA
ATOM     21  H   UNL     1      47.646   7.319  15.344  0.00  0.00    +0.000 HD
BRANCH  19  22
ATOM     22  C   UNL     1      48.425   8.282  17.612  0.00  0.00    +0.000 A 
ATOM     23  C   UNL     1      48.073   8.923  18.794  0.00  0.00    +0.000 A 
ATOM     24  S   UNL     1      48.197   7.929  20.175  0.00  0.00    +0.000 S 
ATOM     25  C   UNL     1      48.776   6.624  19.251  0.00  0.00    +0.000 A 
ATOM     26  N   UNL     1      49.108   5.443  19.839  0.00  0.00    +0.000 NA
ATOM     27  C   UNL     1      49.564   4.551  19.025  0.00  0.00    +0.000 A 
ATOM     28  N   UNL     1      49.713   4.731  17.674  0.00  0.00    +0.000 N 
ATOM     29  C   UNL     1      49.367   5.896  17.033  0.00  0.00    +0.000 A 
ATOM     30  O   UNL     1      49.478   6.011  15.817  0.00  0.00    +0.000 OA
ATOM     31  C   UNL     1      48.857   6.936  17.905  0.00  0.00    +0.000 A 
ATOM     32  H   UNL     1      50.069   3.990  17.088  0.00  0.00    +0.000 HD
ENDBRANCH  19  22
ENDBRANCH  17  18
ENDBRANCH   4  17
TORSDOF 6
ENDMDL
MODEL 4
REMARK VINA RESULT:    -7.338      4.713      9.428
REMARK INTER + INTRA:         -10.660
REMARK INTER:                  -9.855
REMARK INTRA:                  -0.805
REMARK UNBOUND:                -0.748
REMARK  Name = 
REMARK  6 active torsions:
REMARK  status: ('A' for Active; 'I' for Inactive)
REMARK    1  A    between atoms: C_2  and  C_25
REMARK    2  A    between atoms: N_3  and  C_4
REMARK    3  A    between atoms: C_4  and  C_5
REMARK    4  A    between atoms: C_8  and  C_9
REMARK    5  A    between atoms: C_9  and  N_10
REMARK    6  A    between atoms: C_11  and  C_13
REMARK                            x       y       z     vdW  Elec       q    Type
REMARK                         _______ _______ _______ _____ _____    ______ ____
ROOT
ATOM      1  C   UNL     1      51.491   2.840  17.734  0.00  0.00    +0.000 A 
ATOM      2  C   UNL     1      50.861   4.014  18.169  0.00  0.00    +0.000 A 
ATOM      3  C   UNL     1      49.500   4.231  17.918  0.00  0.00    +0.000 A 
ATOM      4  C   UNL     1      48.735   3.268  17.245  0.00  0.00    +0.000 A 
ATOM      5  C   UNL     1      49.366   2.095  16.810  0.00  0.00    +0.000 A 
ATOM      6  C   UNL     1      50.725   1.878  17.062  0.00  0.00    +0.000 A 
ENDROOT
BRANCH   1   7
ATOM      7  C   UNL     1      52.968   2.636  17.937  0.00  0.00    +0.000 C 
BRANCH   7  10
ATOM      8  O   UNL     1      54.456   0.621  16.676  0.00  0.00    +0.000 OA
ATOM      9  C   UNL     1      54.049   0.457  17.820  0.00  0.00    +0.000 C 
ATOM     10  N   UNL     1      53.309   1.370  18.536  0.00  0.00    +0.000 N 
ATOM     11  H   UNL     1      53.031   1.135  19.483  0.00  0.00    +0.000 HD
BRANCH   9  12
ATOM     12  C   UNL     1      54.363  -0.829  18.532  0.00  0.00    +0.000 C 
ATOM     13  C   UNL     1      55.686  -1.469  18.447  0.00  0.00    +0.000 C 
ATOM     14  C   UNL     1      55.548  -2.621  19.280  0.00  0.00    +0.000 C 
ATOM     15  C   UNL     1      54.288  -2.576  19.741  0.00  0.00    +0.000 C 
ATOM     16  N   UNL     1      53.535  -1.496  19.302  0.00  0.00    +0.000 NA
ENDBRANCH   9  12
ENDBRANCH   7  10
ENDBRANCH   1   7
BRANCH   4  17
ATOM     17  C   UNL     1      47.272   3.498  16.956  0.00  0.00    +0.000 C 
BRANCH  17  18
ATOM     18  N   UNL     1      47.084   4.553  15.991  0.00  0.00    +0.000 N 
ATOM     19  C   UNL     1      47.095   4.296  14.642  0.00  0.00    +0.000 C 
ATOM     20  O   UNL     1      47.210   3.157  14.198  0.00  0.00    +0.000 OA
ATOM     21  H   UNL     1      47.226   5.502  16.317  0.00  0.00    +0.000 HD
BRANCH  19  22
ATOM     22  C   UNL     1      46.899   5.449  13.753  0.00  0.00    +0.000 A 
ATOM     23  C   UNL     1      47.942   6.342  13.542  0.00  0.00    +0.000 A 
ATOM     24  S   UNL     1      47.564   7.591  12.444  0.00  0.00    +0.000 S 
ATOM     25  C   UNL     1      45.975   7.014  12.251  0.00  0.00    +0.000 A 
ATOM     26  N   UNL     1      45.090   7.657  11.443  0.00  0.00    +0.000 NA
ATOM     27  C   UNL     1      43.912   7.130  11.415  0.00  0.00    +0.000 A 
ATOM     28  N   UNL     1      43.540   6.014  12.119  0.00  0.00    +0.000 N 
ATOM     29  C   UNL     1      44.406   5.317  12.928  0.00  0.00    +0.000 A 
ATOM     30  O   UNL     1      44.050   4.301  13.515  0.00  0.00    +0.000 OA
ATOM     31  C   UNL     1      45.743   5.874  13.001  0.00  0.00    +0.000 A 
ATOM     32  H   UNL     1      42.603   5.646  12.049  0.00  0.00    +0.000 HD
ENDBRANCH  19  22
ENDBRANCH  17  18
ENDBRANCH   4  17
TORSDOF 6
ENDMDL
MODEL 5
REMARK VINA RESULT:    -7.041      4.762      9.064
REMARK INTER + INTRA:         -10.259
REMARK INTER:                  -9.152
REMARK INTRA:                  -1.106
REMARK UNBOUND:                -0.748
REMARK  Name = 
REMARK  6 active torsions:
REMARK  status: ('A' for Active; 'I' for Inactive)
REMARK    1  A    between atoms: C_2  and  C_25
REMARK    2  A    between atoms: N_3  and  C_4
REMARK    3  A    between atoms: C_4  and  C_5
REMARK    4  A    between atoms: C_8  and  C_9
REMARK    5  A    between atoms: C_9  and  N_10
REMARK    6  A    between atoms: C_11  and  C_13
REMARK                            x       y       z     vdW  Elec       q    Type
REMARK                         _______ _______ _______ _____ _____    ______ ____
ROOT
ATOM      1  C   UNL     1      51.483   3.093  17.754  0.00  0.00    +0.000 A 
ATOM      2  C   UNL     1      50.909   4.348  17.997  0.00  0.00    +0.000 A 
ATOM      3  C   UNL     1      49.555   4.582  17.723  0.00  0.00    +0.000 A 
ATOM      4  C   UNL     1      48.741   3.558  17.219  0.00  0.00    +0.000 A 
ATOM      5  C   UNL     1      49.316   2.304  16.974  0.00  0.00    +0.000 A 
ATOM      6  C   UNL     1      50.668   2.070  17.250  0.00  0.00    +0.000 A 
ENDROOT
BRANCH   1   7
ATOM      7  C   UNL     1      52.952   2.859  17.978  0.00  0.00    +0.000 C 
BRANCH   7  10
ATOM      8  O   UNL     1      54.224   0.853  19.470  0.00  0.00    +0.000 OA
ATOM      9  C   UNL     1      54.044   0.702  18.267  0.00  0.00    +0.000 C 
ATOM     10  N   UNL     1      53.438   1.616  17.436  0.00  0.00    +0.000 N 
ATOM     11  H   UNL     1      53.332   1.384  16.453  0.00  0.00    +0.000 HD
BRANCH   9  12
ATOM     12  C   UNL     1      54.508  -0.569  17.611  0.00  0.00    +0.000 C 
ATOM     13  C   UNL     1      54.786  -0.650  16.168  0.00  0.00    +0.000 C 
ATOM     14  C   UNL     1      55.218  -2.000  15.992  0.00  0.00    +0.000 C 
ATOM     15  C   UNL     1      55.165  -2.551  17.214  0.00  0.00    +0.000 C 
ATOM     16  N   UNL     1      54.732  -1.707  18.227  0.00  0.00    +0.000 NA
ENDBRANCH   9  12
ENDBRANCH   7  10
ENDBRANCH   1   7
BRANCH   4  17
ATOM     17  C   UNL     1      47.286   3.802  16.904  0.00  0.00    +0.000 C 
BRANCH  17  18
ATOM     18  N   UNL     1      47.130   4.735  15.816  0.00  0.00    +0.000 N 
ATOM     19  C   UNL     1      47.151   4.316  14.509  0.00  0.00    +0.000 C 
ATOM     20  O   UNL     1      47.248   3.129  14.208  0.00  0.00    +0.000 OA
ATOM     21  H   UNL     1      47.287   5.714  16.026  0.00  0.00    +0.000 HD
BRANCH  19  22
ATOM     22  C   UNL     1      46.989   5.355  13.484  0.00  0.00    +0.000 A 
ATOM     23  C   UNL     1      45.960   5.253  12.555  0.00  0.00    +0.000 A 
ATOM     24  S   UNL     1      45.882   6.568  11.472  0.00  0.00    +0.000 S 
ATOM     25  C   UNL     1      47.253   7.295  12.169  0.00  0.00    +0.000 A 
ATOM     26  N   UNL     1      47.747   8.465  11.685  0.00  0.00    +0.000 NA
ATOM     27  C   UNL     1      48.809   8.886  12.287  0.00  0.00    +0.000 A 
ATOM     28  N   UNL     1      49.418   8.244  13.334  0.00  0.00    +0.000 N 
ATOM     29  C   UNL     1      48.940   7.074  13.873  0.00  0.00    +0.000 A 
ATOM     30  O   UNL     1      49.489   6.545  14.834  0.00  0.00    +0.000 OA
ATOM     31  C   UNL     1      47.752   6.553  13.226  0.00  0.00    +0.000 A 
ATOM     32  H   UNL     1      50.244   8.630  13.768  0.00  0.00    +0.000 HD
ENDBRANCH  19  22
ENDBRANCH  17  18
ENDBRANCH   4  17
TORSDOF 6
ENDMDL
MODEL 6
REMARK VINA RESULT:    -6.956      3.687      4.983
REMARK INTER + INTRA:         -10.143
REMARK INTER:                  -9.002
REMARK INTRA:                  -1.142
REMARK UNBOUND:                -0.748
REMARK  Name = 
REMARK  6 active torsions:
REMARK  status: ('A' for Active; 'I' for Inactive)
REMARK    1  A    between atoms: C_2  and  C_25
REMARK    2  A    between atoms: N_3  and  C_4
REMARK    3  A    between atoms: C_4  and  C_5
REMARK    4  A    between atoms: C_8  and  C_9
REMARK    5  A    between atoms: C_9  and  N_10
REMARK    6  A    between atoms: C_11  and  C_13
REMARK                            x       y       z     vdW  Elec       q    Type
REMARK                         _______ _______ _______ _____ _____    ______ ____
ROOT
ATOM      1  C   UNL     1      45.208   6.239  11.558  0.00  0.00    +0.000 A 
ATOM      2  C   UNL     1      46.353   5.772  12.217  0.00  0.00    +0.000 A 
ATOM      3  C   UNL     1      47.116   6.628  13.022  0.00  0.00    +0.000 A 
ATOM      4  C   UNL     1      46.737   7.965  13.202  0.00  0.00    +0.000 A 
ATOM      5  C   UNL     1      45.592   8.432  12.542  0.00  0.00    +0.000 A 
ATOM      6  C   UNL     1      44.830   7.577  11.739  0.00  0.00    +0.000 A 
ENDROOT
BRANCH   1   7
ATOM      7  C   UNL     1      44.427   5.343  10.635  0.00  0.00    +0.000 C 
BRANCH   7  10
ATOM      8  O   UNL     1      43.918   2.709   9.816  0.00  0.00    +0.000 OA
ATOM      9  C   UNL     1      44.893   3.309   9.380  0.00  0.00    +0.000 C 
ATOM     10  N   UNL     1      45.245   4.597   9.712  0.00  0.00    +0.000 N 
ATOM     11  H   UNL     1      46.071   5.002   9.283  0.00  0.00    +0.000 HD
BRANCH   9  12
ATOM     12  C   UNL     1      45.801   2.617   8.401  0.00  0.00    +0.000 C 
ATOM     13  C   UNL     1      46.472   3.340   7.308  0.00  0.00    +0.000 C 
ATOM     14  C   UNL     1      47.238   2.322   6.662  0.00  0.00    +0.000 C 
ATOM     15  C   UNL     1      46.985   1.198   7.351  0.00  0.00    +0.000 C 
ATOM     16  N   UNL     1      46.109   1.341   8.418  0.00  0.00    +0.000 NA
ENDBRANCH   9  12
ENDBRANCH   7  10
ENDBRANCH   1   7
BRANCH   4  17
ATOM     17  C   UNL     1      47.559   8.900  14.054  0.00  0.00    +0.000 C 
BRANCH  17  18
ATOM     18  N   UNL     1      48.908   9.017  13.559  0.00  0.00    +0.000 N 
ATOM     19  C   UNL     1      49.275  10.041  12.722  0.00  0.00    +0.000 C 
ATOM     20  O   UNL     1      48.492  10.932  12.402  0.00  0.00    +0.000 OA
ATOM     21  H   UNL     1      49.489   8.187  13.612  0.00  0.00    +0.000 HD
BRANCH  19  22
ATOM     22  C   UNL     1      50.675  10.055  12.277  0.00  0.00    +0.000 A 
ATOM     23  C   UNL     1      51.459  11.180  12.500  0.00  0.00    +0.000 A 
ATOM     24  S   UNL     1      53.070  11.010  11.969  0.00  0.00    +0.000 S 
ATOM     25  C   UNL     1      52.765   9.446  11.372  0.00  0.00    +0.000 A 
ATOM     26  N   UNL     1      53.743   8.730  10.755  0.00  0.00    +0.000 NA
ATOM     27  C   UNL     1      53.365   7.573  10.323  0.00  0.00    +0.000 A 
ATOM     28  N   UNL     1      52.098   7.066  10.457  0.00  0.00    +0.000 N 
ATOM     29  C   UNL     1      51.086   7.742  11.094  0.00  0.00    +0.000 A 
ATOM     30  O   UNL     1      49.974   7.244  11.229  0.00  0.00    +0.000 OA
ATOM     31  C   UNL     1      51.456   9.053  11.591  0.00  0.00    +0.000 A 
ATOM     32  H   UNL     1      51.867   6.149  10.103  0.00  0.00    +0.000 HD
ENDBRANCH  19  22
ENDBRANCH  17  18
ENDBRANCH   4  17
TORSDOF 6
ENDMDL
MODEL 7
REMARK VINA RESULT:    -6.882      3.768      8.374
REMARK INTER + INTRA:         -10.043
REMARK INTER:                  -9.184
REMARK INTRA:                  -0.859
REMARK UNBOUND:                -0.748
REMARK  Name = 
REMARK  6 active torsions:
REMARK  status: ('A' for Active; 'I' for Inactive)
REMARK    1  A    between atoms: C_2  and  C_25
REMARK    2  A    between atoms: N_3  and  C_4
REMARK    3  A    between atoms: C_4  and  C_5
REMARK    4  A    between atoms: C_8  and  C_9
REMARK    5  A    between atoms: C_9  and  N_10
REMARK    6  A    between atoms: C_11  and  C_13
REMARK                            x       y       z     vdW  Elec       q    Type
REMARK                         _______ _______ _______ _____ _____    ______ ____
ROOT
ATOM      1  C   UNL     1      49.821   4.566  17.465  0.00  0.00    +0.000 A 
ATOM      2  C   UNL     1      48.526   4.477  16.935  0.00  0.00    +0.000 A 
ATOM      3  C   UNL     1      48.043   5.459  16.060  0.00  0.00    +0.000 A 
ATOM      4  C   UNL     1      48.851   6.539  15.681  0.00  0.00    +0.000 A 
ATOM      5  C   UNL     1      50.145   6.627  16.213  0.00  0.00    +0.000 A 
ATOM      6  C   UNL     1      50.628   5.646  17.085  0.00  0.00    +0.000 A 
ENDROOT
BRANCH   1   7
ATOM      7  C   UNL     1      50.318   3.553  18.461  0.00  0.00    +0.000 C 
BRANCH   7  10
ATOM      8  O   UNL     1      50.982   1.093  17.289  0.00  0.00    +0.000 OA
ATOM      9  C   UNL     1      51.867   1.870  17.628  0.00  0.00    +0.000 C 
ATOM     10  N   UNL     1      51.662   3.098  18.215  0.00  0.00    +0.000 N 
ATOM     11  H   UNL     1      52.470   3.667  18.447  0.00  0.00    +0.000 HD
BRANCH   9  12
ATOM     12  C   UNL     1      53.304   1.487  17.401  0.00  0.00    +0.000 C 
ATOM     13  C   UNL     1      54.415   2.406  17.697  0.00  0.00    +0.000 C 
ATOM     14  C   UNL     1      55.573   1.637  17.367  0.00  0.00    +0.000 C 
ATOM     15  C   UNL     1      55.104   0.452  16.947  0.00  0.00    +0.000 C 
ATOM     16  N   UNL     1      53.722   0.327  16.952  0.00  0.00    +0.000 NA
ENDBRANCH   9  12
ENDBRANCH   7  10
ENDBRANCH   1   7
BRANCH   4  17
ATOM     17  C   UNL     1      48.336   7.611  14.752  0.00  0.00    +0.000 C 
BRANCH  17  18
ATOM     18  N   UNL     1      47.101   7.214  14.123  0.00  0.00    +0.000 N 
ATOM     19  C   UNL     1      47.095   6.509  12.945  0.00  0.00    +0.000 C 
ATOM     20  O   UNL     1      48.133   6.138  12.404  0.00  0.00    +0.000 OA
ATOM     21  H   UNL     1      46.261   7.703  14.413  0.00  0.00    +0.000 HD
BRANCH  19  22
ATOM     22  C   UNL     1      45.778   6.165  12.393  0.00  0.00    +0.000 A 
ATOM     23  C   UNL     1      44.959   7.167  11.885  0.00  0.00    +0.000 A 
ATOM     24  S   UNL     1      43.491   6.589  11.237  0.00  0.00    +0.000 S 
ATOM     25  C   UNL     1      43.872   4.986  11.659  0.00  0.00    +0.000 A 
ATOM     26  N   UNL     1      43.006   3.970  11.401  0.00  0.00    +0.000 NA
ATOM     27  C   UNL     1      43.407   2.811  11.804  0.00  0.00    +0.000 A 
ATOM     28  N   UNL     1      44.600   2.576  12.437  0.00  0.00    +0.000 N 
ATOM     29  C   UNL     1      45.517   3.566  12.695  0.00  0.00    +0.000 A 
ATOM     30  O   UNL     1      46.592   3.315  13.231  0.00  0.00    +0.000 OA
ATOM     31  C   UNL     1      45.110   4.891  12.271  0.00  0.00    +0.000 A 
ATOM     32  H   UNL     1      44.861   1.643  12.721  0.00  0.00    +0.000 HD
ENDBRANCH  19  22
ENDBRANCH  17  18
ENDBRANCH   4  17
TORSDOF 6
ENDMDL
MODEL 8
REMARK VINA RESULT:    -6.715      4.931      7.743
REMARK INTER + INTRA:          -9.818
REMARK INTER:                  -8.894
REMARK INTRA:                  -0.924
REMARK UNBOUND:                -0.748
REMARK  Name = 
REMARK  6 active torsions:
REMARK  status: ('A' for Active; 'I' for Inactive)
REMARK    1  A    between atoms: C_2  and  C_25
REMARK    2  A    between atoms: N_3  and  C_4
REMARK    3  A    between atoms: C_4  and  C_5
REMARK    4  A    between atoms: C_8  and  C_9
REMARK    5  A    between atoms: C_9  and  N_10
REMARK    6  A    between atoms: C_11  and  C_13
REMARK                            x       y       z     vdW  Elec       q    Type
REMARK                         _______ _______ _______ _____ _____    ______ ____
ROOT
ATOM      1  C   UNL     1      50.921   8.683  11.350  0.00  0.00    +0.000 A 
ATOM      2  C   UNL     1      50.099   9.818  11.361  0.00  0.00    +0.000 A 
ATOM      3  C   UNL     1      48.726   9.706  11.617  0.00  0.00    +0.000 A 
ATOM      4  C   UNL     1      48.150   8.457  11.888  0.00  0.00    +0.000 A 
ATOM      5  C   UNL     1      48.972   7.323  11.875  0.00  0.00    +0.000 A 
ATOM      6  C   UNL     1      50.343   7.435  11.620  0.00  0.00    +0.000 A 
ENDROOT
BRANCH   1   7
ATOM      7  C   UNL     1      52.381   8.791  11.003  0.00  0.00    +0.000 C 
BRANCH   7  10
ATOM      8  O   UNL     1      52.771   8.535   8.237  0.00  0.00    +0.000 OA
ATOM      9  C   UNL     1      53.068   7.612   8.986  0.00  0.00    +0.000 C 
ATOM     10  N   UNL     1      52.918   7.622  10.354  0.00  0.00    +0.000 N 
ATOM     11  H   UNL     1      53.206   6.804  10.881  0.00  0.00    +0.000 HD
BRANCH   9  12
ATOM     12  C   UNL     1      53.646   6.353   8.402  0.00  0.00    +0.000 C 
ATOM     13  C   UNL     1      53.081   5.713   7.203  0.00  0.00    +0.000 C 
ATOM     14  C   UNL     1      53.939   4.591   6.993  0.00  0.00    +0.000 C 
ATOM     15  C   UNL     1      54.846   4.650   7.981  0.00  0.00    +0.000 C 
ATOM     16  N   UNL     1      54.695   5.711   8.862  0.00  0.00    +0.000 NA
ENDBRANCH   9  12
ENDBRANCH   7  10
ENDBRANCH   1   7
BRANCH   4  17
ATOM     17  C   UNL     1      46.670   8.322  12.150  0.00  0.00    +0.000 C 
BRANCH  17  18
ATOM     18  N   UNL     1      46.213   6.975  11.910  0.00  0.00    +0.000 N 
ATOM     19  C   UNL     1      44.913   6.717  11.552  0.00  0.00    +0.000 C 
ATOM     20  O   UNL     1      44.098   7.617  11.366  0.00  0.00    +0.000 OA
ATOM     21  H   UNL     1      46.784   6.225  12.282  0.00  0.00    +0.000 HD
BRANCH  19  22
ATOM     22  C   UNL     1      44.559   5.307  11.340  0.00  0.00    +0.000 A 
ATOM     23  C   UNL     1      43.808   4.633  12.295  0.00  0.00    +0.000 A 
ATOM     24  S   UNL     1      43.441   3.023  11.868  0.00  0.00    +0.000 S 
ATOM     25  C   UNL     1      44.318   3.151  10.416  0.00  0.00    +0.000 A 
ATOM     26  N   UNL     1      44.428   2.093   9.570  0.00  0.00    +0.000 NA
ATOM     27  C   UNL     1      45.148   2.319   8.522  0.00  0.00    +0.000 A 
ATOM     28  N   UNL     1      45.764   3.512   8.242  0.00  0.00    +0.000 N 
ATOM     29  C   UNL     1      45.660   4.615   9.054  0.00  0.00    +0.000 A 
ATOM     30  O   UNL     1      46.194   5.678   8.755  0.00  0.00    +0.000 OA
ATOM     31  C   UNL     1      44.868   4.411  10.252  0.00  0.00    +0.000 A 
ATOM     32  H   UNL     1      46.309   3.628   7.400  0.00  0.00    +0.000 HD
ENDBRANCH  19  22
ENDBRANCH  17  18
ENDBRANCH   4  17
TORSDOF 6
ENDMDL
MODEL 9
REMARK VINA RESULT:    -6.299      2.807      4.206
REMARK INTER + INTRA:          -9.256
REMARK INTER:                  -8.385
REMARK INTRA:                  -0.871
REMARK UNBOUND:                -0.748
REMARK  Name = 
REMARK  6 active torsions:
REMARK  status: ('A' for Active; 'I' for Inactive)
REMARK    1  A    between atoms: C_2  and  C_25
REMARK    2  A    between atoms: N_3  and  C_4
REMARK    3  A    between atoms: C_4  and  C_5
REMARK    4  A    between atoms: C_8  and  C_9
REMARK    5  A    between atoms: C_9  and  N_10
REMARK    6  A    between atoms: C_11  and  C_13
REMARK                            x       y       z     vdW  Elec       q    Type
REMARK                         _______ _______ _______ _____ _____    ______ ____
ROOT
ATOM      1  C   UNL     1      47.663   7.625  13.468  0.00  0.00    +0.000 A 
ATOM      2  C   UNL     1      48.137   6.479  14.121  0.00  0.00    +0.000 A 
ATOM      3  C   UNL     1      48.723   6.569  15.390  0.00  0.00    +0.000 A 
ATOM      4  C   UNL     1      48.830   7.805  16.042  0.00  0.00    +0.000 A 
ATOM      5  C   UNL     1      48.358   8.951  15.388  0.00  0.00    +0.000 A 
ATOM      6  C   UNL     1      47.771   8.861  14.121  0.00  0.00    +0.000 A 
ENDROOT
BRANCH   1   7
ATOM      7  C   UNL     1      47.099   7.543  12.075  0.00  0.00    +0.000 C 
BRANCH   7  10
ATOM      8  O   UNL     1      44.397   7.173  11.420  0.00  0.00    +0.000 OA
ATOM      9  C   UNL     1      45.158   6.213  11.449  0.00  0.00    +0.000 C 
ATOM     10  N   UNL     1      46.497   6.272  11.760  0.00  0.00    +0.000 N 
ATOM     11  H   UNL     1      47.039   5.414  11.745  0.00  0.00    +0.000 HD
BRANCH   9  12
ATOM     12  C   UNL     1      44.624   4.845  11.124  0.00  0.00    +0.000 C 
ATOM     13  C   UNL     1      44.976   4.142   9.879  0.00  0.00    +0.000 C 
ATOM     14  C   UNL     1      44.286   2.897  10.000  0.00  0.00    +0.000 C 
ATOM     15  C   UNL     1      43.648   2.958  11.179  0.00  0.00    +0.000 C 
ATOM     16  N   UNL     1      43.830   4.135  11.891  0.00  0.00    +0.000 NA
ENDBRANCH   9  12
ENDBRANCH   7  10
ENDBRANCH   1   7
BRANCH   4  17
ATOM     17  C   UNL     1      49.474   7.916  17.401  0.00  0.00    +0.000 C 
BRANCH  17  18
ATOM     18  N   UNL     1      50.443   6.870  17.614  0.00  0.00    +0.000 N 
ATOM     19  C   UNL     1      50.228   5.875  18.534  0.00  0.00    +0.000 C 
ATOM     20  O   UNL     1      49.184   5.797  19.177  0.00  0.00    +0.000 OA
ATOM     21  H   UNL     1      51.385   7.043  17.282  0.00  0.00    +0.000 HD
BRANCH  19  22
ATOM     22  C   UNL     1      51.286   4.865  18.670  0.00  0.00    +0.000 A 
ATOM     23  C   UNL     1      52.443   5.169  19.377  0.00  0.00    +0.000 A 
ATOM     24  S   UNL     1      53.543   3.870  19.482  0.00  0.00    +0.000 S 
ATOM     25  C   UNL     1      52.539   2.872  18.540  0.00  0.00    +0.000 A 
ATOM     26  N   UNL     1      52.911   1.602  18.225  0.00  0.00    +0.000 NA
ATOM     27  C   UNL     1      52.070   0.968  17.478  0.00  0.00    +0.000 A 
ATOM     28  N   UNL     1      50.886   1.489  17.022  0.00  0.00    +0.000 N 
ATOM     29  C   UNL     1      50.457   2.756  17.335  0.00  0.00    +0.000 A 
ATOM     30  O   UNL     1      49.375   3.178  16.940  0.00  0.00    +0.000 OA
ATOM     31  C   UNL     1      51.372   3.515  18.166  0.00  0.00    +0.000 A 
ATOM     32  H   UNL     1      50.266   0.939  16.445  0.00  0.00    +0.000 HD
ENDBRANCH  19  22
ENDBRANCH  17  18
ENDBRANCH   4  17
TORSDOF 6
ENDMDL
