MODEL 1
REMARK VINA RESULT:    -8.030      0.000      0.000
REMARK INTER + INTRA:         -11.827
REMARK INTER:                 -10.847
REMARK INTRA:                  -0.980
REMARK UNBOUND:                -0.980
REMARK  Name = 
REMARK  6 active torsions:
REMARK  status: ('A' for Active; 'I' for Inactive)
REMARK    1  A    between atoms: C_2  and  C_19
REMARK    2  A    between atoms: N_3  and  C_4
REMARK    3  A    between atoms: C_4  and  C_5
REMARK    4  A    between atoms: C_8  and  C_9
REMARK    5  A    between atoms: C_9  and  O_10
REMARK    6  A    between atoms: O_10  and  C_11
REMARK                            x       y       z     vdW  Elec       q    Type
REMARK                         _______ _______ _______ _____ _____    ______ ____
ROOT
ATOM      1  O   UNL     1      46.548   3.333  17.053  0.00  0.00    +0.000 OA
ATOM      2  C   UNL     1      47.435   3.404  16.216  0.00  0.00    +0.000 C 
ATOM      3  N   UNL     1      47.254   3.860  14.931  0.00  0.00    +0.000 N 
ATOM      4  H   UNL     1      48.084   4.022  14.380  0.00  0.00    +0.000 HD
ENDROOT
BRANCH   2   5
ATOM      5  C   UNL     1      48.844   3.241  16.525  0.00  0.00    +0.000 A 
ATOM      6  C   UNL     1      49.467   2.001  16.515  0.00  0.00    +0.000 A 
ATOM      7  S   UNL     1      50.822   1.977  17.571  0.00  0.00    +0.000 S 
ATOM      8  C   UNL     1      50.676   3.647  17.886  0.00  0.00    +0.000 A 
ATOM      9  N   UNL     1      51.407   4.284  18.840  0.00  0.00    +0.000 NA
ATOM     10  C   UNL     1      51.206   5.560  18.895  0.00  0.00    +0.000 A 
ATOM     11  N   UNL     1      50.387   6.269  18.050  0.00  0.00    +0.000 N 
ATOM     12  C   UNL     1      49.621   5.668  17.082  0.00  0.00    +0.000 A 
ATOM     13  O   UNL     1      48.922   6.315  16.309  0.00  0.00    +0.000 OA
ATOM     14  C   UNL     1      49.725   4.227  17.074  0.00  0.00    +0.000 A 
ATOM     15  H   UNL     1      50.341   7.276  18.090  0.00  0.00    +0.000 HD
ENDBRANCH   2   5
BRANCH   3  16
ATOM     16  C   UNL     1      46.201   4.789  14.596  0.00  0.00    +0.000 C 
BRANCH  16  17
ATOM     17  C   UNL     1      45.715   4.589  13.164  0.00  0.00    +0.000 A 
ATOM     18  N   UNL     1      45.750   5.654  12.332  0.00  0.00    +0.000 NA
ATOM     19  C   UNL     1      45.349   5.438  11.060  0.00  0.00    +0.000 A 
ATOM     20  C   UNL     1      44.879   4.228  10.595  0.00  0.00    +0.000 A 
ATOM     21  C   UNL     1      44.834   3.226  11.542  0.00  0.00    +0.000 A 
ATOM     22  N   UNL     1      45.231   3.380  12.820  0.00  0.00    +0.000 NA
BRANCH  20  23
ATOM     23  C   UNL     1      44.487   4.002   9.170  0.00  0.00    +0.000 C 
BRANCH  23  24
ATOM     24  O   UNL     1      45.618   4.259   8.337  0.00  0.00    +0.000 OA
BRANCH  24  25
ATOM     25  C   UNL     1      46.269   3.167   7.828  0.00  0.00    +0.000 A 
ATOM     26  C   UNL     1      46.097   1.850   8.240  0.00  0.00    +0.000 A 
ATOM     27  C   UNL     1      46.840   0.862   7.609  0.00  0.00    +0.000 A 
ATOM     28  N   UNL     1      47.722   1.099   6.617  0.00  0.00    +0.000 NA
ATOM     29  C   UNL     1      47.873   2.386   6.239  0.00  0.00    +0.000 A 
ATOM     30  C   UNL     1      47.178   3.440   6.807  0.00  0.00    +0.000 A 
ENDBRANCH  24  25
ENDBRANCH  23  24
ENDBRANCH  20  23
ENDBRANCH  16  17
ENDBRANCH   3  16
TORSDOF 6
ENDMDL
MODEL 2
REMARK VINA RESULT:    -7.739      2.217      3.003
REMARK INTER + INTRA:         -11.434
REMARK INTER:                 -10.496
REMARK INTRA:                  -0.939
REMARK UNBOUND:                -0.980
REMARK  Name = 
REMARK  6 active torsions:
REMARK  status: ('A' for Active; 'I' for Inactive)
REMARK    1  A    between atoms: C_2  and  C_19
REMARK    2  A    between atoms: N_3  and  C_4
REMARK    3  A    between atoms: C_4  and  C_5
REMARK    4  A    between atoms: C_8  and  C_9
REMARK    5  A    between atoms: C_9  and  O_10
REMARK    6  A    between atoms: O_10  and  C_11
REMARK                            x       y       z     vdW  Elec       q    Type
REMARK                         _______ _______ _______ _____ _____    ______ ____
ROOT
ATOM      1  O   UNL     1      49.737   6.124  15.706  0.00  0.00    +0.000 OA
ATOM      2  C   UNL     1      48.624   6.115  16.210  0.00  0.00    +0.000 C 
ATOM      3  N   UNL     1      47.533   5.478  15.668  0.00  0.00    +0.000 N 
ATOM      4  H   UNL     1      46.709   5.406  16.247  0.00  0.00    +0.000 HD
ENDROOT
BRANCH   2   5
ATOM      5  C   UNL     1      48.352   6.573  17.560  0.00  0.00    +0.000 A 
ATOM      6  C   UNL     1      48.262   7.921  17.883  0.00  0.00    +0.000 A 
ATOM      7  S   UNL     1      48.665   8.194  19.530  0.00  0.00    +0.000 S 
ATOM      8  C   UNL     1      48.777   6.520  19.839  0.00  0.00    +0.000 A 
ATOM      9  N   UNL     1      49.251   6.017  21.010  0.00  0.00    +0.000 NA
ATOM     10  C   UNL     1      49.204   4.726  21.087  0.00  0.00    +0.000 A 
ATOM     11  N   UNL     1      48.677   3.895  20.129  0.00  0.00    +0.000 N 
ATOM     12  C   UNL     1      48.199   4.357  18.927  0.00  0.00    +0.000 A 
ATOM     13  O   UNL     1      47.696   3.609  18.095  0.00  0.00    +0.000 OA
ATOM     14  C   UNL     1      48.350   5.784  18.755  0.00  0.00    +0.000 A 
ATOM     15  H   UNL     1      48.591   2.903  20.288  0.00  0.00    +0.000 HD
ENDBRANCH   2   5
BRANCH   3  16
ATOM     16  C   UNL     1      47.675   4.336  14.797  0.00  0.00    +0.000 C 
BRANCH  16  17
ATOM     17  C   UNL     1      46.695   4.399  13.630  0.00  0.00    +0.000 A 
ATOM     18  N   UNL     1      46.500   5.598  13.035  0.00  0.00    +0.000 NA
ATOM     19  C   UNL     1      45.655   5.616  11.980  0.00  0.00    +0.000 A 
ATOM     20  C   UNL     1      44.969   4.511  11.523  0.00  0.00    +0.000 A 
ATOM     21  C   UNL     1      45.200   3.354  12.238  0.00  0.00    +0.000 A 
ATOM     22  N   UNL     1      46.040   3.274  13.289  0.00  0.00    +0.000 NA
BRANCH  20  23
ATOM     23  C   UNL     1      44.077   4.547  10.324  0.00  0.00    +0.000 C 
BRANCH  23  24
ATOM     24  O   UNL     1      44.118   3.272   9.684  0.00  0.00    +0.000 OA
BRANCH  24  25
ATOM     25  C   UNL     1      45.133   3.064   8.789  0.00  0.00    +0.000 A 
ATOM     26  C   UNL     1      45.724   4.033   7.986  0.00  0.00    +0.000 A 
ATOM     27  C   UNL     1      46.749   3.647   7.134  0.00  0.00    +0.000 A 
ATOM     28  N   UNL     1      47.210   2.383   7.035  0.00  0.00    +0.000 NA
ATOM     29  C   UNL     1      46.618   1.461   7.822  0.00  0.00    +0.000 A 
ATOM     30  C   UNL     1      45.590   1.749   8.703  0.00  0.00    +0.000 A 
ENDBRANCH  24  25
ENDBRANCH  23  24
ENDBRANCH  20  23
ENDBRANCH  16  17
ENDBRANCH   3  16
TORSDOF 6
ENDMDL
MODEL 3
REMARK VINA RESULT:    -7.712      2.272      3.034
REMARK INTER + INTRA:         -11.397
REMARK INTER:                 -10.558
REMARK INTRA:                  -0.839
REMARK UNBOUND:                -0.980
REMARK  Name = 
REMARK  6 active torsions:
REMARK  status: ('A' for Active; 'I' for Inactive)
REMARK    1  A    between atoms: C_2  and  C_19
REMARK    2  A    between atoms: N_3  and  C_4
REMARK    3  A    between atoms: C_4  and  C_5
REMARK    4  A    between atoms: C_8  and  C_9
REMARK    5  A    between atoms: C_9  and  O_10
REMARK    6  A    between atoms: O_10  and  C_11
REMARK                            x       y       z     vdW  Elec       q    Type
REMARK                         _______ _______ _______ _____ _____    ______ ____
ROOT
ATOM      1  O   UNL     1      49.037   6.264  13.294  0.00  0.00    +0.000 OA
ATOM      2  C   UNL     1      48.253   6.708  14.119  0.00  0.00    +0.000 C 
ATOM      3  N   UNL     1      47.013   6.172  14.378  0.00  0.00    +0.000 N 
ATOM      4  H   UNL     1      46.520   6.524  15.186  0.00  0.00    +0.000 HD
ENDROOT
BRANCH   2   5
ATOM      5  C   UNL     1      48.610   7.714  15.104  0.00  0.00    +0.000 A 
ATOM      6  C   UNL     1      48.603   9.071  14.813  0.00  0.00    +0.000 A 
ATOM      7  S   UNL     1      49.706   9.927  15.815  0.00  0.00    +0.000 S 
ATOM      8  C   UNL     1      50.041   8.530  16.735  0.00  0.00    +0.000 A 
ATOM      9  N   UNL     1      51.030   8.482  17.667  0.00  0.00    +0.000 NA
ATOM     10  C   UNL     1      51.097   7.360  18.308  0.00  0.00    +0.000 A 
ATOM     11  N   UNL     1      50.235   6.304  18.144  0.00  0.00    +0.000 N 
ATOM     12  C   UNL     1      49.230   6.303  17.208  0.00  0.00    +0.000 A 
ATOM     13  O   UNL     1      48.443   5.369  17.097  0.00  0.00    +0.000 OA
ATOM     14  C   UNL     1      49.204   7.492  16.387  0.00  0.00    +0.000 A 
ATOM     15  H   UNL     1      50.288   5.489  18.738  0.00  0.00    +0.000 HD
ENDBRANCH   2   5
BRANCH   3  16
ATOM     16  C   UNL     1      46.724   4.778  14.142  0.00  0.00    +0.000 C 
BRANCH  16  17
ATOM     17  C   UNL     1      46.037   4.571  12.796  0.00  0.00    +0.000 A 
ATOM     18  N   UNL     1      46.029   5.608  11.927  0.00  0.00    +0.000 NA
ATOM     19  C   UNL     1      45.447   5.383  10.728  0.00  0.00    +0.000 A 
ATOM     20  C   UNL     1      44.841   4.197  10.375  0.00  0.00    +0.000 A 
ATOM     21  C   UNL     1      44.859   3.228  11.357  0.00  0.00    +0.000 A 
ATOM     22  N   UNL     1      45.434   3.390  12.565  0.00  0.00    +0.000 NA
BRANCH  20  23
ATOM     23  C   UNL     1      44.247   3.957   9.024  0.00  0.00    +0.000 C 
BRANCH  23  24
ATOM     24  O   UNL     1      45.244   4.210   8.034  0.00  0.00    +0.000 OA
BRANCH  24  25
ATOM     25  C   UNL     1      46.048   3.157   7.688  0.00  0.00    +0.000 A 
ATOM     26  C   UNL     1      45.927   1.851   8.150  0.00  0.00    +0.000 A 
ATOM     27  C   UNL     1      46.830   0.904   7.689  0.00  0.00    +0.000 A 
ATOM     28  N   UNL     1      47.824   1.171   6.818  0.00  0.00    +0.000 NA
ATOM     29  C   UNL     1      47.922   2.446   6.387  0.00  0.00    +0.000 A 
ATOM     30  C   UNL     1      47.070   3.460   6.788  0.00  0.00    +0.000 A 
ENDBRANCH  24  25
ENDBRANCH  23  24
ENDBRANCH  20  23
ENDBRANCH  16  17
ENDBRANCH   3  16
TORSDOF 6
ENDMDL
MODEL 4
REMARK VINA RESULT:    -7.553      1.608      2.883
REMARK INTER + INTRA:         -11.183
REMARK INTER:                 -10.461
REMARK INTRA:                  -0.722
REMARK UNBOUND:                -0.980
REMARK  Name = 
REMARK  6 active torsions:
REMARK  status: ('A' for Active; 'I' for Inactive)
REMARK    1  A    between atoms: C_2  and  C_19
REMARK    2  A    between atoms: N_3  and  C_4
REMARK    3  A    between atoms: C_4  and  C_5
REMARK    4  A    between atoms: C_8  and  C_9
REMARK    5  A    between atoms: C_9  and  O_10
REMARK    6  A    between atoms: O_10  and  C_11
REMARK                            x       y       z     vdW  Elec       q    Type
REMARK                         _______ _______ _______ _____ _____    ______ ____
ROOT
ATOM      1  O   UNL     1      48.697   8.217  16.122  0.00  0.00    +0.000 OA
ATOM      2  C   UNL     1      48.719   6.998  16.044  0.00  0.00    +0.000 C 
ATOM      3  N   UNL     1      48.187   6.279  15.000  0.00  0.00    +0.000 N 
ATOM      4  H   UNL     1      48.401   5.293  14.965  0.00  0.00    +0.000 HD
ENDROOT
BRANCH   2   5
ATOM      5  C   UNL     1      49.512   6.152  16.918  0.00  0.00    +0.000 A 
ATOM      6  C   UNL     1      50.699   6.585  17.492  0.00  0.00    +0.000 A 
ATOM      7  S   UNL     1      51.746   5.265  17.828  0.00  0.00    +0.000 S 
ATOM      8  C   UNL     1      50.550   4.132  17.381  0.00  0.00    +0.000 A 
ATOM      9  N   UNL     1      50.805   2.801  17.261  0.00  0.00    +0.000 NA
ATOM     10  C   UNL     1      49.764   2.088  16.974  0.00  0.00    +0.000 A 
ATOM     11  N   UNL     1      48.484   2.572  16.851  0.00  0.00    +0.000 N 
ATOM     12  C   UNL     1      48.182   3.908  16.952  0.00  0.00    +0.000 A 
ATOM     13  O   UNL     1      47.031   4.324  16.878  0.00  0.00    +0.000 OA
ATOM     14  C   UNL     1      49.341   4.750  17.148  0.00  0.00    +0.000 A 
ATOM     15  H   UNL     1      47.702   1.950  16.712  0.00  0.00    +0.000 HD
ENDBRANCH   2   5
BRANCH   3  16
ATOM     16  C   UNL     1      48.054   6.843  13.678  0.00  0.00    +0.000 C 
BRANCH  16  17
ATOM     17  C   UNL     1      46.992   6.113  12.863  0.00  0.00    +0.000 A 
ATOM     18  N   UNL     1      46.613   4.883  13.280  0.00  0.00    +0.000 NA
ATOM     19  C   UNL     1      45.644   4.276  12.560  0.00  0.00    +0.000 A 
ATOM     20  C   UNL     1      45.070   4.816  11.430  0.00  0.00    +0.000 A 
ATOM     21  C   UNL     1      45.569   6.048  11.064  0.00  0.00    +0.000 A 
ATOM     22  N   UNL     1      46.526   6.706  11.749  0.00  0.00    +0.000 NA
BRANCH  20  23
ATOM     23  C   UNL     1      43.964   4.145  10.680  0.00  0.00    +0.000 C 
BRANCH  23  24
ATOM     24  O   UNL     1      44.162   4.361   9.282  0.00  0.00    +0.000 OA
BRANCH  24  25
ATOM     25  C   UNL     1      45.084   3.562   8.660  0.00  0.00    +0.000 A 
ATOM     26  C   UNL     1      46.069   3.988   7.775  0.00  0.00    +0.000 A 
ATOM     27  C   UNL     1      46.926   3.039   7.238  0.00  0.00    +0.000 A 
ATOM     28  N   UNL     1      46.865   1.722   7.521  0.00  0.00    +0.000 NA
ATOM     29  C   UNL     1      45.899   1.333   8.379  0.00  0.00    +0.000 A 
ATOM     30  C   UNL     1      44.997   2.204   8.966  0.00  0.00    +0.000 A 
ENDBRANCH  24  25
ENDBRANCH  23  24
ENDBRANCH  20  23
ENDBRANCH  16  17
ENDBRANCH   3  16
TORSDOF 6
ENDMDL
MODEL 5
REMARK VINA RESULT:    -7.367      2.608      3.450
REMARK INTER + INTRA:         -10.931
REMARK INTER:                 -10.164
REMARK INTRA:                  -0.767
REMARK UNBOUND:                -0.980
REMARK  Name = 
REMARK  6 active torsions:
REMARK  status: ('A' for Active; 'I' for Inactive)
REMARK    1  A    between atoms: C_2  and  C_19
REMARK    2  A    between atoms: N_3  and  C_4
REMARK    3  A    between atoms: C_4  and  C_5
REMARK    4  A    between atoms: C_8  and  C_9
REMARK    5  A    between atoms: C_9  and  O_10
REMARK    6  A    between atoms: O_10  and  C_11
REMARK                            x       y       z     vdW  Elec       q    Type
REMARK                         _______ _______ _______ _____ _____    ______ ____
ROOT
ATOM      1  O   UNL     1      49.391   6.364  14.762  0.00  0.00    +0.000 OA
ATOM      2  C   UNL     1      48.563   6.311  15.659  0.00  0.00    +0.000 C 
ATOM      3  N   UNL     1      47.459   5.492  15.647  0.00  0.00    +0.000 N 
ATOM      4  H   UNL     1      46.934   5.417  16.506  0.00  0.00    +0.000 HD
ENDROOT
BRANCH   2   5
ATOM      5  C   UNL     1      48.751   6.926  16.960  0.00  0.00    +0.000 A 
ATOM      6  C   UNL     1      48.928   6.177  18.116  0.00  0.00    +0.000 A 
ATOM      7  S   UNL     1      48.402   7.042  19.504  0.00  0.00    +0.000 S 
ATOM      8  C   UNL     1      48.120   8.453  18.587  0.00  0.00    +0.000 A 
ATOM      9  N   UNL     1      47.500   9.551  19.097  0.00  0.00    +0.000 NA
ATOM     10  C   UNL     1      47.428  10.546  18.273  0.00  0.00    +0.000 A 
ATOM     11  N   UNL     1      47.967  10.567  17.009  0.00  0.00    +0.000 N 
ATOM     12  C   UNL     1      48.589   9.478  16.449  0.00  0.00    +0.000 A 
ATOM     13  O   UNL     1      49.099   9.521  15.334  0.00  0.00    +0.000 OA
ATOM     14  C   UNL     1      48.577   8.307  17.295  0.00  0.00    +0.000 A 
ATOM     15  H   UNL     1      47.952  11.406  16.449  0.00  0.00    +0.000 HD
ENDBRANCH   2   5
BRANCH   3  16
ATOM     16  C   UNL     1      47.436   4.258  14.897  0.00  0.00    +0.000 C 
BRANCH  16  17
ATOM     17  C   UNL     1      46.516   4.359  13.685  0.00  0.00    +0.000 A 
ATOM     18  N   UNL     1      46.328   5.581  13.136  0.00  0.00    +0.000 NA
ATOM     19  C   UNL     1      45.538   5.634  12.041  0.00  0.00    +0.000 A 
ATOM     20  C   UNL     1      44.898   4.540  11.499  0.00  0.00    +0.000 A 
ATOM     21  C   UNL     1      45.114   3.355  12.171  0.00  0.00    +0.000 A 
ATOM     22  N   UNL     1      45.901   3.240  13.259  0.00  0.00    +0.000 NA
BRANCH  20  23
ATOM     23  C   UNL     1      44.067   4.617  10.258  0.00  0.00    +0.000 C 
BRANCH  23  24
ATOM     24  O   UNL     1      44.073   3.338   9.623  0.00  0.00    +0.000 OA
BRANCH  24  25
ATOM     25  C   UNL     1      45.106   3.083   8.761  0.00  0.00    +0.000 A 
ATOM     26  C   UNL     1      45.739   4.016   7.947  0.00  0.00    +0.000 A 
ATOM     27  C   UNL     1      46.777   3.582   7.134  0.00  0.00    +0.000 A 
ATOM     28  N   UNL     1      47.212   2.307   7.083  0.00  0.00    +0.000 NA
ATOM     29  C   UNL     1      46.580   1.421   7.880  0.00  0.00    +0.000 A 
ATOM     30  C   UNL     1      45.536   1.757   8.725  0.00  0.00    +0.000 A 
ENDBRANCH  24  25
ENDBRANCH  23  24
ENDBRANCH  20  23
ENDBRANCH  16  17
ENDBRANCH   3  16
TORSDOF 6
ENDMDL
MODEL 6
REMARK VINA RESULT:    -7.336      1.654      2.547
REMARK INTER + INTRA:         -10.889
REMARK INTER:                 -10.336
REMARK INTRA:                  -0.553
REMARK UNBOUND:                -0.980
REMARK  Name = 
REMARK  6 active torsions:
REMARK  status: ('A' for Active; 'I' for Inactive)
REMARK    1  A    between atoms: C_2  and  C_19
REMARK    2  A    between atoms: N_3  and  C_4
REMARK    3  A    between atoms: C_4  and  C_5
REMARK    4  A    between atoms: C_8  and  C_9
REMARK    5  A    between atoms: C_9  and  O_10
REMARK    6  A    between atoms: O_10  and  C_11
REMARK                            x       y       z     vdW  Elec       q    Type
REMARK                         _______ _______ _______ _____ _____    ______ ____
ROOT
ATOM      1  O   UNL     1      46.333   3.921  16.656  0.00  0.00    +0.000 OA
ATOM      2  C   UNL     1      47.526   4.171  16.576  0.00  0.00    +0.000 C 
ATOM      3  N   UNL     1      48.110   4.838  15.525  0.00  0.00    +0.000 N 
ATOM      4  H   UNL     1      49.071   5.124  15.640  0.00  0.00    +0.000 HD
ENDROOT
BRANCH   2   5
ATOM      5  C   UNL     1      48.455   4.009  17.681  0.00  0.00    +0.000 A 
ATOM      6  C   UNL     1      48.431   4.836  18.796  0.00  0.00    +0.000 A 
ATOM      7  S   UNL     1      49.978   4.926  19.537  0.00  0.00    +0.000 S 
ATOM      8  C   UNL     1      50.611   3.738  18.488  0.00  0.00    +0.000 A 
ATOM      9  N   UNL     1      51.935   3.430  18.437  0.00  0.00    +0.000 NA
ATOM     10  C   UNL     1      52.221   2.463  17.627  0.00  0.00    +0.000 A 
ATOM     11  N   UNL     1      51.303   1.738  16.906  0.00  0.00    +0.000 N 
ATOM     12  C   UNL     1      49.959   2.021  16.917  0.00  0.00    +0.000 A 
ATOM     13  O   UNL     1      49.145   1.343  16.299  0.00  0.00    +0.000 OA
ATOM     14  C   UNL     1      49.618   3.176  17.715  0.00  0.00    +0.000 A 
ATOM     15  H   UNL     1      51.583   0.938  16.358  0.00  0.00    +0.000 HD
ENDBRANCH   2   5
BRANCH   3  16
ATOM     16  C   UNL     1      47.368   5.771  14.711  0.00  0.00    +0.000 C 
BRANCH  16  17
ATOM     17  C   UNL     1      46.484   5.049  13.699  0.00  0.00    +0.000 A 
ATOM     18  N   UNL     1      46.732   3.739  13.467  0.00  0.00    +0.000 NA
ATOM     19  C   UNL     1      45.910   3.117  12.594  0.00  0.00    +0.000 A 
ATOM     20  C   UNL     1      44.887   3.745  11.917  0.00  0.00    +0.000 A 
ATOM     21  C   UNL     1      44.759   5.091  12.187  0.00  0.00    +0.000 A 
ATOM     22  N   UNL     1      45.542   5.762  13.056  0.00  0.00    +0.000 NA
BRANCH  20  23
ATOM     23  C   UNL     1      43.960   3.022  10.992  0.00  0.00    +0.000 C 
BRANCH  23  24
ATOM     24  O   UNL     1      44.012   3.648   9.710  0.00  0.00    +0.000 OA
BRANCH  24  25
ATOM     25  C   UNL     1      45.021   3.254   8.872  0.00  0.00    +0.000 A 
ATOM     26  C   UNL     1      45.754   4.085   8.031  0.00  0.00    +0.000 A 
ATOM     27  C   UNL     1      46.749   3.516   7.249  0.00  0.00    +0.000 A 
ATOM     28  N   UNL     1      47.052   2.202   7.253  0.00  0.00    +0.000 NA
ATOM     29  C   UNL     1      46.324   1.417   8.075  0.00  0.00    +0.000 A 
ATOM     30  C   UNL     1      45.312   1.891   8.892  0.00  0.00    +0.000 A 
ENDBRANCH  24  25
ENDBRANCH  23  24
ENDBRANCH  20  23
ENDBRANCH  16  17
ENDBRANCH   3  16
TORSDOF 6
ENDMDL
MODEL 7
REMARK VINA RESULT:    -6.965      2.359      3.173
REMARK INTER + INTRA:         -10.389
REMARK INTER:                  -9.499
REMARK INTRA:                  -0.891
REMARK UNBOUND:                -0.980
REMARK  Name = 
REMARK  6 active torsions:
REMARK  status: ('A' for Active; 'I' for Inactive)
REMARK    1  A    between atoms: C_2  and  C_19
REMARK    2  A    between atoms: N_3  and  C_4
REMARK    3  A    between atoms: C_4  and  C_5
REMARK    4  A    between atoms: C_8  and  C_9
REMARK    5  A    between atoms: C_9  and  O_10
REMARK    6  A    between atoms: O_10  and  C_11
REMARK                            x       y       z     vdW  Elec       q    Type
REMARK                         _______ _______ _______ _____ _____    ______ ____
ROOT
ATOM      1  O   UNL     1      50.175   7.312  15.144  0.00  0.00    +0.000 OA
ATOM      2  C   UNL     1      49.053   7.069  15.561  0.00  0.00    +0.000 C 
ATOM      3  N   UNL     1      47.893   7.398  14.900  0.00  0.00    +0.000 N 
ATOM      4  H   UNL     1      47.033   7.010  15.261  0.00  0.00    +0.000 HD
ENDROOT
BRANCH   2   5
ATOM      5  C   UNL     1      48.789   6.194  16.689  0.00  0.00    +0.000 A 
ATOM      6  C   UNL     1      48.347   4.888  16.527  0.00  0.00    +0.000 A 
ATOM      7  S   UNL     1      47.449   4.361  17.894  0.00  0.00    +0.000 S 
ATOM      8  C   UNL     1      47.808   5.792  18.751  0.00  0.00    +0.000 A 
ATOM      9  N   UNL     1      47.226   6.104  19.940  0.00  0.00    +0.000 NA
ATOM     10  C   UNL     1      47.666   7.198  20.472  0.00  0.00    +0.000 A 
ATOM     11  N   UNL     1      48.671   7.979  19.956  0.00  0.00    +0.000 N 
ATOM     12  C   UNL     1      49.278   7.710  18.754  0.00  0.00    +0.000 A 
ATOM     13  O   UNL     1      50.200   8.394  18.322  0.00  0.00    +0.000 OA
ATOM     14  C   UNL     1      48.725   6.564  18.070  0.00  0.00    +0.000 A 
ATOM     15  H   UNL     1      49.028   8.774  20.465  0.00  0.00    +0.000 HD
ENDBRANCH   2   5
BRANCH   3  16
ATOM     16  C   UNL     1      47.851   7.547  13.465  0.00  0.00    +0.000 C 
BRANCH  16  17
ATOM     17  C   UNL     1      46.861   6.575  12.832  0.00  0.00    +0.000 A 
ATOM     18  N   UNL     1      46.703   5.365  13.417  0.00  0.00    +0.000 NA
ATOM     19  C   UNL     1      45.792   4.540  12.856  0.00  0.00    +0.000 A 
ATOM     20  C   UNL     1      45.068   4.846  11.724  0.00  0.00    +0.000 A 
ATOM     21  C   UNL     1      45.349   6.082  11.178  0.00  0.00    +0.000 A 
ATOM     22  N   UNL     1      46.237   6.951  11.700  0.00  0.00    +0.000 NA
BRANCH  20  23
ATOM     23  C   UNL     1      44.031   3.934  11.151  0.00  0.00    +0.000 C 
BRANCH  23  24
ATOM     24  O   UNL     1      43.948   4.162   9.744  0.00  0.00    +0.000 OA
BRANCH  24  25
ATOM     25  C   UNL     1      44.852   3.497   8.959  0.00  0.00    +0.000 A 
ATOM     26  C   UNL     1      45.685   4.075   8.006  0.00  0.00    +0.000 A 
ATOM     27  C   UNL     1      46.547   3.249   7.299  0.00  0.00    +0.000 A 
ATOM     28  N   UNL     1      46.629   1.915   7.478  0.00  0.00    +0.000 NA
ATOM     29  C   UNL     1      45.808   1.379   8.405  0.00  0.00    +0.000 A 
ATOM     30  C   UNL     1      44.914   2.119   9.160  0.00  0.00    +0.000 A 
ENDBRANCH  24  25
ENDBRANCH  23  24
ENDBRANCH  20  23
ENDBRANCH  16  17
ENDBRANCH   3  16
TORSDOF 6
ENDMDL
MODEL 8
REMARK VINA RESULT:    -6.940      2.897      9.089
REMARK INTER + INTRA:         -10.355
REMARK INTER:                  -9.510
REMARK INTRA:                  -0.845
REMARK UNBOUND:                -0.980
REMARK  Name = 
REMARK  6 active torsions:
REMARK  status: ('A' for Active; 'I' for Inactive)
REMARK    1  A    between atoms: C_2  and  C_19
REMARK    2  A    between atoms: N_3  and  C_4
REMARK    3  A    between atoms: C_4  and  C_5
REMARK    4  A    between atoms: C_8  and  C_9
REMARK    5  A    between atoms: C_9  and  O_10
REMARK    6  A    between atoms: O_10  and  C_11
REMARK                            x       y       z     vdW  Elec       q    Type
REMARK                         _______ _______ _______ _____ _____    ______ ____
ROOT
ATOM      1  O   UNL     1      46.209   7.522  11.024  0.00  0.00    +0.000 OA
ATOM      2  C   UNL     1      46.075   6.383  11.443  0.00  0.00    +0.000 C 
ATOM      3  N   UNL     1      46.856   5.820  12.425  0.00  0.00    +0.000 N 
ATOM      4  H   UNL     1      46.555   4.932  12.799  0.00  0.00    +0.000 HD
ENDROOT
BRANCH   2   5
ATOM      5  C   UNL     1      44.930   5.545  11.135  0.00  0.00    +0.000 A 
ATOM      6  C   UNL     1      43.835   5.445  11.982  0.00  0.00    +0.000 A 
ATOM      7  S   UNL     1      43.033   3.938  11.787  0.00  0.00    +0.000 S 
ATOM      8  C   UNL     1      44.028   3.516  10.467  0.00  0.00    +0.000 A 
ATOM      9  N   UNL     1      44.018   2.279   9.903  0.00  0.00    +0.000 NA
ATOM     10  C   UNL     1      44.794   2.161   8.874  0.00  0.00    +0.000 A 
ATOM     11  N   UNL     1      45.536   3.178   8.323  0.00  0.00    +0.000 N 
ATOM     12  C   UNL     1      45.587   4.439   8.866  0.00  0.00    +0.000 A 
ATOM     13  O   UNL     1      46.223   5.348   8.344  0.00  0.00    +0.000 OA
ATOM     14  C   UNL     1      44.829   4.572  10.089  0.00  0.00    +0.000 A 
ATOM     15  H   UNL     1      46.054   3.042   7.468  0.00  0.00    +0.000 HD
ENDBRANCH   2   5
BRANCH   3  16
ATOM     16  C   UNL     1      47.516   6.625  13.425  0.00  0.00    +0.000 C 
BRANCH  16  17
ATOM     17  C   UNL     1      47.863   5.804  14.662  0.00  0.00    +0.000 A 
ATOM     18  N   UNL     1      47.235   4.617  14.827  0.00  0.00    +0.000 NA
ATOM     19  C   UNL     1      47.590   3.894  15.912  0.00  0.00    +0.000 A 
ATOM     20  C   UNL     1      48.503   4.316  16.855  0.00  0.00    +0.000 A 
ATOM     21  C   UNL     1      49.040   5.564  16.617  0.00  0.00    +0.000 A 
ATOM     22  N   UNL     1      48.734   6.324  15.547  0.00  0.00    +0.000 NA
BRANCH  20  23
ATOM     23  C   UNL     1      48.914   3.476  18.021  0.00  0.00    +0.000 C 
BRANCH  23  24
ATOM     24  O   UNL     1      49.639   2.345  17.538  0.00  0.00    +0.000 OA
BRANCH  24  25
ATOM     25  C   UNL     1      51.001   2.378  17.682  0.00  0.00    +0.000 A 
ATOM     26  C   UNL     1      51.754   3.485  18.059  0.00  0.00    +0.000 A 
ATOM     27  C   UNL     1      53.131   3.340  18.160  0.00  0.00    +0.000 A 
ATOM     28  N   UNL     1      53.787   2.188  17.913  0.00  0.00    +0.000 NA
ATOM     29  C   UNL     1      53.034   1.131  17.546  0.00  0.00    +0.000 A 
ATOM     30  C   UNL     1      51.656   1.177  17.418  0.00  0.00    +0.000 A 
ENDBRANCH  24  25
ENDBRANCH  23  24
ENDBRANCH  20  23
ENDBRANCH  16  17
ENDBRANCH   3  16
TORSDOF 6
ENDMDL
MODEL 9
REMARK VINA RESULT:    -6.578      3.067      4.554
REMARK INTER + INTRA:          -9.866
REMARK INTER:                  -8.522
REMARK INTRA:                  -1.344
REMARK UNBOUND:                -0.980
REMARK  Name = 
REMARK  6 active torsions:
REMARK  status: ('A' for Active; 'I' for Inactive)
REMARK    1  A    between atoms: C_2  and  C_19
REMARK    2  A    between atoms: N_3  and  C_4
REMARK    3  A    between atoms: C_4  and  C_5
REMARK    4  A    between atoms: C_8  and  C_9
REMARK    5  A    between atoms: C_9  and  O_10
REMARK    6  A    between atoms: O_10  and  C_11
REMARK                            x       y       z     vdW  Elec       q    Type
REMARK                         _______ _______ _______ _____ _____    ______ ____
ROOT
ATOM      1  O   UNL     1      50.964   6.421  15.775  0.00  0.00    +0.000 OA
ATOM      2  C   UNL     1      50.043   7.048  16.277  0.00  0.00    +0.000 C 
ATOM      3  N   UNL     1      49.576   8.251  15.803  0.00  0.00    +0.000 N 
ATOM      4  H   UNL     1      48.714   8.597  16.200  0.00  0.00    +0.000 HD
ENDROOT
BRANCH   2   5
ATOM      5  C   UNL     1      49.162   6.501  17.293  0.00  0.00    +0.000 A 
ATOM      6  C   UNL     1      49.204   6.923  18.615  0.00  0.00    +0.000 A 
ATOM      7  S   UNL     1      48.651   5.692  19.679  0.00  0.00    +0.000 S 
ATOM      8  C   UNL     1      48.196   4.691  18.373  0.00  0.00    +0.000 A 
ATOM      9  N   UNL     1      47.799   3.402  18.538  0.00  0.00    +0.000 NA
ATOM     10  C   UNL     1      47.434   2.818  17.443  0.00  0.00    +0.000 A 
ATOM     11  N   UNL     1      47.376   3.418  16.208  0.00  0.00    +0.000 N 
ATOM     12  C   UNL     1      47.779   4.713  15.993  0.00  0.00    +0.000 A 
ATOM     13  O   UNL     1      47.687   5.250  14.894  0.00  0.00    +0.000 OA
ATOM     14  C   UNL     1      48.310   5.357  17.172  0.00  0.00    +0.000 A 
ATOM     15  H   UNL     1      47.000   2.932  15.408  0.00  0.00    +0.000 HD
ENDBRANCH   2   5
BRANCH   3  16
ATOM     16  C   UNL     1      49.715   8.628  14.417  0.00  0.00    +0.000 C 
BRANCH  16  17
ATOM     17  C   UNL     1      48.464   8.284  13.616  0.00  0.00    +0.000 A 
ATOM     18  N   UNL     1      48.611   7.506  12.520  0.00  0.00    +0.000 NA
ATOM     19  C   UNL     1      47.480   7.187  11.852  0.00  0.00    +0.000 A 
ATOM     20  C   UNL     1      46.226   7.639  12.200  0.00  0.00    +0.000 A 
ATOM     21  C   UNL     1      46.199   8.470  13.300  0.00  0.00    +0.000 A 
ATOM     22  N   UNL     1      47.291   8.813  14.012  0.00  0.00    +0.000 NA
BRANCH  20  23
ATOM     23  C   UNL     1      44.984   7.232  11.473  0.00  0.00    +0.000 C 
BRANCH  23  24
ATOM     24  O   UNL     1      44.243   6.334  12.299  0.00  0.00    +0.000 OA
BRANCH  24  25
ATOM     25  C   UNL     1      44.066   5.062  11.823  0.00  0.00    +0.000 A 
ATOM     26  C   UNL     1      43.562   3.984  12.543  0.00  0.00    +0.000 A 
ATOM     27  C   UNL     1      43.445   2.760  11.899  0.00  0.00    +0.000 A 
ATOM     28  N   UNL     1      43.791   2.550  10.613  0.00  0.00    +0.000 NA
ATOM     29  C   UNL     1      44.281   3.611   9.937  0.00  0.00    +0.000 A 
ATOM     30  C   UNL     1      44.435   4.869  10.492  0.00  0.00    +0.000 A 
ENDBRANCH  24  25
ENDBRANCH  23  24
ENDBRANCH  20  23
ENDBRANCH  16  17
ENDBRANCH   3  16
TORSDOF 6
ENDMDL
