MODEL 1
REMARK VINA RESULT:    -7.617      0.000      0.000
REMARK INTER + INTRA:         -12.409
REMARK INTER:                 -11.180
REMARK INTRA:                  -1.229
REMARK UNBOUND:                -1.229
REMARK  Name = 
REMARK  9 active torsions:
REMARK  status: ('A' for Active; 'I' for Inactive)
REMARK    1  A    between atoms: C_1  and  C_2
REMARK    2  A    between atoms: C_2  and  N_3
REMARK    3  A    between atoms: N_3  and  C_4
REMARK    4  A    between atoms: N_3  and  C_19
REMARK    5  A    between atoms: C_4  and  C_5
REMARK    6  A    between atoms: C_8  and  C_9
REMARK    7  A    between atoms: C_9  and  N_10
REMARK    8  A    between atoms: N_10  and  C_11
REMARK    9  A    between atoms: C_11  and  C_12
REMARK                            x       y       z     vdW  Elec       q    Type
REMARK                         _______ _______ _______ _____ _____    ______ ____
ROOT
ATOM      1  C   UNL     1      46.927   7.886  13.201  0.00  0.00    +0.000 C 
ENDROOT
BRANCH   1   2
ATOM      2  C   UNL     1      46.034   6.999  12.372  0.00  0.00    +0.000 A 
ATOM      3  C   UNL     1      46.399   6.525  11.112  0.00  0.00    +0.000 A 
ATOM      4  C   UNL     1      45.635   5.523  10.507  0.00  0.00    +0.000 A 
ATOM      5  C   UNL     1      44.516   5.028  11.176  0.00  0.00    +0.000 A 
ATOM      6  N   UNL     1      44.099   5.529  12.364  0.00  0.00    +0.000 NA
ATOM      7  C   UNL     1      44.865   6.489  12.931  0.00  0.00    +0.000 A 
BRANCH   5   8
ATOM      8  C   UNL     1      43.752   3.832  10.635  0.00  0.00    +0.000 C 
BRANCH   8   9
ATOM      9  N   UNL     1      44.100   3.458   9.260  0.00  0.00    +0.000 NA
ATOM     10  H   UNL     1      44.869   4.074   8.975  0.00  0.00    +0.000 HD
BRANCH   9  11
ATOM     11  C   UNL     1      44.572   2.072   9.180  0.00  0.00    +0.000 C 
BRANCH  11  12
ATOM     12  C   UNL     1      45.764   2.017   8.262  0.00  0.00    +0.000 C 
ATOM     13  C   UNL     1      46.250   3.194   7.516  0.00  0.00    +0.000 C 
ATOM     14  C   UNL     1      47.397   2.694   6.827  0.00  0.00    +0.000 C 
ATOM     15  C   UNL     1      47.481   1.398   7.165  0.00  0.00    +0.000 C 
ATOM     16  N   UNL     1      46.498   0.956   8.032  0.00  0.00    +0.000 NA
ENDBRANCH  11  12
ENDBRANCH   9  11
ENDBRANCH   8   9
ENDBRANCH   5   8
ENDBRANCH   1   2
BRANCH   1  17
ATOM     17  N   UNL     1      48.250   7.392  13.628  0.00  0.00    +0.000 N 
BRANCH  17  18
ATOM     18  C   UNL     1      48.372   6.972  14.939  0.00  0.00    +0.000 A 
ATOM     19  C   UNL     1      48.880   7.809  15.924  0.00  0.00    +0.000 A 
ATOM     20  S   UNL     1      48.922   7.100  17.468  0.00  0.00    +0.000 S 
ATOM     21  C   UNL     1      48.259   5.652  16.879  0.00  0.00    +0.000 A 
ATOM     22  N   UNL     1      48.009   4.622  17.737  0.00  0.00    +0.000 NA
ATOM     23  C   UNL     1      47.478   3.584  17.187  0.00  0.00    +0.000 A 
ATOM     24  N   UNL     1      47.194   3.477  15.853  0.00  0.00    +0.000 N 
ATOM     25  C   UNL     1      47.467   4.470  14.935  0.00  0.00    +0.000 A 
ATOM     26  O   UNL     1      47.248   4.260  13.746  0.00  0.00    +0.000 OA
ATOM     27  C   UNL     1      48.032   5.688  15.513  0.00  0.00    +0.000 A 
ATOM     28  H   UNL     1      46.802   2.626  15.476  0.00  0.00    +0.000 HD
ENDBRANCH  17  18
BRANCH  17  30
ATOM     29  C   UNL     1      49.689   7.969  11.619  0.00  0.00    +0.000 C 
ATOM     30  C   UNL     1      49.257   6.935  12.646  0.00  0.00    +0.000 C 
ENDBRANCH  17  30
ENDBRANCH   1  17
TORSDOF 8
ENDMDL
MODEL 2
REMARK VINA RESULT:    -7.465      2.552      3.637
REMARK INTER + INTRA:         -12.186
REMARK INTER:                 -11.343
REMARK INTRA:                  -0.842
REMARK UNBOUND:                -1.229
REMARK  Name = 
REMARK  9 active torsions:
REMARK  status: ('A' for Active; 'I' for Inactive)
REMARK    1  A    between atoms: C_1  and  C_2
REMARK    2  A    between atoms: C_2  and  N_3
REMARK    3  A    between atoms: N_3  and  C_4
REMARK    4  A    between atoms: N_3  and  C_19
REMARK    5  A    between atoms: C_4  and  C_5
REMARK    6  A    between atoms: C_8  and  C_9
REMARK    7  A    between atoms: C_9  and  N_10
REMARK    8  A    between atoms: N_10  and  C_11
REMARK    9  A    between atoms: C_11  and  C_12
REMARK                            x       y       z     vdW  Elec       q    Type
REMARK                         _______ _______ _______ _____ _____    ______ ____
ROOT
ATOM      1  C   UNL     1      48.225   5.724  15.728  0.00  0.00    +0.000 C 
ENDROOT
BRANCH   1   2
ATOM      2  C   UNL     1      47.516   5.195  14.508  0.00  0.00    +0.000 A 
ATOM      3  C   UNL     1      47.168   3.853  14.358  0.00  0.00    +0.000 A 
ATOM      4  C   UNL     1      46.308   3.477  13.322  0.00  0.00    +0.000 A 
ATOM      5  C   UNL     1      45.826   4.456  12.454  0.00  0.00    +0.000 A 
ATOM      6  N   UNL     1      46.214   5.751  12.532  0.00  0.00    +0.000 NA
ATOM      7  C   UNL     1      47.036   6.088  13.552  0.00  0.00    +0.000 A 
BRANCH   5   8
ATOM      8  C   UNL     1      44.767   4.123  11.418  0.00  0.00    +0.000 C 
BRANCH   8   9
ATOM      9  N   UNL     1      45.006   2.879  10.679  0.00  0.00    +0.000 NA
ATOM     10  H   UNL     1      44.454   2.151  11.145  0.00  0.00    +0.000 HD
BRANCH   9  11
ATOM     11  C   UNL     1      44.547   2.979   9.289  0.00  0.00    +0.000 C 
BRANCH  11  12
ATOM     12  C   UNL     1      45.622   2.444   8.383  0.00  0.00    +0.000 C 
ATOM     13  C   UNL     1      46.306   3.279   7.376  0.00  0.00    +0.000 C 
ATOM     14  C   UNL     1      47.254   2.383   6.795  0.00  0.00    +0.000 C 
ATOM     15  C   UNL     1      47.066   1.209   7.419  0.00  0.00    +0.000 C 
ATOM     16  N   UNL     1      46.077   1.214   8.385  0.00  0.00    +0.000 NA
ENDBRANCH  11  12
ENDBRANCH   9  11
ENDBRANCH   8   9
ENDBRANCH   5   8
ENDBRANCH   1   2
BRANCH   1  17
ATOM     17  N   UNL     1      48.374   4.860  16.915  0.00  0.00    +0.000 N 
BRANCH  17  18
ATOM     18  C   UNL     1      49.656   4.660  17.390  0.00  0.00    +0.000 A 
ATOM     19  C   UNL     1      50.373   5.683  17.995  0.00  0.00    +0.000 A 
ATOM     20  S   UNL     1      51.919   5.214  18.524  0.00  0.00    +0.000 S 
ATOM     21  C   UNL     1      51.684   3.626  17.969  0.00  0.00    +0.000 A 
ATOM     22  N   UNL     1      52.659   2.692  18.156  0.00  0.00    +0.000 NA
ATOM     23  C   UNL     1      52.363   1.515  17.722  0.00  0.00    +0.000 A 
ATOM     24  N   UNL     1      51.187   1.194  17.102  0.00  0.00    +0.000 N 
ATOM     25  C   UNL     1      50.187   2.109  16.849  0.00  0.00    +0.000 A 
ATOM     26  O   UNL     1      49.195   1.751  16.219  0.00  0.00    +0.000 OA
ATOM     27  C   UNL     1      50.454   3.453  17.357  0.00  0.00    +0.000 A 
ATOM     28  H   UNL     1      51.023   0.258  16.760  0.00  0.00    +0.000 HD
ENDBRANCH  17  18
BRANCH  17  30
ATOM     29  C   UNL     1      46.901   5.706  18.800  0.00  0.00    +0.000 C 
ATOM     30  C   UNL     1      47.236   4.592  17.821  0.00  0.00    +0.000 C 
ENDBRANCH  17  30
ENDBRANCH   1  17
TORSDOF 8
ENDMDL
MODEL 3
REMARK VINA RESULT:    -6.829      1.777      2.148
REMARK INTER + INTRA:         -11.252
REMARK INTER:                 -10.251
REMARK INTRA:                  -1.001
REMARK UNBOUND:                -1.229
REMARK  Name = 
REMARK  9 active torsions:
REMARK  status: ('A' for Active; 'I' for Inactive)
REMARK    1  A    between atoms: C_1  and  C_2
REMARK    2  A    between atoms: C_2  and  N_3
REMARK    3  A    between atoms: N_3  and  C_4
REMARK    4  A    between atoms: N_3  and  C_19
REMARK    5  A    between atoms: C_4  and  C_5
REMARK    6  A    between atoms: C_8  and  C_9
REMARK    7  A    between atoms: C_9  and  N_10
REMARK    8  A    between atoms: N_10  and  C_11
REMARK    9  A    between atoms: C_11  and  C_12
REMARK                            x       y       z     vdW  Elec       q    Type
REMARK                         _______ _______ _______ _____ _____    ______ ____
ROOT
ATOM      1  C   UNL     1      48.603   6.512  13.384  0.00  0.00    +0.000 C 
ENDROOT
BRANCH   1   2
ATOM      2  C   UNL     1      47.306   5.879  12.952  0.00  0.00    +0.000 A 
ATOM      3  C   UNL     1      46.564   6.343  11.865  0.00  0.00    +0.000 A 
ATOM      4  C   UNL     1      45.506   5.571  11.376  0.00  0.00    +0.000 A 
ATOM      5  C   UNL     1      45.210   4.357  11.995  0.00  0.00    +0.000 A 
ATOM      6  N   UNL     1      45.866   3.927  13.099  0.00  0.00    +0.000 NA
ATOM      7  C   UNL     1      46.893   4.687  13.543  0.00  0.00    +0.000 A 
BRANCH   5   8
ATOM      8  C   UNL     1      44.181   3.412  11.402  0.00  0.00    +0.000 C 
BRANCH   8   9
ATOM      9  N   UNL     1      44.721   2.449  10.436  0.00  0.00    +0.000 NA
ATOM     10  H   UNL     1      44.150   1.601  10.518  0.00  0.00    +0.000 HD
BRANCH   9  11
ATOM     11  C   UNL     1      44.609   2.943   9.060  0.00  0.00    +0.000 C 
BRANCH  11  12
ATOM     12  C   UNL     1      45.710   2.334   8.234  0.00  0.00    +0.000 C 
ATOM     13  C   UNL     1      46.464   3.099   7.221  0.00  0.00    +0.000 C 
ATOM     14  C   UNL     1      47.411   2.150   6.732  0.00  0.00    +0.000 C 
ATOM     15  C   UNL     1      47.161   1.015   7.404  0.00  0.00    +0.000 C 
ATOM     16  N   UNL     1      46.128   1.094   8.320  0.00  0.00    +0.000 NA
ENDBRANCH  11  12
ENDBRANCH   9  11
ENDBRANCH   8   9
ENDBRANCH   5   8
ENDBRANCH   1   2
BRANCH   1  17
ATOM     17  N   UNL     1      48.673   7.219  14.677  0.00  0.00    +0.000 N 
BRANCH  17  18
ATOM     18  C   UNL     1      49.704   6.871  15.529  0.00  0.00    +0.000 A 
ATOM     19  C   UNL     1      50.975   7.412  15.388  0.00  0.00    +0.000 A 
ATOM     20  S   UNL     1      52.085   6.864  16.553  0.00  0.00    +0.000 S 
ATOM     21  C   UNL     1      50.907   5.889  17.292  0.00  0.00    +0.000 A 
ATOM     22  N   UNL     1      51.226   5.163  18.400  0.00  0.00    +0.000 NA
ATOM     23  C   UNL     1      50.249   4.483  18.895  0.00  0.00    +0.000 A 
ATOM     24  N   UNL     1      48.988   4.449  18.367  0.00  0.00    +0.000 N 
ATOM     25  C   UNL     1      48.623   5.128  17.224  0.00  0.00    +0.000 A 
ATOM     26  O   UNL     1      47.488   4.981  16.779  0.00  0.00    +0.000 OA
ATOM     27  C   UNL     1      49.684   5.950  16.645  0.00  0.00    +0.000 A 
ATOM     28  H   UNL     1      48.269   3.875  18.786  0.00  0.00    +0.000 HD
ENDBRANCH  17  18
BRANCH  17  30
ATOM     29  C   UNL     1      48.078   9.493  13.724  0.00  0.00    +0.000 C 
ATOM     30  C   UNL     1      47.995   8.516  14.885  0.00  0.00    +0.000 C 
ENDBRANCH  17  30
ENDBRANCH   1  17
TORSDOF 8
ENDMDL
MODEL 4
REMARK VINA RESULT:    -6.777      2.395      2.936
REMARK INTER + INTRA:         -11.176
REMARK INTER:                 -10.051
REMARK INTRA:                  -1.125
REMARK UNBOUND:                -1.229
REMARK  Name = 
REMARK  9 active torsions:
REMARK  status: ('A' for Active; 'I' for Inactive)
REMARK    1  A    between atoms: C_1  and  C_2
REMARK    2  A    between atoms: C_2  and  N_3
REMARK    3  A    between atoms: N_3  and  C_4
REMARK    4  A    between atoms: N_3  and  C_19
REMARK    5  A    between atoms: C_4  and  C_5
REMARK    6  A    between atoms: C_8  and  C_9
REMARK    7  A    between atoms: C_9  and  N_10
REMARK    8  A    between atoms: N_10  and  C_11
REMARK    9  A    between atoms: C_11  and  C_12
REMARK                            x       y       z     vdW  Elec       q    Type
REMARK                         _______ _______ _______ _____ _____    ______ ____
ROOT
ATOM      1  C   UNL     1      48.557   6.866  13.407  0.00  0.00    +0.000 C 
ENDROOT
BRANCH   1   2
ATOM      2  C   UNL     1      47.317   6.237  12.825  0.00  0.00    +0.000 A 
ATOM      3  C   UNL     1      46.718   6.691  11.650  0.00  0.00    +0.000 A 
ATOM      4  C   UNL     1      45.723   5.920  11.044  0.00  0.00    +0.000 A 
ATOM      5  C   UNL     1      45.343   4.716  11.636  0.00  0.00    +0.000 A 
ATOM      6  N   UNL     1      45.855   4.295  12.818  0.00  0.00    +0.000 NA
ATOM      7  C   UNL     1      46.825   5.055  13.375  0.00  0.00    +0.000 A 
BRANCH   5   8
ATOM      8  C   UNL     1      44.387   3.770  10.933  0.00  0.00    +0.000 C 
BRANCH   8   9
ATOM      9  N   UNL     1      44.984   2.494  10.520  0.00  0.00    +0.000 NA
ATOM     10  H   UNL     1      44.652   1.788  11.185  0.00  0.00    +0.000 HD
BRANCH   9  11
ATOM     11  C   UNL     1      44.542   2.100   9.179  0.00  0.00    +0.000 C 
BRANCH  11  12
ATOM     12  C   UNL     1      45.745   2.004   8.280  0.00  0.00    +0.000 C 
ATOM     13  C   UNL     1      46.292   3.166   7.552  0.00  0.00    +0.000 C 
ATOM     14  C   UNL     1      47.428   2.625   6.877  0.00  0.00    +0.000 C 
ATOM     15  C   UNL     1      47.454   1.324   7.205  0.00  0.00    +0.000 C 
ATOM     16  N   UNL     1      46.440   0.915   8.052  0.00  0.00    +0.000 NA
ENDBRANCH  11  12
ENDBRANCH   9  11
ENDBRANCH   8   9
ENDBRANCH   5   8
ENDBRANCH   1   2
BRANCH   1  17
ATOM     17  N   UNL     1      48.527   7.398  14.783  0.00  0.00    +0.000 N 
BRANCH  17  18
ATOM     18  C   UNL     1      49.233   6.698  15.742  0.00  0.00    +0.000 A 
ATOM     19  C   UNL     1      48.598   5.831  16.621  0.00  0.00    +0.000 A 
ATOM     20  S   UNL     1      49.656   5.059  17.704  0.00  0.00    +0.000 S 
ATOM     21  C   UNL     1      51.002   5.852  17.036  0.00  0.00    +0.000 A 
ATOM     22  N   UNL     1      52.250   5.591  17.517  0.00  0.00    +0.000 NA
ATOM     23  C   UNL     1      53.198   6.225  16.918  0.00  0.00    +0.000 A 
ATOM     24  N   UNL     1      53.007   7.112  15.894  0.00  0.00    +0.000 N 
ATOM     25  C   UNL     1      51.764   7.445  15.399  0.00  0.00    +0.000 A 
ATOM     26  O   UNL     1      51.679   8.307  14.529  0.00  0.00    +0.000 OA
ATOM     27  C   UNL     1      50.654   6.722  16.016  0.00  0.00    +0.000 A 
ATOM     28  H   UNL     1      53.790   7.599  15.481  0.00  0.00    +0.000 HD
ENDBRANCH  17  18
BRANCH  17  30
ATOM     29  C   UNL     1      48.591   9.810  13.998  0.00  0.00    +0.000 C 
ATOM     30  C   UNL     1      48.168   8.806  15.058  0.00  0.00    +0.000 C 
ENDBRANCH  17  30
ENDBRANCH   1  17
TORSDOF 8
ENDMDL
MODEL 5
REMARK VINA RESULT:    -6.600      2.518      7.321
REMARK INTER + INTRA:         -10.915
REMARK INTER:                 -10.149
REMARK INTRA:                  -0.766
REMARK UNBOUND:                -1.229
REMARK  Name = 
REMARK  9 active torsions:
REMARK  status: ('A' for Active; 'I' for Inactive)
REMARK    1  A    between atoms: C_1  and  C_2
REMARK    2  A    between atoms: C_2  and  N_3
REMARK    3  A    between atoms: N_3  and  C_4
REMARK    4  A    between atoms: N_3  and  C_19
REMARK    5  A    between atoms: C_4  and  C_5
REMARK    6  A    between atoms: C_8  and  C_9
REMARK    7  A    between atoms: C_9  and  N_10
REMARK    8  A    between atoms: N_10  and  C_11
REMARK    9  A    between atoms: C_11  and  C_12
REMARK                            x       y       z     vdW  Elec       q    Type
REMARK                         _______ _______ _______ _____ _____    ______ ____
ROOT
ATOM      1  C   UNL     1      46.986   6.731  11.323  0.00  0.00    +0.000 C 
ENDROOT
BRANCH   1   2
ATOM      2  C   UNL     1      47.725   6.667  12.635  0.00  0.00    +0.000 A 
ATOM      3  C   UNL     1      48.520   7.712  13.107  0.00  0.00    +0.000 A 
ATOM      4  C   UNL     1      48.979   7.684  14.427  0.00  0.00    +0.000 A 
ATOM      5  C   UNL     1      48.639   6.603  15.240  0.00  0.00    +0.000 A 
ATOM      6  N   UNL     1      47.936   5.541  14.778  0.00  0.00    +0.000 NA
ATOM      7  C   UNL     1      47.494   5.600  13.502  0.00  0.00    +0.000 A 
BRANCH   5   8
ATOM      8  C   UNL     1      48.976   6.606  16.720  0.00  0.00    +0.000 C 
BRANCH   8   9
ATOM      9  N   UNL     1      47.936   6.037  17.583  0.00  0.00    +0.000 NA
ATOM     10  H   UNL     1      47.285   5.537  16.967  0.00  0.00    +0.000 HD
BRANCH   9  11
ATOM     11  C   UNL     1      48.493   5.071  18.536  0.00  0.00    +0.000 C 
BRANCH  11  12
ATOM     12  C   UNL     1      48.950   3.852  17.781  0.00  0.00    +0.000 C 
ATOM     13  C   UNL     1      50.356   3.404  17.765  0.00  0.00    +0.000 C 
ATOM     14  C   UNL     1      50.312   2.215  16.976  0.00  0.00    +0.000 C 
ATOM     15  C   UNL     1      49.029   2.075  16.609  0.00  0.00    +0.000 C 
ATOM     16  N   UNL     1      48.177   3.059  17.078  0.00  0.00    +0.000 NA
ENDBRANCH  11  12
ENDBRANCH   9  11
ENDBRANCH   8   9
ENDBRANCH   5   8
ENDBRANCH   1   2
BRANCH   1  17
ATOM     17  N   UNL     1      45.513   6.642  11.313  0.00  0.00    +0.000 N 
BRANCH  17  18
ATOM     18  C   UNL     1      44.960   5.376  11.323  0.00  0.00    +0.000 A 
ATOM     19  C   UNL     1      44.295   4.885  12.438  0.00  0.00    +0.000 A 
ATOM     20  S   UNL     1      43.675   3.316  12.229  0.00  0.00    +0.000 S 
ATOM     21  C   UNL     1      44.267   3.238  10.639  0.00  0.00    +0.000 A 
ATOM     22  N   UNL     1      44.033   2.129   9.882  0.00  0.00    +0.000 NA
ATOM     23  C   UNL     1      44.502   2.190   8.683  0.00  0.00    +0.000 A 
ATOM     24  N   UNL     1      45.202   3.253   8.181  0.00  0.00    +0.000 N 
ATOM     25  C   UNL     1      45.505   4.379   8.917  0.00  0.00    +0.000 A 
ATOM     26  O   UNL     1      46.202   5.253   8.410  0.00  0.00    +0.000 OA
ATOM     27  C   UNL     1      44.960   4.380  10.273  0.00  0.00    +0.000 A 
ATOM     28  H   UNL     1      45.568   3.231   7.240  0.00  0.00    +0.000 HD
ENDBRANCH  17  18
BRANCH  17  30
ATOM     29  C   UNL     1      45.411   9.078  12.015  0.00  0.00    +0.000 C 
ATOM     30  C   UNL     1      44.668   7.784  11.724  0.00  0.00    +0.000 C 
ENDBRANCH  17  30
ENDBRANCH   1  17
TORSDOF 8
ENDMDL
MODEL 6
REMARK VINA RESULT:    -6.255      2.775      3.526
REMARK INTER + INTRA:         -10.409
REMARK INTER:                  -9.474
REMARK INTRA:                  -0.935
REMARK UNBOUND:                -1.229
REMARK  Name = 
REMARK  9 active torsions:
REMARK  status: ('A' for Active; 'I' for Inactive)
REMARK    1  A    between atoms: C_1  and  C_2
REMARK    2  A    between atoms: C_2  and  N_3
REMARK    3  A    between atoms: N_3  and  C_4
REMARK    4  A    between atoms: N_3  and  C_19
REMARK    5  A    between atoms: C_4  and  C_5
REMARK    6  A    between atoms: C_8  and  C_9
REMARK    7  A    between atoms: C_9  and  N_10
REMARK    8  A    between atoms: N_10  and  C_11
REMARK    9  A    between atoms: C_11  and  C_12
REMARK                            x       y       z     vdW  Elec       q    Type
REMARK                         _______ _______ _______ _____ _____    ______ ____
ROOT
ATOM      1  C   UNL     1      45.854   8.225  13.282  0.00  0.00    +0.000 C 
ENDROOT
BRANCH   1   2
ATOM      2  C   UNL     1      45.576   6.887  12.646  0.00  0.00    +0.000 A 
ATOM      3  C   UNL     1      45.935   5.678  13.241  0.00  0.00    +0.000 A 
ATOM      4  C   UNL     1      45.439   4.480  12.718  0.00  0.00    +0.000 A 
ATOM      5  C   UNL     1      44.603   4.523  11.603  0.00  0.00    +0.000 A 
ATOM      6  N   UNL     1      44.306   5.680  10.962  0.00  0.00    +0.000 NA
ATOM      7  C   UNL     1      44.789   6.823  11.497  0.00  0.00    +0.000 A 
BRANCH   5   8
ATOM      8  C   UNL     1      43.912   3.269  11.099  0.00  0.00    +0.000 C 
BRANCH   8   9
ATOM      9  N   UNL     1      44.693   2.488  10.133  0.00  0.00    +0.000 NA
ATOM     10  H   UNL     1      44.150   1.641   9.935  0.00  0.00    +0.000 HD
BRANCH   9  11
ATOM     11  C   UNL     1      44.878   3.216   8.874  0.00  0.00    +0.000 C 
BRANCH  11  12
ATOM     12  C   UNL     1      45.888   2.483   8.033  0.00  0.00    +0.000 C 
ATOM     13  C   UNL     1      46.503   3.074   6.829  0.00  0.00    +0.000 C 
ATOM     14  C   UNL     1      47.407   2.060   6.390  0.00  0.00    +0.000 C 
ATOM     15  C   UNL     1      47.259   1.048   7.260  0.00  0.00    +0.000 C 
ATOM     16  N   UNL     1      46.338   1.274   8.266  0.00  0.00    +0.000 NA
ENDBRANCH  11  12
ENDBRANCH   9  11
ENDBRANCH   8   9
ENDBRANCH   5   8
ENDBRANCH   1   2
BRANCH   1  17
ATOM     17  N   UNL     1      46.836   9.135  12.663  0.00  0.00    +0.000 N 
BRANCH  17  18
ATOM     18  C   UNL     1      48.155   8.724  12.651  0.00  0.00    +0.000 A 
ATOM     19  C   UNL     1      48.771   8.297  11.482  0.00  0.00    +0.000 A 
ATOM     20  S   UNL     1      50.399   7.856  11.688  0.00  0.00    +0.000 S 
ATOM     21  C   UNL     1      50.343   8.224  13.346  0.00  0.00    +0.000 A 
ATOM     22  N   UNL     1      51.464   8.085  14.109  0.00  0.00    +0.000 NA
ATOM     23  C   UNL     1      51.315   8.419  15.345  0.00  0.00    +0.000 A 
ATOM     24  N   UNL     1      50.139   8.861  15.888  0.00  0.00    +0.000 N 
ATOM     25  C   UNL     1      48.967   8.978  15.173  0.00  0.00    +0.000 A 
ATOM     26  O   UNL     1      47.940   9.310  15.758  0.00  0.00    +0.000 OA
ATOM     27  C   UNL     1      49.090   8.650  13.753  0.00  0.00    +0.000 A 
ATOM     28  H   UNL     1      50.078   9.083  16.872  0.00  0.00    +0.000 HD
ENDBRANCH  17  18
BRANCH  17  30
ATOM     29  C   UNL     1      44.950  10.579  11.771  0.00  0.00    +0.000 C 
ATOM     30  C   UNL     1      46.419  10.191  11.716  0.00  0.00    +0.000 C 
ENDBRANCH  17  30
ENDBRANCH   1  17
TORSDOF 8
ENDMDL
MODEL 7
REMARK VINA RESULT:    -6.230      2.091      3.002
REMARK INTER + INTRA:         -10.372
REMARK INTER:                  -9.302
REMARK INTRA:                  -1.070
REMARK UNBOUND:                -1.229
REMARK  Name = 
REMARK  9 active torsions:
REMARK  status: ('A' for Active; 'I' for Inactive)
REMARK    1  A    between atoms: C_1  and  C_2
REMARK    2  A    between atoms: C_2  and  N_3
REMARK    3  A    between atoms: N_3  and  C_4
REMARK    4  A    between atoms: N_3  and  C_19
REMARK    5  A    between atoms: C_4  and  C_5
REMARK    6  A    between atoms: C_8  and  C_9
REMARK    7  A    between atoms: C_9  and  N_10
REMARK    8  A    between atoms: N_10  and  C_11
REMARK    9  A    between atoms: C_11  and  C_12
REMARK                            x       y       z     vdW  Elec       q    Type
REMARK                         _______ _______ _______ _____ _____    ______ ____
ROOT
ATOM      1  C   UNL     1      46.504   7.896  13.324  0.00  0.00    +0.000 C 
ENDROOT
BRANCH   1   2
ATOM      2  C   UNL     1      45.600   6.824  12.772  0.00  0.00    +0.000 A 
ATOM      3  C   UNL     1      44.925   6.955  11.558  0.00  0.00    +0.000 A 
ATOM      4  C   UNL     1      44.301   5.839  10.995  0.00  0.00    +0.000 A 
ATOM      5  C   UNL     1      44.357   4.619  11.668  0.00  0.00    +0.000 A 
ATOM      6  N   UNL     1      44.938   4.488  12.885  0.00  0.00    +0.000 NA
ATOM      7  C   UNL     1      45.545   5.581  13.400  0.00  0.00    +0.000 A 
BRANCH   5   8
ATOM      8  C   UNL     1      43.836   3.348  11.022  0.00  0.00    +0.000 C 
BRANCH   8   9
ATOM      9  N   UNL     1      44.879   2.450  10.515  0.00  0.00    +0.000 NA
ATOM     10  H   UNL     1      44.903   1.643  11.147  0.00  0.00    +0.000 HD
BRANCH   9  11
ATOM     11  C   UNL     1      44.564   1.962   9.168  0.00  0.00    +0.000 C 
BRANCH  11  12
ATOM     12  C   UNL     1      45.691   2.330   8.242  0.00  0.00    +0.000 C 
ATOM     13  C   UNL     1      46.711   1.359   7.800  0.00  0.00    +0.000 C 
ATOM     14  C   UNL     1      47.534   2.123   6.921  0.00  0.00    +0.000 C 
ATOM     15  C   UNL     1      47.010   3.359   6.923  0.00  0.00    +0.000 C 
ATOM     16  N   UNL     1      45.893   3.517   7.722  0.00  0.00    +0.000 NA
ENDBRANCH  11  12
ENDBRANCH   9  11
ENDBRANCH   8   9
ENDBRANCH   5   8
ENDBRANCH   1   2
BRANCH   1  17
ATOM     17  N   UNL     1      47.952   7.637  13.442  0.00  0.00    +0.000 N 
BRANCH  17  18
ATOM     18  C   UNL     1      48.464   7.502  14.718  0.00  0.00    +0.000 A 
ATOM     19  C   UNL     1      48.521   6.266  15.349  0.00  0.00    +0.000 A 
ATOM     20  S   UNL     1      49.205   6.324  16.904  0.00  0.00    +0.000 S 
ATOM     21  C   UNL     1      49.455   8.000  16.789  0.00  0.00    +0.000 A 
ATOM     22  N   UNL     1      50.054   8.667  17.816  0.00  0.00    +0.000 NA
ATOM     23  C   UNL     1      50.220   9.929  17.609  0.00  0.00    +0.000 A 
ATOM     24  N   UNL     1      49.821  10.585  16.476  0.00  0.00    +0.000 N 
ATOM     25  C   UNL     1      49.173   9.967  15.428  0.00  0.00    +0.000 A 
ATOM     26  O   UNL     1      48.784  10.646  14.483  0.00  0.00    +0.000 OA
ATOM     27  C   UNL     1      48.996   8.525  15.593  0.00  0.00    +0.000 A 
ATOM     28  H   UNL     1      49.956  11.582  16.384  0.00  0.00    +0.000 HD
ENDBRANCH  17  18
BRANCH  17  30
ATOM     29  C   UNL     1      49.416   8.141  11.432  0.00  0.00    +0.000 C 
ATOM     30  C   UNL     1      48.735   7.102  12.308  0.00  0.00    +0.000 C 
ENDBRANCH  17  30
ENDBRANCH   1  17
TORSDOF 8
ENDMDL
MODEL 8
REMARK VINA RESULT:    -6.083      2.310      3.789
REMARK INTER + INTRA:         -10.157
REMARK INTER:                  -9.444
REMARK INTRA:                  -0.713
REMARK UNBOUND:                -1.229
REMARK  Name = 
REMARK  9 active torsions:
REMARK  status: ('A' for Active; 'I' for Inactive)
REMARK    1  A    between atoms: C_1  and  C_2
REMARK    2  A    between atoms: C_2  and  N_3
REMARK    3  A    between atoms: N_3  and  C_4
REMARK    4  A    between atoms: N_3  and  C_19
REMARK    5  A    between atoms: C_4  and  C_5
REMARK    6  A    between atoms: C_8  and  C_9
REMARK    7  A    between atoms: C_9  and  N_10
REMARK    8  A    between atoms: N_10  and  C_11
REMARK    9  A    between atoms: C_11  and  C_12
REMARK                            x       y       z     vdW  Elec       q    Type
REMARK                         _______ _______ _______ _____ _____    ______ ____
ROOT
ATOM      1  C   UNL     1      48.133   6.431  13.916  0.00  0.00    +0.000 C 
ENDROOT
BRANCH   1   2
ATOM      2  C   UNL     1      46.939   5.858  13.197  0.00  0.00    +0.000 A 
ATOM      3  C   UNL     1      46.614   6.194  11.883  0.00  0.00    +0.000 A 
ATOM      4  C   UNL     1      45.644   5.452  11.203  0.00  0.00    +0.000 A 
ATOM      5  C   UNL     1      45.014   4.396  11.862  0.00  0.00    +0.000 A 
ATOM      6  N   UNL     1      45.257   4.103  13.162  0.00  0.00    +0.000 NA
ATOM      7  C   UNL     1      46.210   4.829  13.790  0.00  0.00    +0.000 A 
BRANCH   5   8
ATOM      8  C   UNL     1      44.076   3.464  11.117  0.00  0.00    +0.000 C 
BRANCH   8   9
ATOM      9  N   UNL     1      44.746   2.488  10.251  0.00  0.00    +0.000 NA
ATOM     10  H   UNL     1      44.322   1.577  10.454  0.00  0.00    +0.000 HD
BRANCH   9  11
ATOM     11  C   UNL     1      44.528   2.785   8.831  0.00  0.00    +0.000 C 
BRANCH  11  12
ATOM     12  C   UNL     1      45.808   2.536   8.080  0.00  0.00    +0.000 C 
ATOM     13  C   UNL     1      46.419   1.198   7.968  0.00  0.00    +0.000 C 
ATOM     14  C   UNL     1      47.568   1.429   7.152  0.00  0.00    +0.000 C 
ATOM     15  C   UNL     1      47.561   2.745   6.888  0.00  0.00    +0.000 C 
ATOM     16  N   UNL     1      46.506   3.446   7.445  0.00  0.00    +0.000 NA
ENDBRANCH  11  12
ENDBRANCH   9  11
ENDBRANCH   8   9
ENDBRANCH   5   8
ENDBRANCH   1   2
BRANCH   1  17
ATOM     17  N   UNL     1      48.275   7.894  14.040  0.00  0.00    +0.000 N 
BRANCH  17  18
ATOM     18  C   UNL     1      49.559   8.395  14.137  0.00  0.00    +0.000 A 
ATOM     19  C   UNL     1      50.003   9.034  15.287  0.00  0.00    +0.000 A 
ATOM     20  S   UNL     1      51.619   9.553  15.200  0.00  0.00    +0.000 S 
ATOM     21  C   UNL     1      51.786   8.940  13.625  0.00  0.00    +0.000 A 
ATOM     22  N   UNL     1      52.983   9.042  12.982  0.00  0.00    +0.000 NA
ATOM     23  C   UNL     1      53.005   8.517  11.805  0.00  0.00    +0.000 A 
ATOM     24  N   UNL     1      51.931   7.917  11.207  0.00  0.00    +0.000 N 
ATOM     25  C   UNL     1      50.687   7.826  11.795  0.00  0.00    +0.000 A 
ATOM     26  O   UNL     1      49.759   7.337  11.156  0.00  0.00    +0.000 OA
ATOM     27  C   UNL     1      50.617   8.369  13.150  0.00  0.00    +0.000 A 
ATOM     28  H   UNL     1      52.003   7.546  10.270  0.00  0.00    +0.000 HD
ENDBRANCH  17  18
BRANCH  17  30
ATOM     29  C   UNL     1      47.520   9.750  12.483  0.00  0.00    +0.000 C 
ATOM     30  C   UNL     1      47.189   8.812  13.632  0.00  0.00    +0.000 C 
ENDBRANCH  17  30
ENDBRANCH   1  17
TORSDOF 8
ENDMDL
MODEL 9
REMARK VINA RESULT:    -5.886      2.923      5.152
REMARK INTER + INTRA:          -9.868
REMARK INTER:                  -8.837
REMARK INTRA:                  -1.031
REMARK UNBOUND:                -1.229
REMARK  Name = 
REMARK  9 active torsions:
REMARK  status: ('A' for Active; 'I' for Inactive)
REMARK    1  A    between atoms: C_1  and  C_2
REMARK    2  A    between atoms: C_2  and  N_3
REMARK    3  A    between atoms: N_3  and  C_4
REMARK    4  A    between atoms: N_3  and  C_19
REMARK    5  A    between atoms: C_4  and  C_5
REMARK    6  A    between atoms: C_8  and  C_9
REMARK    7  A    between atoms: C_9  and  N_10
REMARK    8  A    between atoms: N_10  and  C_11
REMARK    9  A    between atoms: C_11  and  C_12
REMARK                            x       y       z     vdW  Elec       q    Type
REMARK                         _______ _______ _______ _____ _____    ______ ____
ROOT
ATOM      1  C   UNL     1      49.391   6.483  17.186  0.00  0.00    +0.000 C 
ENDROOT
BRANCH   1   2
ATOM      2  C   UNL     1      48.683   6.675  15.870  0.00  0.00    +0.000 A 
ATOM      3  C   UNL     1      48.680   7.888  15.182  0.00  0.00    +0.000 A 
ATOM      4  C   UNL     1      48.213   7.931  13.866  0.00  0.00    +0.000 A 
ATOM      5  C   UNL     1      47.749   6.758  13.273  0.00  0.00    +0.000 A 
ATOM      6  N   UNL     1      47.668   5.586  13.948  0.00  0.00    +0.000 NA
ATOM      7  C   UNL     1      48.139   5.571  15.215  0.00  0.00    +0.000 A 
BRANCH   5   8
ATOM      8  C   UNL     1      47.385   6.722  11.799  0.00  0.00    +0.000 C 
BRANCH   8   9
ATOM      9  N   UNL     1      45.949   6.840  11.523  0.00  0.00    +0.000 NA
ATOM     10  H   UNL     1      45.816   7.739  11.047  0.00  0.00    +0.000 HD
BRANCH   9  11
ATOM     11  C   UNL     1      45.482   5.777  10.626  0.00  0.00    +0.000 C 
BRANCH  11  12
ATOM     12  C   UNL     1      44.636   4.814  11.414  0.00  0.00    +0.000 C 
ATOM     13  C   UNL     1      44.217   3.502  10.884  0.00  0.00    +0.000 C 
ATOM     14  C   UNL     1      43.484   2.929  11.966  0.00  0.00    +0.000 C 
ATOM     15  C   UNL     1      43.504   3.853  12.941  0.00  0.00    +0.000 C 
ATOM     16  N   UNL     1      44.192   5.012  12.632  0.00  0.00    +0.000 NA
ENDBRANCH  11  12
ENDBRANCH   9  11
ENDBRANCH   8   9
ENDBRANCH   5   8
ENDBRANCH   1   2
BRANCH   1  17
ATOM     17  N   UNL     1      49.319   5.176  17.868  0.00  0.00    +0.000 N 
BRANCH  17  18
ATOM     18  C   UNL     1      50.517   4.567  18.187  0.00  0.00    +0.000 A 
ATOM     19  C   UNL     1      51.485   5.220  18.938  0.00  0.00    +0.000 A 
ATOM     20  S   UNL     1      52.871   4.281  19.232  0.00  0.00    +0.000 S 
ATOM     21  C   UNL     1      52.227   2.966  18.371  0.00  0.00    +0.000 A 
ATOM     22  N   UNL     1      52.935   1.805  18.277  0.00  0.00    +0.000 NA
ATOM     23  C   UNL     1      52.339   0.866  17.627  0.00  0.00    +0.000 A 
ATOM     24  N   UNL     1      51.106   0.991  17.046  0.00  0.00    +0.000 N 
ATOM     25  C   UNL     1      50.367   2.155  17.073  0.00  0.00    +0.000 A 
ATOM     26  O   UNL     1      49.304   2.202  16.462  0.00  0.00    +0.000 OA
ATOM     27  C   UNL     1      50.980   3.242  17.835  0.00  0.00    +0.000 A 
ATOM     28  H   UNL     1      50.701   0.225  16.526  0.00  0.00    +0.000 HD
ENDBRANCH  17  18
BRANCH  17  30
ATOM     29  C   UNL     1      47.237   5.861  19.145  0.00  0.00    +0.000 C 
ATOM     30  C   UNL     1      48.097   4.744  18.579  0.00  0.00    +0.000 C 
ENDBRANCH  17  30
ENDBRANCH   1  17
TORSDOF 8
ENDMDL
