MODEL 1
REMARK VINA RESULT:    -7.422      0.000      0.000
REMARK INTER + INTRA:         -11.301
REMARK INTER:                 -10.676
REMARK INTRA:                  -0.624
REMARK UNBOUND:                -0.624
REMARK  Name = 
REMARK  9 active torsions:
REMARK  status: ('A' for Active; 'I' for Inactive)
REMARK    1  A    between atoms: N_1  and  C_2
REMARK    2  A    between atoms: C_2  and  C_3
REMARK    3  A    between atoms: C_6  and  O_7
REMARK    4  A    between atoms: O_7  and  C_8
REMARK    5  A    between atoms: C_8  and  C_9
REMARK    6  A    between atoms: C_9  and  O_10
REMARK    7  A    between atoms: N_13  and  C_14
REMARK    8  A    between atoms: C_14  and  C_15
REMARK    9  A    between atoms: C_15  and  O_16
REMARK                            x       y       z     vdW  Elec       q    Type
REMARK                         _______ _______ _______ _____ _____    ______ ____
ROOT
ATOM      1  C   UNL     1      43.374   4.190  11.229  0.00  0.00    +0.000 C 
ENDROOT
BRANCH   1   2
ATOM      2  C   UNL     1      44.162   5.101  12.191  0.00  0.00    +0.000 C 
ATOM      3  C   UNL     1      44.679   6.357  11.480  0.00  0.00    +0.000 C 
ATOM      4  C   UNL     1      45.660   7.142  12.352  0.00  0.00    +0.000 C 
ATOM      5  N   UNL     1      46.787   6.296  12.798  0.00  0.00    +0.000 NA
ATOM      6  C   UNL     1      46.264   5.188  13.615  0.00  0.00    +0.000 C 
ATOM      7  C   UNL     1      45.323   4.307  12.796  0.00  0.00    +0.000 C 
BRANCH   2   8
ATOM      8  O   UNL     1      43.288   5.502  13.260  0.00  0.00    +0.000 OA
ATOM      9  H   UNL     1      42.919   4.678  13.636  0.00  0.00    +0.000 HD
ENDBRANCH   2   8
BRANCH   5  10
ATOM     10  C   UNL     1      47.743   7.136  13.561  0.00  0.00    +0.000 C 
BRANCH  10  11
ATOM     11  C   UNL     1      47.359   8.625  13.621  0.00  0.00    +0.000 C 
BRANCH  11  12
ATOM     12  O   UNL     1      47.132   9.030  14.965  0.00  0.00    +0.000 OA
ATOM     13  H   UNL     1      46.161   8.997  15.084  0.00  0.00    +0.000 HD
ENDBRANCH  11  12
ENDBRANCH  10  11
ENDBRANCH   5  10
ENDBRANCH   1   2
BRANCH   1  14
ATOM     14  O   UNL     1      43.666   4.555   9.873  0.00  0.00    +0.000 OA
BRANCH  14  18
ATOM     15  C   UNL     1      46.476   2.323   7.723  0.00  0.00    +0.000 A 
ATOM     16  C   UNL     1      45.639   1.665   8.633  0.00  0.00    +0.000 A 
ATOM     17  C   UNL     1      44.695   2.376   9.375  0.00  0.00    +0.000 A 
ATOM     18  C   UNL     1      44.572   3.760   9.223  0.00  0.00    +0.000 A 
ATOM     19  C   UNL     1      45.423   4.423   8.336  0.00  0.00    +0.000 A 
ATOM     20  C   UNL     1      46.369   3.711   7.591  0.00  0.00    +0.000 A 
BRANCH  15  21
ATOM     21  C   UNL     1      47.462   1.533   6.902  0.00  0.00    +0.000 C 
BRANCH  21  22
ATOM     22  N   UNL     1      48.528   2.393   6.392  0.00  0.00    +0.000 NA
ATOM     23  H   UNL     1      49.430   1.997   6.645  0.00  0.00    +0.000 HD
ATOM     24  H   UNL     1      48.464   3.299   6.856  0.00  0.00    +0.000 HD
ENDBRANCH  21  22
ENDBRANCH  15  21
ENDBRANCH  14  18
ENDBRANCH   1  14
TORSDOF 9
ENDMDL
MODEL 2
REMARK VINA RESULT:    -6.661      1.712      2.185
REMARK INTER + INTRA:         -10.207
REMARK INTER:                  -9.682
REMARK INTRA:                  -0.525
REMARK UNBOUND:                -0.624
REMARK  Name = 
REMARK  9 active torsions:
REMARK  status: ('A' for Active; 'I' for Inactive)
REMARK    1  A    between atoms: N_1  and  C_2
REMARK    2  A    between atoms: C_2  and  C_3
REMARK    3  A    between atoms: C_6  and  O_7
REMARK    4  A    between atoms: O_7  and  C_8
REMARK    5  A    between atoms: C_8  and  C_9
REMARK    6  A    between atoms: C_9  and  O_10
REMARK    7  A    between atoms: N_13  and  C_14
REMARK    8  A    between atoms: C_14  and  C_15
REMARK    9  A    between atoms: C_15  and  O_16
REMARK                            x       y       z     vdW  Elec       q    Type
REMARK                         _______ _______ _______ _____ _____    ______ ____
ROOT
ATOM      1  C   UNL     1      44.383   5.581  10.417  0.00  0.00    +0.000 C 
ENDROOT
BRANCH   1   2
ATOM      2  C   UNL     1      44.879   5.744  11.867  0.00  0.00    +0.000 C 
ATOM      3  C   UNL     1      46.320   6.268  11.913  0.00  0.00    +0.000 C 
ATOM      4  C   UNL     1      46.905   6.204  13.324  0.00  0.00    +0.000 C 
ATOM      5  N   UNL     1      46.831   4.836  13.881  0.00  0.00    +0.000 NA
ATOM      6  C   UNL     1      45.419   4.428  13.972  0.00  0.00    +0.000 C 
ATOM      7  C   UNL     1      44.772   4.398  12.589  0.00  0.00    +0.000 C 
BRANCH   2   8
ATOM      8  O   UNL     1      44.024   6.684  12.540  0.00  0.00    +0.000 OA
ATOM      9  H   UNL     1      43.108   6.442  12.298  0.00  0.00    +0.000 HD
ENDBRANCH   2   8
BRANCH   5  10
ATOM     10  C   UNL     1      47.492   4.824  15.209  0.00  0.00    +0.000 C 
BRANCH  10  11
ATOM     11  C   UNL     1      47.499   3.447  15.893  0.00  0.00    +0.000 C 
BRANCH  11  12
ATOM     12  O   UNL     1      46.716   3.472  17.079  0.00  0.00    +0.000 OA
ATOM     13  H   UNL     1      46.316   4.366  17.105  0.00  0.00    +0.000 HD
ENDBRANCH  11  12
ENDBRANCH  10  11
ENDBRANCH   5  10
ENDBRANCH   1   2
BRANCH   1  14
ATOM     14  O   UNL     1      44.050   4.207  10.173  0.00  0.00    +0.000 OA
BRANCH  14  18
ATOM     15  C   UNL     1      46.628   2.354   7.448  0.00  0.00    +0.000 A 
ATOM     16  C   UNL     1      45.943   1.564   8.380  0.00  0.00    +0.000 A 
ATOM     17  C   UNL     1      45.081   2.146   9.311  0.00  0.00    +0.000 A 
ATOM     18  C   UNL     1      44.889   3.531   9.329  0.00  0.00    +0.000 A 
ATOM     19  C   UNL     1      45.591   4.324   8.419  0.00  0.00    +0.000 A 
ATOM     20  C   UNL     1      46.455   3.742   7.485  0.00  0.00    +0.000 A 
BRANCH  15  21
ATOM     21  C   UNL     1      47.524   1.705   6.426  0.00  0.00    +0.000 C 
BRANCH  21  22
ATOM     22  N   UNL     1      48.735   2.494   6.212  0.00  0.00    +0.000 NA
ATOM     23  H   UNL     1      49.519   1.869   6.044  0.00  0.00    +0.000 HD
ATOM     24  H   UNL     1      48.945   3.005   7.069  0.00  0.00    +0.000 HD
ENDBRANCH  21  22
ENDBRANCH  15  21
ENDBRANCH  14  18
ENDBRANCH   1  14
TORSDOF 9
ENDMDL
MODEL 3
REMARK VINA RESULT:    -6.481      2.213      6.863
REMARK INTER + INTRA:          -9.946
REMARK INTER:                  -9.347
REMARK INTRA:                  -0.599
REMARK UNBOUND:                -0.624
REMARK  Name = 
REMARK  9 active torsions:
REMARK  status: ('A' for Active; 'I' for Inactive)
REMARK    1  A    between atoms: N_1  and  C_2
REMARK    2  A    between atoms: C_2  and  C_3
REMARK    3  A    between atoms: C_6  and  O_7
REMARK    4  A    between atoms: O_7  and  C_8
REMARK    5  A    between atoms: C_8  and  C_9
REMARK    6  A    between atoms: C_9  and  O_10
REMARK    7  A    between atoms: N_13  and  C_14
REMARK    8  A    between atoms: C_14  and  C_15
REMARK    9  A    between atoms: C_15  and  O_16
REMARK                            x       y       z     vdW  Elec       q    Type
REMARK                         _______ _______ _______ _____ _____    ______ ____
ROOT
ATOM      1  C   UNL     1      44.457   5.167  10.792  0.00  0.00    +0.000 C 
ENDROOT
BRANCH   1   2
ATOM      2  C   UNL     1      44.641   4.261   9.558  0.00  0.00    +0.000 C 
ATOM      3  C   UNL     1      44.768   2.786   9.958  0.00  0.00    +0.000 C 
ATOM      4  C   UNL     1      45.191   1.911   8.778  0.00  0.00    +0.000 C 
ATOM      5  N   UNL     1      46.448   2.394   8.167  0.00  0.00    +0.000 NA
ATOM      6  C   UNL     1      46.239   3.757   7.649  0.00  0.00    +0.000 C 
ATOM      7  C   UNL     1      45.878   4.717   8.780  0.00  0.00    +0.000 C 
BRANCH   2   8
ATOM      8  O   UNL     1      43.494   4.412   8.705  0.00  0.00    +0.000 OA
ATOM      9  H   UNL     1      43.669   5.195   8.147  0.00  0.00    +0.000 HD
ENDBRANCH   2   8
BRANCH   5  10
ATOM     10  C   UNL     1      46.848   1.454   7.091  0.00  0.00    +0.000 C 
BRANCH  10  11
ATOM     11  C   UNL     1      47.379   2.143   5.822  0.00  0.00    +0.000 C 
BRANCH  11  12
ATOM     12  O   UNL     1      48.715   1.737   5.553  0.00  0.00    +0.000 OA
ATOM     13  H   UNL     1      48.727   0.771   5.710  0.00  0.00    +0.000 HD
ENDBRANCH  11  12
ENDBRANCH  10  11
ENDBRANCH   5  10
ENDBRANCH   1   2
BRANCH   1  14
ATOM     14  O   UNL     1      45.057   4.548  11.939  0.00  0.00    +0.000 OA
BRANCH  14  18
ATOM     15  C   UNL     1      47.938   6.654  14.123  0.00  0.00    +0.000 A 
ATOM     16  C   UNL     1      47.423   7.223  12.951  0.00  0.00    +0.000 A 
ATOM     17  C   UNL     1      46.468   6.548  12.191  0.00  0.00    +0.000 A 
ATOM     18  C   UNL     1      46.009   5.289  12.586  0.00  0.00    +0.000 A 
ATOM     19  C   UNL     1      46.539   4.705  13.739  0.00  0.00    +0.000 A 
ATOM     20  C   UNL     1      47.498   5.382  14.503  0.00  0.00    +0.000 A 
BRANCH  15  21
ATOM     21  C   UNL     1      48.939   7.415  14.952  0.00  0.00    +0.000 C 
BRANCH  21  22
ATOM     22  N   UNL     1      50.305   7.008  14.628  0.00  0.00    +0.000 NA
ATOM     23  H   UNL     1      50.289   6.384  13.826  0.00  0.00    +0.000 HD
ATOM     24  H   UNL     1      50.678   6.471  15.411  0.00  0.00    +0.000 HD
ENDBRANCH  21  22
ENDBRANCH  15  21
ENDBRANCH  14  18
ENDBRANCH   1  14
TORSDOF 9
ENDMDL
MODEL 4
REMARK VINA RESULT:    -6.134      1.296      2.026
REMARK INTER + INTRA:          -9.447
REMARK INTER:                  -8.975
REMARK INTRA:                  -0.472
REMARK UNBOUND:                -0.624
REMARK  Name = 
REMARK  9 active torsions:
REMARK  status: ('A' for Active; 'I' for Inactive)
REMARK    1  A    between atoms: N_1  and  C_2
REMARK    2  A    between atoms: C_2  and  C_3
REMARK    3  A    between atoms: C_6  and  O_7
REMARK    4  A    between atoms: O_7  and  C_8
REMARK    5  A    between atoms: C_8  and  C_9
REMARK    6  A    between atoms: C_9  and  O_10
REMARK    7  A    between atoms: N_13  and  C_14
REMARK    8  A    between atoms: C_14  and  C_15
REMARK    9  A    between atoms: C_15  and  O_16
REMARK                            x       y       z     vdW  Elec       q    Type
REMARK                         _______ _______ _______ _____ _____    ______ ____
ROOT
ATOM      1  C   UNL     1      44.641   4.963  11.452  0.00  0.00    +0.000 C 
ENDROOT
BRANCH   1   2
ATOM      2  C   UNL     1      45.313   6.349  11.522  0.00  0.00    +0.000 C 
ATOM      3  C   UNL     1      46.840   6.239  11.430  0.00  0.00    +0.000 C 
ATOM      4  C   UNL     1      47.526   7.570  11.739  0.00  0.00    +0.000 C 
ATOM      5  N   UNL     1      47.122   8.094  13.062  0.00  0.00    +0.000 NA
ATOM      6  C   UNL     1      45.669   8.340  13.058  0.00  0.00    +0.000 C 
ATOM      7  C   UNL     1      44.900   7.042  12.823  0.00  0.00    +0.000 C 
BRANCH   2   8
ATOM      8  O   UNL     1      44.840   7.143  10.420  0.00  0.00    +0.000 OA
ATOM      9  H   UNL     1      45.047   6.637   9.610  0.00  0.00    +0.000 HD
ENDBRANCH   2   8
BRANCH   5  10
ATOM     10  C   UNL     1      47.887   9.334  13.338  0.00  0.00    +0.000 C 
BRANCH  10  11
ATOM     11  C   UNL     1      48.480   9.402  14.756  0.00  0.00    +0.000 C 
BRANCH  11  12
ATOM     12  O   UNL     1      47.484   9.119  15.730  0.00  0.00    +0.000 OA
ATOM     13  H   UNL     1      47.555   8.157  15.900  0.00  0.00    +0.000 HD
ENDBRANCH  11  12
ENDBRANCH  10  11
ENDBRANCH   5  10
ENDBRANCH   1   2
BRANCH   1  14
ATOM     14  O   UNL     1      44.110   4.751  10.136  0.00  0.00    +0.000 OA
BRANCH  14  18
ATOM     15  C   UNL     1      46.381   2.154   7.768  0.00  0.00    +0.000 A 
ATOM     16  C   UNL     1      46.455   3.533   7.528  0.00  0.00    +0.000 A 
ATOM     17  C   UNL     1      45.706   4.430   8.291  0.00  0.00    +0.000 A 
ATOM     18  C   UNL     1      44.867   3.966   9.307  0.00  0.00    +0.000 A 
ATOM     19  C   UNL     1      44.769   2.591   9.532  0.00  0.00    +0.000 A 
ATOM     20  C   UNL     1      45.520   1.690   8.768  0.00  0.00    +0.000 A 
BRANCH  15  21
ATOM     21  C   UNL     1      47.226   1.204   6.961  0.00  0.00    +0.000 C 
BRANCH  21  22
ATOM     22  N   UNL     1      48.308   1.913   6.280  0.00  0.00    +0.000 NA
ATOM     23  H   UNL     1      49.199   1.504   6.548  0.00  0.00    +0.000 HD
ATOM     24  H   UNL     1      48.318   2.879   6.605  0.00  0.00    +0.000 HD
ENDBRANCH  21  22
ENDBRANCH  15  21
ENDBRANCH  14  18
ENDBRANCH   1  14
TORSDOF 9
ENDMDL
MODEL 5
REMARK VINA RESULT:    -6.113      2.488      7.027
REMARK INTER + INTRA:          -9.418
REMARK INTER:                  -8.882
REMARK INTRA:                  -0.536
REMARK UNBOUND:                -0.624
REMARK  Name = 
REMARK  9 active torsions:
REMARK  status: ('A' for Active; 'I' for Inactive)
REMARK    1  A    between atoms: N_1  and  C_2
REMARK    2  A    between atoms: C_2  and  C_3
REMARK    3  A    between atoms: C_6  and  O_7
REMARK    4  A    between atoms: O_7  and  C_8
REMARK    5  A    between atoms: C_8  and  C_9
REMARK    6  A    between atoms: C_9  and  O_10
REMARK    7  A    between atoms: N_13  and  C_14
REMARK    8  A    between atoms: C_14  and  C_15
REMARK    9  A    between atoms: C_15  and  O_16
REMARK                            x       y       z     vdW  Elec       q    Type
REMARK                         _______ _______ _______ _____ _____    ______ ____
ROOT
ATOM      1  C   UNL     1      44.599   5.083  11.495  0.00  0.00    +0.000 C 
ENDROOT
BRANCH   1   2
ATOM      2  C   UNL     1      44.667   4.441  10.095  0.00  0.00    +0.000 C 
ATOM      3  C   UNL     1      44.854   2.921  10.182  0.00  0.00    +0.000 C 
ATOM      4  C   UNL     1      45.165   2.306   8.817  0.00  0.00    +0.000 C 
ATOM      5  N   UNL     1      46.345   2.940   8.192  0.00  0.00    +0.000 NA
ATOM      6  C   UNL     1      46.066   4.370   7.976  0.00  0.00    +0.000 C 
ATOM      7  C   UNL     1      45.811   5.081   9.304  0.00  0.00    +0.000 C 
BRANCH   2   8
ATOM      8  O   UNL     1      43.435   4.715   9.405  0.00  0.00    +0.000 OA
ATOM      9  H   UNL     1      42.872   3.925   9.527  0.00  0.00    +0.000 HD
ENDBRANCH   2   8
BRANCH   5  10
ATOM     10  C   UNL     1      46.645   2.242   6.919  0.00  0.00    +0.000 C 
BRANCH  10  11
ATOM     11  C   UNL     1      48.119   1.829   6.762  0.00  0.00    +0.000 C 
BRANCH  11  12
ATOM     12  O   UNL     1      48.486   1.791   5.388  0.00  0.00    +0.000 OA
ATOM     13  H   UNL     1      48.212   2.658   5.025  0.00  0.00    +0.000 HD
ENDBRANCH  11  12
ENDBRANCH  10  11
ENDBRANCH   5  10
ENDBRANCH   1   2
BRANCH   1  14
ATOM     14  O   UNL     1      45.706   5.979  11.669  0.00  0.00    +0.000 OA
BRANCH  14  18
ATOM     15  C   UNL     1      47.742   5.305  15.261  0.00  0.00    +0.000 A 
ATOM     16  C   UNL     1      48.062   6.437  14.500  0.00  0.00    +0.000 A 
ATOM     17  C   UNL     1      47.411   6.691  13.292  0.00  0.00    +0.000 A 
ATOM     18  C   UNL     1      46.429   5.817  12.820  0.00  0.00    +0.000 A 
ATOM     19  C   UNL     1      46.125   4.673  13.562  0.00  0.00    +0.000 A 
ATOM     20  C   UNL     1      46.777   4.417  14.774  0.00  0.00    +0.000 A 
BRANCH  15  21
ATOM     21  C   UNL     1      48.427   5.068  16.581  0.00  0.00    +0.000 C 
BRANCH  21  22
ATOM     22  N   UNL     1      47.638   5.609  17.686  0.00  0.00    +0.000 NA
ATOM     23  H   UNL     1      48.186   5.570  18.542  0.00  0.00    +0.000 HD
ATOM     24  H   UNL     1      46.826   5.008  17.831  0.00  0.00    +0.000 HD
ENDBRANCH  21  22
ENDBRANCH  15  21
ENDBRANCH  14  18
ENDBRANCH   1  14
TORSDOF 9
ENDMDL
MODEL 6
REMARK VINA RESULT:    -5.783      3.902      7.894
REMARK INTER + INTRA:          -8.942
REMARK INTER:                  -8.503
REMARK INTRA:                  -0.439
REMARK UNBOUND:                -0.624
REMARK  Name = 
REMARK  9 active torsions:
REMARK  status: ('A' for Active; 'I' for Inactive)
REMARK    1  A    between atoms: N_1  and  C_2
REMARK    2  A    between atoms: C_2  and  C_3
REMARK    3  A    between atoms: C_6  and  O_7
REMARK    4  A    between atoms: O_7  and  C_8
REMARK    5  A    between atoms: C_8  and  C_9
REMARK    6  A    between atoms: C_9  and  O_10
REMARK    7  A    between atoms: N_13  and  C_14
REMARK    8  A    between atoms: C_14  and  C_15
REMARK    9  A    between atoms: C_15  and  O_16
REMARK                            x       y       z     vdW  Elec       q    Type
REMARK                         _______ _______ _______ _____ _____    ______ ____
ROOT
ATOM      1  C   UNL     1      47.125   5.342  14.102  0.00  0.00    +0.000 C 
ENDROOT
BRANCH   1   2
ATOM      2  C   UNL     1      45.999   5.222  13.056  0.00  0.00    +0.000 C 
ATOM      3  C   UNL     1      45.702   3.757  12.715  0.00  0.00    +0.000 C 
ATOM      4  C   UNL     1      44.767   3.629  11.512  0.00  0.00    +0.000 C 
ATOM      5  N   UNL     1      45.302   4.340  10.331  0.00  0.00    +0.000 NA
ATOM      6  C   UNL     1      45.421   5.774  10.645  0.00  0.00    +0.000 C 
ATOM      7  C   UNL     1      46.397   5.999  11.798  0.00  0.00    +0.000 C 
BRANCH   2   8
ATOM      8  O   UNL     1      44.808   5.821  13.595  0.00  0.00    +0.000 OA
ATOM      9  H   UNL     1      45.058   6.192  14.465  0.00  0.00    +0.000 HD
ENDBRANCH   2   8
BRANCH   5  10
ATOM     10  C   UNL     1      44.396   4.104   9.180  0.00  0.00    +0.000 C 
BRANCH  10  11
ATOM     11  C   UNL     1      45.065   3.395   7.991  0.00  0.00    +0.000 C 
BRANCH  11  12
ATOM     12  O   UNL     1      46.055   4.229   7.402  0.00  0.00    +0.000 OA
ATOM     13  H   UNL     1      46.293   3.791   6.559  0.00  0.00    +0.000 HD
ENDBRANCH  11  12
ENDBRANCH  10  11
ENDBRANCH   5  10
ENDBRANCH   1   2
BRANCH   1  14
ATOM     14  O   UNL     1      47.339   4.070  14.729  0.00  0.00    +0.000 OA
BRANCH  14  18
ATOM     15  C   UNL     1      48.753   4.418  18.651  0.00  0.00    +0.000 A 
ATOM     16  C   UNL     1      48.254   3.184  18.216  0.00  0.00    +0.000 A 
ATOM     17  C   UNL     1      47.765   3.030  16.918  0.00  0.00    +0.000 A 
ATOM     18  C   UNL     1      47.764   4.110  16.030  0.00  0.00    +0.000 A 
ATOM     19  C   UNL     1      48.236   5.349  16.468  0.00  0.00    +0.000 A 
ATOM     20  C   UNL     1      48.727   5.504  17.770  0.00  0.00    +0.000 A 
BRANCH  15  21
ATOM     21  C   UNL     1      49.313   4.554  20.043  0.00  0.00    +0.000 C 
BRANCH  21  22
ATOM     22  N   UNL     1      48.361   4.073  21.041  0.00  0.00    +0.000 NA
ATOM     23  H   UNL     1      48.810   4.056  21.953  0.00  0.00    +0.000 HD
ATOM     24  H   UNL     1      48.114   3.110  20.817  0.00  0.00    +0.000 HD
ENDBRANCH  21  22
ENDBRANCH  15  21
ENDBRANCH  14  18
ENDBRANCH   1  14
TORSDOF 9
ENDMDL
MODEL 7
REMARK VINA RESULT:    -5.665      4.883      6.311
REMARK INTER + INTRA:          -8.774
REMARK INTER:                  -8.302
REMARK INTRA:                  -0.472
REMARK UNBOUND:                -0.624
REMARK  Name = 
REMARK  9 active torsions:
REMARK  status: ('A' for Active; 'I' for Inactive)
REMARK    1  A    between atoms: N_1  and  C_2
REMARK    2  A    between atoms: C_2  and  C_3
REMARK    3  A    between atoms: C_6  and  O_7
REMARK    4  A    between atoms: O_7  and  C_8
REMARK    5  A    between atoms: C_8  and  C_9
REMARK    6  A    between atoms: C_9  and  O_10
REMARK    7  A    between atoms: N_13  and  C_14
REMARK    8  A    between atoms: C_14  and  C_15
REMARK    9  A    between atoms: C_15  and  O_16
REMARK                            x       y       z     vdW  Elec       q    Type
REMARK                         _______ _______ _______ _____ _____    ______ ____
ROOT
ATOM      1  C   UNL     1      46.834   4.722  15.732  0.00  0.00    +0.000 C 
ENDROOT
BRANCH   1   2
ATOM      2  C   UNL     1      47.820   4.067  16.721  0.00  0.00    +0.000 C 
ATOM      3  C   UNL     1      48.991   5.000  17.050  0.00  0.00    +0.000 C 
ATOM      4  C   UNL     1      50.091   4.281  17.830  0.00  0.00    +0.000 C 
ATOM      5  N   UNL     1      50.570   3.081  17.111  0.00  0.00    +0.000 NA
ATOM      6  C   UNL     1      49.452   2.135  16.955  0.00  0.00    +0.000 C 
ATOM      7  C   UNL     1      48.330   2.752  16.124  0.00  0.00    +0.000 C 
BRANCH   2   8
ATOM      8  O   UNL     1      47.114   3.764  17.937  0.00  0.00    +0.000 OA
ATOM      9  H   UNL     1      47.302   4.501  18.552  0.00  0.00    +0.000 HD
ENDBRANCH   2   8
BRANCH   5  10
ATOM     10  C   UNL     1      51.693   2.482  17.874  0.00  0.00    +0.000 C 
BRANCH  10  11
ATOM     11  C   UNL     1      52.113   1.088  17.380  0.00  0.00    +0.000 C 
BRANCH  11  12
ATOM     12  O   UNL     1      51.764   0.092  18.334  0.00  0.00    +0.000 OA
ATOM     13  H   UNL     1      50.800   0.193  18.470  0.00  0.00    +0.000 HD
ENDBRANCH  11  12
ENDBRANCH  10  11
ENDBRANCH   5  10
ENDBRANCH   1   2
BRANCH   1  14
ATOM     14  O   UNL     1      47.510   5.015  14.502  0.00  0.00    +0.000 OA
BRANCH  14  18
ATOM     15  C   UNL     1      45.150   4.530  11.081  0.00  0.00    +0.000 A 
ATOM     16  C   UNL     1      45.848   5.731  11.260  0.00  0.00    +0.000 A 
ATOM     17  C   UNL     1      46.638   5.934  12.392  0.00  0.00    +0.000 A 
ATOM     18  C   UNL     1      46.744   4.940  13.369  0.00  0.00    +0.000 A 
ATOM     19  C   UNL     1      46.029   3.752  13.207  0.00  0.00    +0.000 A 
ATOM     20  C   UNL     1      45.237   3.547  12.072  0.00  0.00    +0.000 A 
BRANCH  15  21
ATOM     21  C   UNL     1      44.334   4.313   9.833  0.00  0.00    +0.000 C 
BRANCH  21  22
ATOM     22  N   UNL     1      45.034   4.818   8.654  0.00  0.00    +0.000 NA
ATOM     23  H   UNL     1      45.711   5.520   8.939  0.00  0.00    +0.000 HD
ATOM     24  H   UNL     1      44.358   5.289   8.052  0.00  0.00    +0.000 HD
ENDBRANCH  21  22
ENDBRANCH  15  21
ENDBRANCH  14  18
ENDBRANCH   1  14
TORSDOF 9
ENDMDL
MODEL 8
REMARK VINA RESULT:    -5.534      2.420      6.769
REMARK INTER + INTRA:          -8.584
REMARK INTER:                  -8.297
REMARK INTRA:                  -0.288
REMARK UNBOUND:                -0.624
REMARK  Name = 
REMARK  9 active torsions:
REMARK  status: ('A' for Active; 'I' for Inactive)
REMARK    1  A    between atoms: N_1  and  C_2
REMARK    2  A    between atoms: C_2  and  C_3
REMARK    3  A    between atoms: C_6  and  O_7
REMARK    4  A    between atoms: O_7  and  C_8
REMARK    5  A    between atoms: C_8  and  C_9
REMARK    6  A    between atoms: C_9  and  O_10
REMARK    7  A    between atoms: N_13  and  C_14
REMARK    8  A    between atoms: C_14  and  C_15
REMARK    9  A    between atoms: C_15  and  O_16
REMARK                            x       y       z     vdW  Elec       q    Type
REMARK                         _______ _______ _______ _____ _____    ______ ____
ROOT
ATOM      1  C   UNL     1      44.639   6.177  12.252  0.00  0.00    +0.000 C 
ENDROOT
BRANCH   1   2
ATOM      2  C   UNL     1      44.300   5.161  11.143  0.00  0.00    +0.000 C 
ATOM      3  C   UNL     1      44.139   3.745  11.708  0.00  0.00    +0.000 C 
ATOM      4  C   UNL     1      44.044   2.696  10.600  0.00  0.00    +0.000 C 
ATOM      5  N   UNL     1      45.207   2.763   9.689  0.00  0.00    +0.000 NA
ATOM      6  C   UNL     1      45.237   4.085   9.041  0.00  0.00    +0.000 C 
ATOM      7  C   UNL     1      45.400   5.194  10.078  0.00  0.00    +0.000 C 
BRANCH   2   8
ATOM      8  O   UNL     1      43.064   5.556  10.525  0.00  0.00    +0.000 OA
ATOM      9  H   UNL     1      42.350   5.173  11.072  0.00  0.00    +0.000 HD
ENDBRANCH   2   8
BRANCH   5  10
ATOM     10  C   UNL     1      45.099   1.667   8.694  0.00  0.00    +0.000 C 
BRANCH  10  11
ATOM     11  C   UNL     1      46.417   1.345   7.971  0.00  0.00    +0.000 C 
BRANCH  11  12
ATOM     12  O   UNL     1      46.687  -0.050   8.017  0.00  0.00    +0.000 OA
ATOM     13  H   UNL     1      46.684  -0.281   8.969  0.00  0.00    +0.000 HD
ENDBRANCH  11  12
ENDBRANCH  10  11
ENDBRANCH   5  10
ENDBRANCH   1   2
BRANCH   1  14
ATOM     14  O   UNL     1      45.433   7.240  11.706  0.00  0.00    +0.000 OA
BRANCH  14  18
ATOM     15  C   UNL     1      49.054   7.925  13.686  0.00  0.00    +0.000 A 
ATOM     16  C   UNL     1      47.924   8.662  14.063  0.00  0.00    +0.000 A 
ATOM     17  C   UNL     1      46.700   8.468  13.420  0.00  0.00    +0.000 A 
ATOM     18  C   UNL     1      46.584   7.535  12.386  0.00  0.00    +0.000 A 
ATOM     19  C   UNL     1      47.715   6.818  11.989  0.00  0.00    +0.000 A 
ATOM     20  C   UNL     1      48.942   7.011  12.633  0.00  0.00    +0.000 A 
BRANCH  15  21
ATOM     21  C   UNL     1      50.357   8.120  14.417  0.00  0.00    +0.000 C 
BRANCH  21  22
ATOM     22  N   UNL     1      50.698   6.937  15.206  0.00  0.00    +0.000 NA
ATOM     23  H   UNL     1      51.449   7.168  15.851  0.00  0.00    +0.000 HD
ATOM     24  H   UNL     1      51.060   6.221  14.577  0.00  0.00    +0.000 HD
ENDBRANCH  21  22
ENDBRANCH  15  21
ENDBRANCH  14  18
ENDBRANCH   1  14
TORSDOF 9
ENDMDL
MODEL 9
REMARK VINA RESULT:    -5.388      4.331      5.494
REMARK INTER + INTRA:          -8.375
REMARK INTER:                  -8.132
REMARK INTRA:                  -0.243
REMARK UNBOUND:                -0.624
REMARK  Name = 
REMARK  9 active torsions:
REMARK  status: ('A' for Active; 'I' for Inactive)
REMARK    1  A    between atoms: N_1  and  C_2
REMARK    2  A    between atoms: C_2  and  C_3
REMARK    3  A    between atoms: C_6  and  O_7
REMARK    4  A    between atoms: O_7  and  C_8
REMARK    5  A    between atoms: C_8  and  C_9
REMARK    6  A    between atoms: C_9  and  O_10
REMARK    7  A    between atoms: N_13  and  C_14
REMARK    8  A    between atoms: C_14  and  C_15
REMARK    9  A    between atoms: C_15  and  O_16
REMARK                            x       y       z     vdW  Elec       q    Type
REMARK                         _______ _______ _______ _____ _____    ______ ____
ROOT
ATOM      1  C   UNL     1      47.172   3.623  14.640  0.00  0.00    +0.000 C 
ENDROOT
BRANCH   1   2
ATOM      2  C   UNL     1      47.532   3.782  16.130  0.00  0.00    +0.000 C 
ATOM      3  C   UNL     1      47.997   5.207  16.449  0.00  0.00    +0.000 C 
ATOM      4  C   UNL     1      48.583   5.315  17.857  0.00  0.00    +0.000 C 
ATOM      5  N   UNL     1      49.686   4.350  18.060  0.00  0.00    +0.000 NA
ATOM      6  C   UNL     1      49.164   2.982  17.905  0.00  0.00    +0.000 C 
ATOM      7  C   UNL     1      48.617   2.766  16.496  0.00  0.00    +0.000 C 
BRANCH   2   8
ATOM      8  O   UNL     1      46.363   3.491  16.916  0.00  0.00    +0.000 OA
ATOM      9  H   UNL     1      45.883   4.338  17.016  0.00  0.00    +0.000 HD
ENDBRANCH   2   8
BRANCH   5  10
ATOM     10  C   UNL     1      50.267   4.566  19.408  0.00  0.00    +0.000 C 
BRANCH  10  11
ATOM     11  C   UNL     1      49.238   4.979  20.475  0.00  0.00    +0.000 C 
BRANCH  11  12
ATOM     12  O   UNL     1      48.513   3.846  20.937  0.00  0.00    +0.000 OA
ATOM     13  H   UNL     1      49.010   3.522  21.716  0.00  0.00    +0.000 HD
ENDBRANCH  11  12
ENDBRANCH  10  11
ENDBRANCH   5  10
ENDBRANCH   1   2
BRANCH   1  14
ATOM     14  O   UNL     1      46.115   4.531  14.300  0.00  0.00    +0.000 OA
BRANCH  14  18
ATOM     15  C   UNL     1      45.012   4.363  10.267  0.00  0.00    +0.000 A 
ATOM     16  C   UNL     1      45.479   5.574  10.795  0.00  0.00    +0.000 A 
ATOM     17  C   UNL     1      45.847   5.672  12.137  0.00  0.00    +0.000 A 
ATOM     18  C   UNL     1      45.755   4.561  12.979  0.00  0.00    +0.000 A 
ATOM     19  C   UNL     1      45.265   3.359  12.465  0.00  0.00    +0.000 A 
ATOM     20  C   UNL     1      44.895   3.259  11.118  0.00  0.00    +0.000 A 
BRANCH  15  21
ATOM     21  C   UNL     1      44.656   4.265   8.807  0.00  0.00    +0.000 C 
BRANCH  21  22
ATOM     22  N   UNL     1      44.282   2.899   8.448  0.00  0.00    +0.000 NA
ATOM     23  H   UNL     1      44.709   2.250   9.104  0.00  0.00    +0.000 HD
ATOM     24  H   UNL     1      44.670   2.686   7.530  0.00  0.00    +0.000 HD
ENDBRANCH  21  22
ENDBRANCH  15  21
ENDBRANCH  14  18
ENDBRANCH   1  14
TORSDOF 9
ENDMDL
