MODEL 1
REMARK VINA RESULT:    -8.691      0.000      0.000
REMARK INTER + INTRA:         -13.270
REMARK INTER:                 -12.247
REMARK INTRA:                  -1.023
REMARK UNBOUND:                -1.023
REMARK  Name = 
REMARK  7 active torsions:
REMARK  status: ('A' for Active; 'I' for Inactive)
REMARK    1  A    between atoms: C_2  and  C_4
REMARK    2  A    between atoms: C_7  and  N_8
REMARK    3  A    between atoms: N_8  and  C_9
REMARK    4  A    between atoms: C_9  and  C_10
REMARK    5  A    between atoms: C_10  and  C_13
REMARK    6  A    between atoms: C_17  and  O_18
REMARK    7  A    between atoms: O_18  and  C_19
REMARK                            x       y       z     vdW  Elec       q    Type
REMARK                         _______ _______ _______ _____ _____    ______ ____
ROOT
ATOM      1  C   UNL     1      44.432   5.806  10.910  0.00  0.00    +0.000 C 
ENDROOT
BRANCH   1   2
ATOM      2  C   UNL     1      44.706   5.333  12.361  0.00  0.00    +0.000 C 
ATOM      3  F   UNL     1      43.780   5.884  13.198  0.00  0.00    +0.000 F 
ATOM      4  F   UNL     1      44.491   3.984  12.423  0.00  0.00    +0.000 F 
BRANCH   2   5
ATOM      5  C   UNL     1      46.124   5.716  12.735  0.00  0.00    +0.000 A 
ATOM      6  C   UNL     1      46.869   6.586  11.928  0.00  0.00    +0.000 A 
ATOM      7  C   UNL     1      48.111   7.055  12.359  0.00  0.00    +0.000 A 
ATOM      8  C   UNL     1      48.628   6.652  13.594  0.00  0.00    +0.000 A 
ATOM      9  C   UNL     1      47.913   5.755  14.384  0.00  0.00    +0.000 A 
ATOM     10  C   UNL     1      46.666   5.293  13.958  0.00  0.00    +0.000 A 
BRANCH   9  11
ATOM     11  O   UNL     1      48.307   5.305  15.619  0.00  0.00    +0.000 OA
BRANCH  11  12
ATOM     12  C   UNL     1      47.476   4.345  16.308  0.00  0.00    +0.000 C 
ATOM     13  C   UNL     1      47.292   4.505  17.823  0.00  0.00    +0.000 C 
ATOM     14  O   UNL     1      47.806   3.177  18.080  0.00  0.00    +0.000 OA
ATOM     15  C   UNL     1      48.178   3.035  16.690  0.00  0.00    +0.000 C 
ENDBRANCH  11  12
ENDBRANCH   9  11
ENDBRANCH   2   5
ENDBRANCH   1   2
BRANCH   1  16
ATOM     16  N   UNL     1      43.755   4.803  10.067  0.00  0.00    +0.000 N 
ATOM     17  H   UNL     1      42.939   4.376  10.501  0.00  0.00    +0.000 HD
BRANCH  16  21
ATOM     18  C   UNL     1      46.372   2.351   7.832  0.00  0.00    +0.000 A 
ATOM     19  C   UNL     1      46.315   3.734   7.626  0.00  0.00    +0.000 A 
ATOM     20  C   UNL     1      45.400   4.512   8.346  0.00  0.00    +0.000 A 
ATOM     21  C   UNL     1      44.519   3.938   9.274  0.00  0.00    +0.000 A 
ATOM     22  C   UNL     1      44.589   2.540   9.441  0.00  0.00    +0.000 A 
ATOM     23  F   UNL     1      43.786   1.908  10.309  0.00  0.00    +0.000 F 
ATOM     24  C   UNL     1      45.484   1.751   8.720  0.00  0.00    +0.000 A 
BRANCH  18  26
ATOM     25  N   UNL     1      48.394   2.131   6.504  0.00  0.00    +0.000 N 
ATOM     26  C   UNL     1      47.370   1.492   7.150  0.00  0.00    +0.000 C 
ATOM     27  O   UNL     1      47.321   0.273   7.209  0.00  0.00    +0.000 OA
ATOM     28  H   UNL     1      49.144   1.539   6.170  0.00  0.00    +0.000 HD
ATOM     29  H   UNL     1      48.608   3.105   6.666  0.00  0.00    +0.000 HD
ENDBRANCH  18  26
ENDBRANCH  16  21
ENDBRANCH   1  16
TORSDOF 7
ENDMDL
MODEL 2
REMARK VINA RESULT:    -7.499      2.550      3.405
REMARK INTER + INTRA:         -11.592
REMARK INTER:                 -11.297
REMARK INTRA:                  -0.294
REMARK UNBOUND:                -1.023
REMARK  Name = 
REMARK  7 active torsions:
REMARK  status: ('A' for Active; 'I' for Inactive)
REMARK    1  A    between atoms: C_2  and  C_4
REMARK    2  A    between atoms: C_7  and  N_8
REMARK    3  A    between atoms: N_8  and  C_9
REMARK    4  A    between atoms: C_9  and  C_10
REMARK    5  A    between atoms: C_10  and  C_13
REMARK    6  A    between atoms: C_17  and  O_18
REMARK    7  A    between atoms: O_18  and  C_19
REMARK                            x       y       z     vdW  Elec       q    Type
REMARK                         _______ _______ _______ _____ _____    ______ ____
ROOT
ATOM      1  C   UNL     1      43.620   4.791  11.323  0.00  0.00    +0.000 C 
ENDROOT
BRANCH   1   2
ATOM      2  C   UNL     1      44.809   4.820  12.318  0.00  0.00    +0.000 C 
ATOM      3  F   UNL     1      44.350   4.578  13.580  0.00  0.00    +0.000 F 
ATOM      4  F   UNL     1      45.639   3.772  12.028  0.00  0.00    +0.000 F 
BRANCH   2   5
ATOM      5  C   UNL     1      45.504   6.163  12.203  0.00  0.00    +0.000 A 
ATOM      6  C   UNL     1      44.779   7.320  11.884  0.00  0.00    +0.000 A 
ATOM      7  C   UNL     1      45.397   8.571  11.935  0.00  0.00    +0.000 A 
ATOM      8  C   UNL     1      46.744   8.680  12.293  0.00  0.00    +0.000 A 
ATOM      9  C   UNL     1      47.481   7.532  12.571  0.00  0.00    +0.000 A 
ATOM     10  C   UNL     1      46.863   6.281  12.530  0.00  0.00    +0.000 A 
BRANCH   9  11
ATOM     11  O   UNL     1      48.799   7.515  12.952  0.00  0.00    +0.000 OA
BRANCH  11  12
ATOM     12  C   UNL     1      49.736   8.370  12.259  0.00  0.00    +0.000 C 
ATOM     13  C   UNL     1      50.642   7.735  11.195  0.00  0.00    +0.000 C 
ATOM     14  O   UNL     1      51.840   8.175  11.877  0.00  0.00    +0.000 OA
ATOM     15  C   UNL     1      51.053   8.627  13.002  0.00  0.00    +0.000 C 
ENDBRANCH  11  12
ENDBRANCH   9  11
ENDBRANCH   2   5
ENDBRANCH   1   2
BRANCH   1  16
ATOM     16  N   UNL     1      44.005   5.014   9.917  0.00  0.00    +0.000 N 
ATOM     17  H   UNL     1      43.328   5.551   9.379  0.00  0.00    +0.000 HD
BRANCH  16  21
ATOM     18  C   UNL     1      46.259   2.052   7.918  0.00  0.00    +0.000 A 
ATOM     19  C   UNL     1      46.389   3.407   7.596  0.00  0.00    +0.000 A 
ATOM     20  C   UNL     1      45.591   4.360   8.241  0.00  0.00    +0.000 A 
ATOM     21  C   UNL     1      44.643   3.991   9.206  0.00  0.00    +0.000 A 
ATOM     22  C   UNL     1      44.523   2.615   9.490  0.00  0.00    +0.000 A 
ATOM     23  F   UNL     1      43.644   2.172  10.401  0.00  0.00    +0.000 F 
ATOM     24  C   UNL     1      45.301   1.654   8.846  0.00  0.00    +0.000 A 
BRANCH  18  26
ATOM     25  N   UNL     1      46.795  -0.292   7.570  0.00  0.00    +0.000 N 
ATOM     26  C   UNL     1      47.130   1.011   7.320  0.00  0.00    +0.000 C 
ATOM     27  O   UNL     1      48.067   1.296   6.588  0.00  0.00    +0.000 OA
ATOM     28  H   UNL     1      47.304  -0.989   7.041  0.00  0.00    +0.000 HD
ATOM     29  H   UNL     1      45.891  -0.554   7.935  0.00  0.00    +0.000 HD
ENDBRANCH  18  26
ENDBRANCH  16  21
ENDBRANCH   1  16
TORSDOF 7
ENDMDL
MODEL 3
REMARK VINA RESULT:    -7.287      2.581      7.687
REMARK INTER + INTRA:         -11.291
REMARK INTER:                 -10.422
REMARK INTRA:                  -0.870
REMARK UNBOUND:                -1.023
REMARK  Name = 
REMARK  7 active torsions:
REMARK  status: ('A' for Active; 'I' for Inactive)
REMARK    1  A    between atoms: C_2  and  C_4
REMARK    2  A    between atoms: C_7  and  N_8
REMARK    3  A    between atoms: N_8  and  C_9
REMARK    4  A    between atoms: C_9  and  C_10
REMARK    5  A    between atoms: C_10  and  C_13
REMARK    6  A    between atoms: C_17  and  O_18
REMARK    7  A    between atoms: O_18  and  C_19
REMARK                            x       y       z     vdW  Elec       q    Type
REMARK                         _______ _______ _______ _____ _____    ______ ____
ROOT
ATOM      1  C   UNL     1      45.286   6.252  12.765  0.00  0.00    +0.000 C 
ENDROOT
BRANCH   1   2
ATOM      2  C   UNL     1      44.756   6.451  11.321  0.00  0.00    +0.000 C 
ATOM      3  F   UNL     1      43.483   6.941  11.370  0.00  0.00    +0.000 F 
ATOM      4  F   UNL     1      45.497   7.432  10.722  0.00  0.00    +0.000 F 
BRANCH   2   5
ATOM      5  C   UNL     1      44.838   5.126  10.588  0.00  0.00    +0.000 A 
ATOM      6  C   UNL     1      44.152   4.001  11.063  0.00  0.00    +0.000 A 
ATOM      7  C   UNL     1      44.107   2.832  10.300  0.00  0.00    +0.000 A 
ATOM      8  C   UNL     1      44.754   2.772   9.063  0.00  0.00    +0.000 A 
ATOM      9  C   UNL     1      45.472   3.872   8.603  0.00  0.00    +0.000 A 
ATOM     10  C   UNL     1      45.511   5.044   9.361  0.00  0.00    +0.000 A 
BRANCH   9  11
ATOM     11  O   UNL     1      46.129   3.938   7.399  0.00  0.00    +0.000 OA
BRANCH  11  12
ATOM     12  C   UNL     1      46.359   2.715   6.664  0.00  0.00    +0.000 C 
ATOM     13  C   UNL     1      47.487   1.789   7.138  0.00  0.00    +0.000 C 
ATOM     14  O   UNL     1      48.148   1.848   5.853  0.00  0.00    +0.000 OA
ATOM     15  C   UNL     1      47.225   2.868   5.406  0.00  0.00    +0.000 C 
ENDBRANCH  11  12
ENDBRANCH   9  11
ENDBRANCH   2   5
ENDBRANCH   1   2
BRANCH   1  16
ATOM     16  N   UNL     1      46.740   6.025  12.847  0.00  0.00    +0.000 N 
ATOM     17  H   UNL     1      47.176   5.787  11.959  0.00  0.00    +0.000 HD
BRANCH  16  21
ATOM     18  C   UNL     1      48.108   4.233  16.421  0.00  0.00    +0.000 A 
ATOM     19  C   UNL     1      48.334   5.587  16.152  0.00  0.00    +0.000 A 
ATOM     20  C   UNL     1      47.913   6.140  14.936  0.00  0.00    +0.000 A 
ATOM     21  C   UNL     1      47.273   5.363  13.960  0.00  0.00    +0.000 A 
ATOM     22  C   UNL     1      47.081   3.997  14.255  0.00  0.00    +0.000 A 
ATOM     23  F   UNL     1      46.475   3.181  13.380  0.00  0.00    +0.000 F 
ATOM     24  C   UNL     1      47.507   3.431  15.455  0.00  0.00    +0.000 A 
BRANCH  18  26
ATOM     25  N   UNL     1      47.482   2.915  18.364  0.00  0.00    +0.000 N 
ATOM     26  C   UNL     1      48.467   3.616  17.721  0.00  0.00    +0.000 C 
ATOM     27  O   UNL     1      49.600   3.675  18.173  0.00  0.00    +0.000 OA
ATOM     28  H   UNL     1      47.776   2.378  19.170  0.00  0.00    +0.000 HD
ATOM     29  H   UNL     1      46.636   2.624  17.895  0.00  0.00    +0.000 HD
ENDBRANCH  18  26
ENDBRANCH  16  21
ENDBRANCH   1  16
TORSDOF 7
ENDMDL
MODEL 4
REMARK VINA RESULT:    -7.220      2.981      8.183
REMARK INTER + INTRA:         -11.198
REMARK INTER:                 -10.599
REMARK INTRA:                  -0.599
REMARK UNBOUND:                -1.023
REMARK  Name = 
REMARK  7 active torsions:
REMARK  status: ('A' for Active; 'I' for Inactive)
REMARK    1  A    between atoms: C_2  and  C_4
REMARK    2  A    between atoms: C_7  and  N_8
REMARK    3  A    between atoms: N_8  and  C_9
REMARK    4  A    between atoms: C_9  and  C_10
REMARK    5  A    between atoms: C_10  and  C_13
REMARK    6  A    between atoms: C_17  and  O_18
REMARK    7  A    between atoms: O_18  and  C_19
REMARK                            x       y       z     vdW  Elec       q    Type
REMARK                         _______ _______ _______ _____ _____    ______ ____
ROOT
ATOM      1  C   UNL     1      45.699   5.876  12.923  0.00  0.00    +0.000 C 
ENDROOT
BRANCH   1   2
ATOM      2  C   UNL     1      45.478   6.296  11.447  0.00  0.00    +0.000 C 
ATOM      3  F   UNL     1      44.426   7.164  11.376  0.00  0.00    +0.000 F 
ATOM      4  F   UNL     1      46.567   7.016  11.037  0.00  0.00    +0.000 F 
BRANCH   2   5
ATOM      5  C   UNL     1      45.255   5.048  10.616  0.00  0.00    +0.000 A 
ATOM      6  C   UNL     1      44.424   4.019  11.078  0.00  0.00    +0.000 A 
ATOM      7  C   UNL     1      44.102   2.948  10.242  0.00  0.00    +0.000 A 
ATOM      8  C   UNL     1      44.614   2.889   8.942  0.00  0.00    +0.000 A 
ATOM      9  C   UNL     1      45.473   3.886   8.490  0.00  0.00    +0.000 A 
ATOM     10  C   UNL     1      45.789   4.962   9.322  0.00  0.00    +0.000 A 
BRANCH   9  11
ATOM     11  O   UNL     1      46.019   3.946   7.233  0.00  0.00    +0.000 OA
BRANCH  11  12
ATOM     12  C   UNL     1      46.321   2.711   6.545  0.00  0.00    +0.000 C 
ATOM     13  C   UNL     1      47.382   1.785   7.155  0.00  0.00    +0.000 C 
ATOM     14  O   UNL     1      48.183   1.822   5.952  0.00  0.00    +0.000 OA
ATOM     15  C   UNL     1      47.323   2.840   5.390  0.00  0.00    +0.000 C 
ENDBRANCH  11  12
ENDBRANCH   9  11
ENDBRANCH   2   5
ENDBRANCH   1   2
BRANCH   1  16
ATOM     16  N   UNL     1      47.076   5.446  13.228  0.00  0.00    +0.000 N 
ATOM     17  H   UNL     1      47.466   4.789  12.555  0.00  0.00    +0.000 HD
BRANCH  16  21
ATOM     18  C   UNL     1      48.420   4.467  17.113  0.00  0.00    +0.000 A 
ATOM     19  C   UNL     1      47.607   3.594  16.382  0.00  0.00    +0.000 A 
ATOM     20  C   UNL     1      47.135   3.969  15.118  0.00  0.00    +0.000 A 
ATOM     21  C   UNL     1      47.449   5.216  14.558  0.00  0.00    +0.000 A 
ATOM     22  C   UNL     1      48.252   6.080  15.331  0.00  0.00    +0.000 A 
ATOM     23  F   UNL     1      48.603   7.290  14.873  0.00  0.00    +0.000 F 
ATOM     24  C   UNL     1      48.717   5.725  16.597  0.00  0.00    +0.000 A 
BRANCH  18  26
ATOM     25  N   UNL     1      48.296   3.199  19.181  0.00  0.00    +0.000 N 
ATOM     26  C   UNL     1      49.005   4.091  18.422  0.00  0.00    +0.000 C 
ATOM     27  O   UNL     1      50.095   4.505  18.786  0.00  0.00    +0.000 OA
ATOM     28  H   UNL     1      48.771   2.838  19.999  0.00  0.00    +0.000 HD
ATOM     29  H   UNL     1      47.546   2.643  18.796  0.00  0.00    +0.000 HD
ENDBRANCH  18  26
ENDBRANCH  16  21
ENDBRANCH   1  16
TORSDOF 7
ENDMDL
MODEL 5
REMARK VINA RESULT:    -7.174      2.023      2.491
REMARK INTER + INTRA:         -11.132
REMARK INTER:                 -10.152
REMARK INTRA:                  -0.981
REMARK UNBOUND:                -1.023
REMARK  Name = 
REMARK  7 active torsions:
REMARK  status: ('A' for Active; 'I' for Inactive)
REMARK    1  A    between atoms: C_2  and  C_4
REMARK    2  A    between atoms: C_7  and  N_8
REMARK    3  A    between atoms: N_8  and  C_9
REMARK    4  A    between atoms: C_9  and  C_10
REMARK    5  A    between atoms: C_10  and  C_13
REMARK    6  A    between atoms: C_17  and  O_18
REMARK    7  A    between atoms: O_18  and  C_19
REMARK                            x       y       z     vdW  Elec       q    Type
REMARK                         _______ _______ _______ _____ _____    ______ ____
ROOT
ATOM      1  C   UNL     1      44.975   3.642  11.987  0.00  0.00    +0.000 C 
ENDROOT
BRANCH   1   2
ATOM      2  C   UNL     1      44.841   5.088  12.529  0.00  0.00    +0.000 C 
ATOM      3  F   UNL     1      44.024   5.806  11.705  0.00  0.00    +0.000 F 
ATOM      4  F   UNL     1      44.187   5.038  13.731  0.00  0.00    +0.000 F 
BRANCH   2   5
ATOM      5  C   UNL     1      46.226   5.694  12.642  0.00  0.00    +0.000 A 
ATOM      6  C   UNL     1      46.756   6.469  11.602  0.00  0.00    +0.000 A 
ATOM      7  C   UNL     1      47.962   7.150  11.778  0.00  0.00    +0.000 A 
ATOM      8  C   UNL     1      48.655   7.056  12.988  0.00  0.00    +0.000 A 
ATOM      9  C   UNL     1      48.156   6.256  14.012  0.00  0.00    +0.000 A 
ATOM     10  C   UNL     1      46.946   5.582  13.841  0.00  0.00    +0.000 A 
BRANCH   9  11
ATOM     11  O   UNL     1      48.735   6.103  15.247  0.00  0.00    +0.000 OA
BRANCH  11  12
ATOM     12  C   UNL     1      49.946   6.833  15.543  0.00  0.00    +0.000 C 
ATOM     13  C   UNL     1      50.919   6.234  16.567  0.00  0.00    +0.000 C 
ATOM     14  O   UNL     1      50.850   7.412  17.403  0.00  0.00    +0.000 OA
ATOM     15  C   UNL     1      49.792   7.954  16.580  0.00  0.00    +0.000 C 
ENDBRANCH  11  12
ENDBRANCH   9  11
ENDBRANCH   2   5
ENDBRANCH   1   2
BRANCH   1  16
ATOM     16  N   UNL     1      44.379   3.440  10.653  0.00  0.00    +0.000 N 
ATOM     17  H   UNL     1      43.551   2.848  10.651  0.00  0.00    +0.000 HD
BRANCH  16  21
ATOM     18  C   UNL     1      46.606   2.814   7.117  0.00  0.00    +0.000 A 
ATOM     19  C   UNL     1      46.176   1.742   7.907  0.00  0.00    +0.000 A 
ATOM     20  C   UNL     1      45.485   1.984   9.101  0.00  0.00    +0.000 A 
ATOM     21  C   UNL     1      45.215   3.288   9.540  0.00  0.00    +0.000 A 
ATOM     22  C   UNL     1      45.681   4.344   8.731  0.00  0.00    +0.000 A 
ATOM     23  F   UNL     1      45.465   5.623   9.073  0.00  0.00    +0.000 F 
ATOM     24  C   UNL     1      46.383   4.118   7.548  0.00  0.00    +0.000 A 
BRANCH  18  26
ATOM     25  N   UNL     1      48.599   2.259   5.844  0.00  0.00    +0.000 N 
ATOM     26  C   UNL     1      47.277   2.612   5.810  0.00  0.00    +0.000 C 
ATOM     27  O   UNL     1      46.670   2.695   4.753  0.00  0.00    +0.000 OA
ATOM     28  H   UNL     1      49.005   1.982   4.959  0.00  0.00    +0.000 HD
ATOM     29  H   UNL     1      49.044   1.923   6.685  0.00  0.00    +0.000 HD
ENDBRANCH  18  26
ENDBRANCH  16  21
ENDBRANCH   1  16
TORSDOF 7
ENDMDL
MODEL 6
REMARK VINA RESULT:    -6.606      4.016      7.870
REMARK INTER + INTRA:         -10.333
REMARK INTER:                  -9.430
REMARK INTRA:                  -0.903
REMARK UNBOUND:                -1.023
REMARK  Name = 
REMARK  7 active torsions:
REMARK  status: ('A' for Active; 'I' for Inactive)
REMARK    1  A    between atoms: C_2  and  C_4
REMARK    2  A    between atoms: C_7  and  N_8
REMARK    3  A    between atoms: N_8  and  C_9
REMARK    4  A    between atoms: C_9  and  C_10
REMARK    5  A    between atoms: C_10  and  C_13
REMARK    6  A    between atoms: C_17  and  O_18
REMARK    7  A    between atoms: O_18  and  C_19
REMARK                            x       y       z     vdW  Elec       q    Type
REMARK                         _______ _______ _______ _____ _____    ______ ____
ROOT
ATOM      1  C   UNL     1      46.948   4.801  14.742  0.00  0.00    +0.000 C 
ENDROOT
BRANCH   1   2
ATOM      2  C   UNL     1      47.496   5.994  13.919  0.00  0.00    +0.000 C 
ATOM      3  F   UNL     1      48.026   6.924  14.767  0.00  0.00    +0.000 F 
ATOM      4  F   UNL     1      48.550   5.551  13.167  0.00  0.00    +0.000 F 
BRANCH   2   5
ATOM      5  C   UNL     1      46.371   6.558  13.073  0.00  0.00    +0.000 A 
ATOM      6  C   UNL     1      46.133   7.938  13.025  0.00  0.00    +0.000 A 
ATOM      7  C   UNL     1      45.200   8.458  12.126  0.00  0.00    +0.000 A 
ATOM      8  C   UNL     1      44.489   7.607  11.275  0.00  0.00    +0.000 A 
ATOM      9  C   UNL     1      44.690   6.231  11.345  0.00  0.00    +0.000 A 
ATOM     10  C   UNL     1      45.629   5.711  12.238  0.00  0.00    +0.000 A 
BRANCH   9  11
ATOM     11  O   UNL     1      44.068   5.302  10.550  0.00  0.00    +0.000 OA
BRANCH  11  12
ATOM     12  C   UNL     1      44.853   4.224   9.993  0.00  0.00    +0.000 C 
ATOM     13  C   UNL     1      44.739   3.950   8.488  0.00  0.00    +0.000 C 
ATOM     14  O   UNL     1      44.325   2.582   8.714  0.00  0.00    +0.000 OA
ATOM     15  C   UNL     1      44.231   2.828  10.136  0.00  0.00    +0.000 C 
ENDBRANCH  11  12
ENDBRANCH   9  11
ENDBRANCH   2   5
ENDBRANCH   1   2
BRANCH   1  16
ATOM     16  N   UNL     1      47.240   4.879  16.186  0.00  0.00    +0.000 N 
ATOM     17  H   UNL     1      47.077   5.797  16.595  0.00  0.00    +0.000 HD
BRANCH  16  21
ATOM     18  C   UNL     1      50.646   2.691  17.395  0.00  0.00    +0.000 A 
ATOM     19  C   UNL     1      49.514   2.051  16.879  0.00  0.00    +0.000 A 
ATOM     20  C   UNL     1      48.382   2.799  16.535  0.00  0.00    +0.000 A 
ATOM     21  C   UNL     1      48.343   4.190  16.705  0.00  0.00    +0.000 A 
ATOM     22  C   UNL     1      49.492   4.800  17.247  0.00  0.00    +0.000 A 
ATOM     23  F   UNL     1      49.544   6.126  17.441  0.00  0.00    +0.000 F 
ATOM     24  C   UNL     1      50.622   4.067  17.607  0.00  0.00    +0.000 A 
BRANCH  18  26
ATOM     25  N   UNL     1      51.930   0.629  17.372  0.00  0.00    +0.000 N 
ATOM     26  C   UNL     1      51.896   1.956  17.706  0.00  0.00    +0.000 C 
ATOM     27  O   UNL     1      52.873   2.515  18.181  0.00  0.00    +0.000 OA
ATOM     28  H   UNL     1      52.831   0.176  17.452  0.00  0.00    +0.000 HD
ATOM     29  H   UNL     1      51.256   0.215  16.744  0.00  0.00    +0.000 HD
ENDBRANCH  18  26
ENDBRANCH  16  21
ENDBRANCH   1  16
TORSDOF 7
ENDMDL
MODEL 7
REMARK VINA RESULT:    -6.543      3.051      4.347
REMARK INTER + INTRA:         -10.244
REMARK INTER:                  -9.102
REMARK INTRA:                  -1.142
REMARK UNBOUND:                -1.023
REMARK  Name = 
REMARK  7 active torsions:
REMARK  status: ('A' for Active; 'I' for Inactive)
REMARK    1  A    between atoms: C_2  and  C_4
REMARK    2  A    between atoms: C_7  and  N_8
REMARK    3  A    between atoms: N_8  and  C_9
REMARK    4  A    between atoms: C_9  and  C_10
REMARK    5  A    between atoms: C_10  and  C_13
REMARK    6  A    between atoms: C_17  and  O_18
REMARK    7  A    between atoms: O_18  and  C_19
REMARK                            x       y       z     vdW  Elec       q    Type
REMARK                         _______ _______ _______ _____ _____    ______ ____
ROOT
ATOM      1  C   UNL     1      46.864   8.537  12.778  0.00  0.00    +0.000 C 
ENDROOT
BRANCH   1   2
ATOM      2  C   UNL     1      48.340   8.077  12.891  0.00  0.00    +0.000 C 
ATOM      3  F   UNL     1      48.511   6.925  12.179  0.00  0.00    +0.000 F 
ATOM      4  F   UNL     1      49.129   9.006  12.269  0.00  0.00    +0.000 F 
BRANCH   2   5
ATOM      5  C   UNL     1      48.684   7.907  14.357  0.00  0.00    +0.000 A 
ATOM      6  C   UNL     1      48.560   8.979  15.252  0.00  0.00    +0.000 A 
ATOM      7  C   UNL     1      48.727   8.772  16.622  0.00  0.00    +0.000 A 
ATOM      8  C   UNL     1      49.031   7.499  17.113  0.00  0.00    +0.000 A 
ATOM      9  C   UNL     1      49.196   6.437  16.227  0.00  0.00    +0.000 A 
ATOM     10  C   UNL     1      49.020   6.640  14.857  0.00  0.00    +0.000 A 
BRANCH   9  11
ATOM     11  O   UNL     1      49.474   5.144  16.591  0.00  0.00    +0.000 OA
BRANCH  11  12
ATOM     12  C   UNL     1      48.559   4.457  17.474  0.00  0.00    +0.000 C 
ATOM     13  C   UNL     1      48.558   2.922  17.462  0.00  0.00    +0.000 C 
ATOM     14  O   UNL     1      47.152   2.872  17.126  0.00  0.00    +0.000 OA
ATOM     15  C   UNL     1      47.129   4.306  16.938  0.00  0.00    +0.000 C 
ENDBRANCH  11  12
ENDBRANCH   9  11
ENDBRANCH   2   5
ENDBRANCH   1   2
BRANCH   1  16
ATOM     16  N   UNL     1      45.896   7.614  13.401  0.00  0.00    +0.000 N 
ATOM     17  H   UNL     1      46.027   7.486  14.402  0.00  0.00    +0.000 HD
BRANCH  16  21
ATOM     18  C   UNL     1      44.484   4.051  11.622  0.00  0.00    +0.000 A 
ATOM     19  C   UNL     1      45.374   4.023  12.702  0.00  0.00    +0.000 A 
ATOM     20  C   UNL     1      45.864   5.221  13.236  0.00  0.00    +0.000 A 
ATOM     21  C   UNL     1      45.493   6.466  12.708  0.00  0.00    +0.000 A 
ATOM     22  C   UNL     1      44.612   6.456  11.607  0.00  0.00    +0.000 A 
ATOM     23  F   UNL     1      44.203   7.600  11.040  0.00  0.00    +0.000 F 
ATOM     24  C   UNL     1      44.127   5.271  11.055  0.00  0.00    +0.000 A 
BRANCH  18  26
ATOM     25  N   UNL     1      44.469   2.289   9.950  0.00  0.00    +0.000 N 
ATOM     26  C   UNL     1      43.879   2.816  11.067  0.00  0.00    +0.000 C 
ATOM     27  O   UNL     1      42.937   2.258  11.609  0.00  0.00    +0.000 OA
ATOM     28  H   UNL     1      44.143   1.373   9.668  0.00  0.00    +0.000 HD
ATOM     29  H   UNL     1      45.392   2.566   9.647  0.00  0.00    +0.000 HD
ENDBRANCH  18  26
ENDBRANCH  16  21
ENDBRANCH   1  16
TORSDOF 7
ENDMDL
MODEL 8
REMARK VINA RESULT:    -6.453      3.713      8.473
REMARK INTER + INTRA:         -10.117
REMARK INTER:                  -9.591
REMARK INTRA:                  -0.527
REMARK UNBOUND:                -1.023
REMARK  Name = 
REMARK  7 active torsions:
REMARK  status: ('A' for Active; 'I' for Inactive)
REMARK    1  A    between atoms: C_2  and  C_4
REMARK    2  A    between atoms: C_7  and  N_8
REMARK    3  A    between atoms: N_8  and  C_9
REMARK    4  A    between atoms: C_9  and  C_10
REMARK    5  A    between atoms: C_10  and  C_13
REMARK    6  A    between atoms: C_17  and  O_18
REMARK    7  A    between atoms: O_18  and  C_19
REMARK                            x       y       z     vdW  Elec       q    Type
REMARK                         _______ _______ _______ _____ _____    ______ ____
ROOT
ATOM      1  C   UNL     1      47.206   4.310  14.183  0.00  0.00    +0.000 C 
ENDROOT
BRANCH   1   2
ATOM      2  C   UNL     1      46.615   5.421  13.277  0.00  0.00    +0.000 C 
ATOM      3  F   UNL     1      46.438   6.558  14.010  0.00  0.00    +0.000 F 
ATOM      4  F   UNL     1      47.547   5.744  12.329  0.00  0.00    +0.000 F 
BRANCH   2   5
ATOM      5  C   UNL     1      45.319   4.915  12.673  0.00  0.00    +0.000 A 
ATOM      6  C   UNL     1      44.115   5.601  12.882  0.00  0.00    +0.000 A 
ATOM      7  C   UNL     1      42.961   5.218  12.196  0.00  0.00    +0.000 A 
ATOM      8  C   UNL     1      42.993   4.141  11.305  0.00  0.00    +0.000 A 
ATOM      9  C   UNL     1      44.176   3.429  11.123  0.00  0.00    +0.000 A 
ATOM     10  C   UNL     1      45.333   3.816  11.801  0.00  0.00    +0.000 A 
BRANCH   9  11
ATOM     11  O   UNL     1      44.334   2.371  10.263  0.00  0.00    +0.000 OA
BRANCH  11  12
ATOM     12  C   UNL     1      44.543   2.639   8.859  0.00  0.00    +0.000 C 
ATOM     13  C   UNL     1      45.862   2.178   8.224  0.00  0.00    +0.000 C 
ATOM     14  O   UNL     1      46.190   3.521   7.801  0.00  0.00    +0.000 OA
ATOM     15  C   UNL     1      45.063   4.047   8.538  0.00  0.00    +0.000 C 
ENDBRANCH  11  12
ENDBRANCH   9  11
ENDBRANCH   2   5
ENDBRANCH   1   2
BRANCH   1  16
ATOM     16  N   UNL     1      46.751   4.372  15.585  0.00  0.00    +0.000 N 
ATOM     17  H   UNL     1      45.976   5.012  15.745  0.00  0.00    +0.000 HD
BRANCH  16  21
ATOM     18  C   UNL     1      49.461   4.552  18.823  0.00  0.00    +0.000 A 
ATOM     19  C   UNL     1      49.541   5.452  17.754  0.00  0.00    +0.000 A 
ATOM     20  C   UNL     1      48.661   5.334  16.671  0.00  0.00    +0.000 A 
ATOM     21  C   UNL     1      47.695   4.320  16.619  0.00  0.00    +0.000 A 
ATOM     22  C   UNL     1      47.656   3.418  17.702  0.00  0.00    +0.000 A 
ATOM     23  F   UNL     1      46.761   2.419  17.736  0.00  0.00    +0.000 F 
ATOM     24  C   UNL     1      48.534   3.514  18.780  0.00  0.00    +0.000 A 
BRANCH  18  26
ATOM     25  N   UNL     1      51.655   4.433  19.858  0.00  0.00    +0.000 N 
ATOM     26  C   UNL     1      50.319   4.677  20.026  0.00  0.00    +0.000 C 
ATOM     27  O   UNL     1      49.871   5.038  21.104  0.00  0.00    +0.000 OA
ATOM     28  H   UNL     1      52.249   4.663  20.645  0.00  0.00    +0.000 HD
ATOM     29  H   UNL     1      52.086   4.402  18.945  0.00  0.00    +0.000 HD
ENDBRANCH  18  26
ENDBRANCH  16  21
ENDBRANCH   1  16
TORSDOF 7
ENDMDL
MODEL 9
REMARK VINA RESULT:    -6.414      3.136      4.834
REMARK INTER + INTRA:         -10.061
REMARK INTER:                  -9.462
REMARK INTRA:                  -0.600
REMARK UNBOUND:                -1.023
REMARK  Name = 
REMARK  7 active torsions:
REMARK  status: ('A' for Active; 'I' for Inactive)
REMARK    1  A    between atoms: C_2  and  C_4
REMARK    2  A    between atoms: C_7  and  N_8
REMARK    3  A    between atoms: N_8  and  C_9
REMARK    4  A    between atoms: C_9  and  C_10
REMARK    5  A    between atoms: C_10  and  C_13
REMARK    6  A    between atoms: C_17  and  O_18
REMARK    7  A    between atoms: O_18  and  C_19
REMARK                            x       y       z     vdW  Elec       q    Type
REMARK                         _______ _______ _______ _____ _____    ______ ____
ROOT
ATOM      1  C   UNL     1      48.582   6.907  13.712  0.00  0.00    +0.000 C 
ENDROOT
BRANCH   1   2
ATOM      2  C   UNL     1      49.392   7.776  14.709  0.00  0.00    +0.000 C 
ATOM      3  F   UNL     1      50.286   8.543  14.018  0.00  0.00    +0.000 F 
ATOM      4  F   UNL     1      48.536   8.664  15.300  0.00  0.00    +0.000 F 
BRANCH   2   5
ATOM      5  C   UNL     1      50.068   6.861  15.711  0.00  0.00    +0.000 A 
ATOM      6  C   UNL     1      51.433   6.998  16.000  0.00  0.00    +0.000 A 
ATOM      7  C   UNL     1      52.009   6.259  17.034  0.00  0.00    +0.000 A 
ATOM      8  C   UNL     1      51.234   5.368  17.782  0.00  0.00    +0.000 A 
ATOM      9  C   UNL     1      49.887   5.195  17.474  0.00  0.00    +0.000 A 
ATOM     10  C   UNL     1      49.308   5.941  16.446  0.00  0.00    +0.000 A 
BRANCH   9  11
ATOM     11  O   UNL     1      49.025   4.368  18.149  0.00  0.00    +0.000 OA
BRANCH  11  12
ATOM     12  C   UNL     1      49.052   2.952  17.864  0.00  0.00    +0.000 C 
ATOM     13  C   UNL     1      50.289   2.380  17.158  0.00  0.00    +0.000 C 
ATOM     14  O   UNL     1      49.494   1.861  16.067  0.00  0.00    +0.000 OA
ATOM     15  C   UNL     1      48.321   2.533  16.581  0.00  0.00    +0.000 C 
ENDBRANCH  11  12
ENDBRANCH   9  11
ENDBRANCH   2   5
ENDBRANCH   1   2
BRANCH   1  16
ATOM     16  N   UNL     1      47.122   7.085  13.806  0.00  0.00    +0.000 N 
ATOM     17  H   UNL     1      46.780   7.241  14.753  0.00  0.00    +0.000 HD
BRANCH  16  21
ATOM     18  C   UNL     1      44.861   4.754  11.103  0.00  0.00    +0.000 A 
ATOM     19  C   UNL     1      45.206   6.078  10.811  0.00  0.00    +0.000 A 
ATOM     20  C   UNL     1      45.911   6.841  11.750  0.00  0.00    +0.000 A 
ATOM     21  C   UNL     1      46.279   6.314  12.996  0.00  0.00    +0.000 A 
ATOM     22  C   UNL     1      45.896   4.984  13.265  0.00  0.00    +0.000 A 
ATOM     23  F   UNL     1      46.208   4.399  14.431  0.00  0.00    +0.000 F 
ATOM     24  C   UNL     1      45.181   4.217  12.346  0.00  0.00    +0.000 A 
BRANCH  18  26
ATOM     25  N   UNL     1      44.117   4.338   8.828  0.00  0.00    +0.000 N 
ATOM     26  C   UNL     1      44.179   3.881  10.117  0.00  0.00    +0.000 C 
ATOM     27  O   UNL     1      43.744   2.780  10.421  0.00  0.00    +0.000 OA
ATOM     28  H   UNL     1      43.783   3.675   8.140  0.00  0.00    +0.000 HD
ATOM     29  H   UNL     1      44.693   5.099   8.499  0.00  0.00    +0.000 HD
ENDBRANCH  18  26
ENDBRANCH  16  21
ENDBRANCH   1  16
TORSDOF 7
ENDMDL
