MODEL 1
REMARK VINA RESULT:    -6.956      0.000      0.000
REMARK INTER + INTRA:         -10.417
REMARK INTER:                  -9.600
REMARK INTRA:                  -0.818
REMARK UNBOUND:                -0.818
REMARK  Name = 
REMARK  10 active torsions:
REMARK  status: ('A' for Active; 'I' for Inactive)
REMARK    1  A    between atoms: C_1  and  C_2
REMARK    2  A    between atoms: C_2  and  C_3
REMARK    3  A    between atoms: C_2  and  C_4
REMARK    4  A    between atoms: C_2  and  C_5
REMARK    5  A    between atoms: N_7  and  C_8
REMARK    6  A    between atoms: C_8  and  C_9
REMARK    7  A    between atoms: C_12  and  C_13
REMARK    8  A    between atoms: C_13  and  C_14
REMARK    9  A    between atoms: C_14  and  C_15
REMARK   10  A    between atoms: C_15  and  N_16
REMARK                            x       y       z     vdW  Elec       q    Type
REMARK                         _______ _______ _______ _____ _____    ______ ____
ROOT
ATOM      1  C   UNL     1      47.346   7.855  12.706  0.00  0.00    +0.000 A 
ATOM      2  C   UNL     1      46.172   7.767  11.973  0.00  0.00    +0.000 A 
ATOM      3  N   UNL     1      45.523   6.603  12.293  0.00  0.00    +0.000 N 
ATOM      4  C   UNL     1      46.222   5.932  13.268  0.00  0.00    +0.000 A 
ATOM      5  C   UNL     1      45.970   4.736  13.950  0.00  0.00    +0.000 A 
ATOM      6  C   UNL     1      46.914   4.347  14.893  0.00  0.00    +0.000 A 
ATOM      7  C   UNL     1      48.025   5.146  15.096  0.00  0.00    +0.000 A 
ATOM      8  N   UNL     1      48.294   6.298  14.452  0.00  0.00    +0.000 NA
ATOM      9  C   UNL     1      47.372   6.682  13.534  0.00  0.00    +0.000 A 
ENDROOT
BRANCH   1  11
ATOM     10  C   UNL     1      47.693  10.143  11.770  0.00  0.00    +0.000 C 
ATOM     11  C   UNL     1      48.327   9.018  12.621  0.00  0.00    +0.000 C 
ATOM     12  C   UNL     1      49.635   8.561  11.935  0.00  0.00    +0.000 C 
ATOM     13  C   UNL     1      48.707   9.615  13.988  0.00  0.00    +0.000 C 
ENDBRANCH   1  11
BRANCH   3  14
ATOM     14  C   UNL     1      44.271   6.166  11.677  0.00  0.00    +0.000 C 
BRANCH  14  15
ATOM     15  C   UNL     1      44.546   5.098  10.649  0.00  0.00    +0.000 A 
ATOM     16  C   UNL     1      44.095   3.789  10.860  0.00  0.00    +0.000 A 
ATOM     17  C   UNL     1      44.509   2.751  10.025  0.00  0.00    +0.000 A 
ATOM     18  C   UNL     1      45.353   3.008   8.941  0.00  0.00    +0.000 A 
ATOM     19  C   UNL     1      45.759   4.326   8.695  0.00  0.00    +0.000 A 
ATOM     20  C   UNL     1      45.355   5.363   9.538  0.00  0.00    +0.000 A 
BRANCH  18  21
ATOM     21  C   UNL     1      45.856   1.888   8.063  0.00  0.00    +0.000 C 
BRANCH  21  22
ATOM     22  C   UNL     1      46.542   2.352   6.776  0.00  0.00    +0.000 C 
BRANCH  22  23
ATOM     23  C   UNL     1      48.053   2.128   6.795  0.00  0.00    +0.000 C 
BRANCH  23  24
ATOM     24  N   UNL     1      48.518   1.837   5.445  0.00  0.00    +0.000 NA
ATOM     25  H   UNL     1      49.322   2.423   5.222  0.00  0.00    +0.000 HD
ATOM     26  H   UNL     1      47.790   2.081   4.775  0.00  0.00    +0.000 HD
ENDBRANCH  23  24
ENDBRANCH  22  23
ENDBRANCH  21  22
ENDBRANCH  18  21
ENDBRANCH  14  15
ENDBRANCH   3  14
TORSDOF 7
ENDMDL
MODEL 2
REMARK VINA RESULT:    -6.862      1.396      2.987
REMARK INTER + INTRA:         -10.287
REMARK INTER:                  -9.642
REMARK INTRA:                  -0.645
REMARK UNBOUND:                -0.818
REMARK  Name = 
REMARK  10 active torsions:
REMARK  status: ('A' for Active; 'I' for Inactive)
REMARK    1  A    between atoms: C_1  and  C_2
REMARK    2  A    between atoms: C_2  and  C_3
REMARK    3  A    between atoms: C_2  and  C_4
REMARK    4  A    between atoms: C_2  and  C_5
REMARK    5  A    between atoms: N_7  and  C_8
REMARK    6  A    between atoms: C_8  and  C_9
REMARK    7  A    between atoms: C_12  and  C_13
REMARK    8  A    between atoms: C_13  and  C_14
REMARK    9  A    between atoms: C_14  and  C_15
REMARK   10  A    between atoms: C_15  and  N_16
REMARK                            x       y       z     vdW  Elec       q    Type
REMARK                         _______ _______ _______ _____ _____    ______ ____
ROOT
ATOM      1  C   UNL     1      46.679   7.501  12.926  0.00  0.00    +0.000 A 
ATOM      2  C   UNL     1      45.830   6.433  12.676  0.00  0.00    +0.000 A 
ATOM      3  N   UNL     1      44.742   6.874  11.969  0.00  0.00    +0.000 N 
ATOM      4  C   UNL     1      44.875   8.215  11.698  0.00  0.00    +0.000 A 
ATOM      5  C   UNL     1      44.069   9.113  10.989  0.00  0.00    +0.000 A 
ATOM      6  C   UNL     1      44.519  10.426  10.914  0.00  0.00    +0.000 A 
ATOM      7  C   UNL     1      45.710  10.762  11.534  0.00  0.00    +0.000 A 
ATOM      8  N   UNL     1      46.501   9.919  12.226  0.00  0.00    +0.000 NA
ATOM      9  C   UNL     1      46.067   8.636  12.297  0.00  0.00    +0.000 A 
ENDROOT
BRANCH   1  11
ATOM     10  C   UNL     1      49.159   7.383  12.663  0.00  0.00    +0.000 C 
ATOM     11  C   UNL     1      47.997   7.391  13.683  0.00  0.00    +0.000 C 
ATOM     12  C   UNL     1      48.041   6.070  14.486  0.00  0.00    +0.000 C 
ATOM     13  C   UNL     1      48.244   8.542  14.676  0.00  0.00    +0.000 C 
ENDBRANCH   1  11
BRANCH   3  14
ATOM     14  C   UNL     1      43.623   6.022  11.571  0.00  0.00    +0.000 C 
BRANCH  14  15
ATOM     15  C   UNL     1      44.095   4.968  10.602  0.00  0.00    +0.000 A 
ATOM     16  C   UNL     1      43.739   3.628  10.795  0.00  0.00    +0.000 A 
ATOM     17  C   UNL     1      44.326   2.619  10.030  0.00  0.00    +0.000 A 
ATOM     18  C   UNL     1      45.254   2.934   9.034  0.00  0.00    +0.000 A 
ATOM     19  C   UNL     1      45.568   4.279   8.801  0.00  0.00    +0.000 A 
ATOM     20  C   UNL     1      44.991   5.288   9.574  0.00  0.00    +0.000 A 
BRANCH  18  21
ATOM     21  C   UNL     1      45.941   1.851   8.238  0.00  0.00    +0.000 C 
BRANCH  21  22
ATOM     22  C   UNL     1      46.593   2.335   6.942  0.00  0.00    +0.000 C 
BRANCH  22  23
ATOM     23  C   UNL     1      48.061   1.928   6.828  0.00  0.00    +0.000 C 
BRANCH  23  24
ATOM     24  N   UNL     1      48.464   1.950   5.427  0.00  0.00    +0.000 NA
ATOM     25  H   UNL     1      48.468   1.002   5.053  0.00  0.00    +0.000 HD
ATOM     26  H   UNL     1      49.421   2.292   5.355  0.00  0.00    +0.000 HD
ENDBRANCH  23  24
ENDBRANCH  22  23
ENDBRANCH  21  22
ENDBRANCH  18  21
ENDBRANCH  14  15
ENDBRANCH   3  14
TORSDOF 7
ENDMDL
MODEL 3
REMARK VINA RESULT:    -6.806      1.315      3.611
REMARK INTER + INTRA:         -10.210
REMARK INTER:                  -9.873
REMARK INTRA:                  -0.337
REMARK UNBOUND:                -0.818
REMARK  Name = 
REMARK  10 active torsions:
REMARK  status: ('A' for Active; 'I' for Inactive)
REMARK    1  A    between atoms: C_1  and  C_2
REMARK    2  A    between atoms: C_2  and  C_3
REMARK    3  A    between atoms: C_2  and  C_4
REMARK    4  A    between atoms: C_2  and  C_5
REMARK    5  A    between atoms: N_7  and  C_8
REMARK    6  A    between atoms: C_8  and  C_9
REMARK    7  A    between atoms: C_12  and  C_13
REMARK    8  A    between atoms: C_13  and  C_14
REMARK    9  A    between atoms: C_14  and  C_15
REMARK   10  A    between atoms: C_15  and  N_16
REMARK                            x       y       z     vdW  Elec       q    Type
REMARK                         _______ _______ _______ _____ _____    ______ ____
ROOT
ATOM      1  C   UNL     1      47.496   5.001  15.234  0.00  0.00    +0.000 A 
ATOM      2  C   UNL     1      46.280   4.749  14.618  0.00  0.00    +0.000 A 
ATOM      3  N   UNL     1      46.124   5.600  13.555  0.00  0.00    +0.000 N 
ATOM      4  C   UNL     1      47.243   6.387  13.420  0.00  0.00    +0.000 A 
ATOM      5  C   UNL     1      47.590   7.372  12.489  0.00  0.00    +0.000 A 
ATOM      6  C   UNL     1      48.829   7.979  12.660  0.00  0.00    +0.000 A 
ATOM      7  C   UNL     1      49.627   7.585  13.719  0.00  0.00    +0.000 A 
ATOM      8  N   UNL     1      49.316   6.643  14.631  0.00  0.00    +0.000 NA
ATOM      9  C   UNL     1      48.109   6.046  14.464  0.00  0.00    +0.000 A 
ENDROOT
BRANCH   1  11
ATOM     10  C   UNL     1      48.195   2.755  16.071  0.00  0.00    +0.000 C 
ATOM     11  C   UNL     1      48.017   4.243  16.450  0.00  0.00    +0.000 C 
ATOM     12  C   UNL     1      46.999   4.336  17.610  0.00  0.00    +0.000 C 
ATOM     13  C   UNL     1      49.367   4.763  16.978  0.00  0.00    +0.000 C 
ENDBRANCH   1  11
BRANCH   3  14
ATOM     14  C   UNL     1      44.935   5.640  12.704  0.00  0.00    +0.000 C 
BRANCH  14  15
ATOM     15  C   UNL     1      45.199   4.907  11.413  0.00  0.00    +0.000 A 
ATOM     16  C   UNL     1      45.618   5.614  10.279  0.00  0.00    +0.000 A 
ATOM     17  C   UNL     1      45.674   4.990   9.033  0.00  0.00    +0.000 A 
ATOM     18  C   UNL     1      45.346   3.638   8.902  0.00  0.00    +0.000 A 
ATOM     19  C   UNL     1      44.982   2.915  10.046  0.00  0.00    +0.000 A 
ATOM     20  C   UNL     1      44.914   3.542  11.291  0.00  0.00    +0.000 A 
BRANCH  18  21
ATOM     21  C   UNL     1      45.345   2.963   7.552  0.00  0.00    +0.000 C 
BRANCH  21  22
ATOM     22  C   UNL     1      46.656   3.102   6.775  0.00  0.00    +0.000 C 
BRANCH  22  23
ATOM     23  C   UNL     1      47.547   1.867   6.890  0.00  0.00    +0.000 C 
BRANCH  23  24
ATOM     24  N   UNL     1      48.473   1.829   5.764  0.00  0.00    +0.000 NA
ATOM     25  H   UNL     1      48.600   2.768   5.389  0.00  0.00    +0.000 HD
ATOM     26  H   UNL     1      48.071   1.271   5.013  0.00  0.00    +0.000 HD
ENDBRANCH  23  24
ENDBRANCH  22  23
ENDBRANCH  21  22
ENDBRANCH  18  21
ENDBRANCH  14  15
ENDBRANCH   3  14
TORSDOF 7
ENDMDL
MODEL 4
REMARK VINA RESULT:    -6.376      1.966      2.908
REMARK INTER + INTRA:          -9.616
REMARK INTER:                  -9.253
REMARK INTRA:                  -0.363
REMARK UNBOUND:                -0.818
REMARK  Name = 
REMARK  10 active torsions:
REMARK  status: ('A' for Active; 'I' for Inactive)
REMARK    1  A    between atoms: C_1  and  C_2
REMARK    2  A    between atoms: C_2  and  C_3
REMARK    3  A    between atoms: C_2  and  C_4
REMARK    4  A    between atoms: C_2  and  C_5
REMARK    5  A    between atoms: N_7  and  C_8
REMARK    6  A    between atoms: C_8  and  C_9
REMARK    7  A    between atoms: C_12  and  C_13
REMARK    8  A    between atoms: C_13  and  C_14
REMARK    9  A    between atoms: C_14  and  C_15
REMARK   10  A    between atoms: C_15  and  N_16
REMARK                            x       y       z     vdW  Elec       q    Type
REMARK                         _______ _______ _______ _____ _____    ______ ____
ROOT
ATOM      1  C   UNL     1      44.141   8.883  11.245  0.00  0.00    +0.000 A 
ATOM      2  C   UNL     1      43.163   7.912  11.093  0.00  0.00    +0.000 A 
ATOM      3  N   UNL     1      43.646   6.708  11.535  0.00  0.00    +0.000 N 
ATOM      4  C   UNL     1      44.920   6.870  12.027  0.00  0.00    +0.000 A 
ATOM      5  C   UNL     1      45.819   5.973  12.616  0.00  0.00    +0.000 A 
ATOM      6  C   UNL     1      47.049   6.492  13.004  0.00  0.00    +0.000 A 
ATOM      7  C   UNL     1      47.308   7.834  12.787  0.00  0.00    +0.000 A 
ATOM      8  N   UNL     1      46.463   8.716  12.220  0.00  0.00    +0.000 NA
ATOM      9  C   UNL     1      45.260   8.214  11.845  0.00  0.00    +0.000 A 
ENDROOT
BRANCH   1  11
ATOM     10  C   UNL     1      42.596  10.839  11.403  0.00  0.00    +0.000 C 
ATOM     11  C   UNL     1      43.961  10.349  10.867  0.00  0.00    +0.000 C 
ATOM     12  C   UNL     1      43.970  10.507   9.329  0.00  0.00    +0.000 C 
ATOM     13  C   UNL     1      45.053  11.277  11.432  0.00  0.00    +0.000 C 
ENDBRANCH   1  11
BRANCH   3  14
ATOM     14  C   UNL     1      42.896   5.454  11.484  0.00  0.00    +0.000 C 
BRANCH  14  15
ATOM     15  C   UNL     1      43.578   4.481  10.556  0.00  0.00    +0.000 A 
ATOM     16  C   UNL     1      43.714   3.138  10.926  0.00  0.00    +0.000 A 
ATOM     17  C   UNL     1      44.512   2.271  10.178  0.00  0.00    +0.000 A 
ATOM     18  C   UNL     1      45.162   2.724   9.027  0.00  0.00    +0.000 A 
ATOM     19  C   UNL     1      44.981   4.053   8.624  0.00  0.00    +0.000 A 
ATOM     20  C   UNL     1      44.193   4.923   9.378  0.00  0.00    +0.000 A 
BRANCH  18  21
ATOM     21  C   UNL     1      46.074   1.815   8.240  0.00  0.00    +0.000 C 
BRANCH  21  22
ATOM     22  C   UNL     1      46.654   2.445   6.972  0.00  0.00    +0.000 C 
BRANCH  22  23
ATOM     23  C   UNL     1      48.140   2.140   6.784  0.00  0.00    +0.000 C 
BRANCH  23  24
ATOM     24  N   UNL     1      48.417   1.927   5.369  0.00  0.00    +0.000 NA
ATOM     25  H   UNL     1      49.338   2.298   5.137  0.00  0.00    +0.000 HD
ATOM     26  H   UNL     1      47.746   2.451   4.809  0.00  0.00    +0.000 HD
ENDBRANCH  23  24
ENDBRANCH  22  23
ENDBRANCH  21  22
ENDBRANCH  18  21
ENDBRANCH  14  15
ENDBRANCH   3  14
TORSDOF 7
ENDMDL
MODEL 5
REMARK VINA RESULT:    -5.849      2.204      6.965
REMARK INTER + INTRA:          -8.889
REMARK INTER:                  -8.065
REMARK INTRA:                  -0.824
REMARK UNBOUND:                -0.818
REMARK  Name = 
REMARK  10 active torsions:
REMARK  status: ('A' for Active; 'I' for Inactive)
REMARK    1  A    between atoms: C_1  and  C_2
REMARK    2  A    between atoms: C_2  and  C_3
REMARK    3  A    between atoms: C_2  and  C_4
REMARK    4  A    between atoms: C_2  and  C_5
REMARK    5  A    between atoms: N_7  and  C_8
REMARK    6  A    between atoms: C_8  and  C_9
REMARK    7  A    between atoms: C_12  and  C_13
REMARK    8  A    between atoms: C_13  and  C_14
REMARK    9  A    between atoms: C_14  and  C_15
REMARK   10  A    between atoms: C_15  and  N_16
REMARK                            x       y       z     vdW  Elec       q    Type
REMARK                         _______ _______ _______ _____ _____    ______ ____
ROOT
ATOM      1  C   UNL     1      45.379   4.213   9.394  0.00  0.00    +0.000 A 
ATOM      2  C   UNL     1      45.922   5.473   9.595  0.00  0.00    +0.000 A 
ATOM      3  N   UNL     1      45.510   5.957  10.809  0.00  0.00    +0.000 N 
ATOM      4  C   UNL     1      44.736   5.017  11.447  0.00  0.00    +0.000 A 
ATOM      5  C   UNL     1      44.114   5.008  12.701  0.00  0.00    +0.000 A 
ATOM      6  C   UNL     1      43.394   3.866  13.029  0.00  0.00    +0.000 A 
ATOM      7  C   UNL     1      43.332   2.828  12.115  0.00  0.00    +0.000 A 
ATOM      8  N   UNL     1      43.917   2.812  10.902  0.00  0.00    +0.000 NA
ATOM      9  C   UNL     1      44.625   3.925  10.581  0.00  0.00    +0.000 A 
ENDROOT
BRANCH   1  11
ATOM     10  C   UNL     1      46.762   3.998   7.326  0.00  0.00    +0.000 C 
ATOM     11  C   UNL     1      45.623   3.360   8.155  0.00  0.00    +0.000 C 
ATOM     12  C   UNL     1      44.348   3.313   7.282  0.00  0.00    +0.000 C 
ATOM     13  C   UNL     1      46.022   1.905   8.468  0.00  0.00    +0.000 C 
ENDBRANCH   1  11
BRANCH   3  14
ATOM     14  C   UNL     1      45.860   7.280  11.326  0.00  0.00    +0.000 C 
BRANCH  14  15
ATOM     15  C   UNL     1      47.148   7.205  12.104  0.00  0.00    +0.000 A 
ATOM     16  C   UNL     1      47.134   6.807  13.447  0.00  0.00    +0.000 A 
ATOM     17  C   UNL     1      48.280   6.923  14.235  0.00  0.00    +0.000 A 
ATOM     18  C   UNL     1      49.470   7.408  13.687  0.00  0.00    +0.000 A 
ATOM     19  C   UNL     1      49.501   7.753  12.329  0.00  0.00    +0.000 A 
ATOM     20  C   UNL     1      48.352   7.649  11.544  0.00  0.00    +0.000 A 
BRANCH  18  21
ATOM     21  C   UNL     1      50.701   7.595  14.540  0.00  0.00    +0.000 C 
BRANCH  21  22
ATOM     22  C   UNL     1      50.458   7.443  16.043  0.00  0.00    +0.000 C 
BRANCH  22  23
ATOM     23  C   UNL     1      51.171   6.232  16.640  0.00  0.00    +0.000 C 
BRANCH  23  24
ATOM     24  N   UNL     1      50.221   5.137  16.797  0.00  0.00    +0.000 NA
ATOM     25  H   UNL     1      49.388   5.469  17.283  0.00  0.00    +0.000 HD
ATOM     26  H   UNL     1      50.630   4.415  17.389  0.00  0.00    +0.000 HD
ENDBRANCH  23  24
ENDBRANCH  22  23
ENDBRANCH  21  22
ENDBRANCH  18  21
ENDBRANCH  14  15
ENDBRANCH   3  14
TORSDOF 7
ENDMDL
MODEL 6
REMARK VINA RESULT:    -5.425      3.050      8.250
REMARK INTER + INTRA:          -8.304
REMARK INTER:                  -7.473
REMARK INTRA:                  -0.830
REMARK UNBOUND:                -0.818
REMARK  Name = 
REMARK  10 active torsions:
REMARK  status: ('A' for Active; 'I' for Inactive)
REMARK    1  A    between atoms: C_1  and  C_2
REMARK    2  A    between atoms: C_2  and  C_3
REMARK    3  A    between atoms: C_2  and  C_4
REMARK    4  A    between atoms: C_2  and  C_5
REMARK    5  A    between atoms: N_7  and  C_8
REMARK    6  A    between atoms: C_8  and  C_9
REMARK    7  A    between atoms: C_12  and  C_13
REMARK    8  A    between atoms: C_13  and  C_14
REMARK    9  A    between atoms: C_14  and  C_15
REMARK   10  A    between atoms: C_15  and  N_16
REMARK                            x       y       z     vdW  Elec       q    Type
REMARK                         _______ _______ _______ _____ _____    ______ ____
ROOT
ATOM      1  C   UNL     1      45.533   5.798  12.325  0.00  0.00    +0.000 A 
ATOM      2  C   UNL     1      46.719   5.533  12.992  0.00  0.00    +0.000 A 
ATOM      3  N   UNL     1      47.408   6.703  13.177  0.00  0.00    +0.000 N 
ATOM      4  C   UNL     1      46.676   7.757  12.685  0.00  0.00    +0.000 A 
ATOM      5  C   UNL     1      46.916   9.136  12.662  0.00  0.00    +0.000 A 
ATOM      6  C   UNL     1      45.937   9.927  12.070  0.00  0.00    +0.000 A 
ATOM      7  C   UNL     1      44.811   9.317  11.547  0.00  0.00    +0.000 A 
ATOM      8  N   UNL     1      44.557   7.994  11.552  0.00  0.00    +0.000 NA
ATOM      9  C   UNL     1      45.508   7.220  12.134  0.00  0.00    +0.000 A 
ENDROOT
BRANCH   1  11
ATOM     10  C   UNL     1      43.234   4.952  12.811  0.00  0.00    +0.000 C 
ATOM     11  C   UNL     1      44.502   4.739  11.951  0.00  0.00    +0.000 C 
ATOM     12  C   UNL     1      45.061   3.327  12.243  0.00  0.00    +0.000 C 
ATOM     13  C   UNL     1      44.083   4.772  10.470  0.00  0.00    +0.000 C 
ENDBRANCH   1  11
BRANCH   3  14
ATOM     14  C   UNL     1      48.723   6.789  13.810  0.00  0.00    +0.000 C 
BRANCH  14  15
ATOM     15  C   UNL     1      48.573   6.826  15.310  0.00  0.00    +0.000 A 
ATOM     16  C   UNL     1      48.597   8.051  15.987  0.00  0.00    +0.000 A 
ATOM     17  C   UNL     1      48.661   8.093  17.380  0.00  0.00    +0.000 A 
ATOM     18  C   UNL     1      48.666   6.910  18.124  0.00  0.00    +0.000 A 
ATOM     19  C   UNL     1      48.584   5.685  17.451  0.00  0.00    +0.000 A 
ATOM     20  C   UNL     1      48.533   5.642  16.057  0.00  0.00    +0.000 A 
BRANCH  18  21
ATOM     21  C   UNL     1      48.792   6.937  19.628  0.00  0.00    +0.000 C 
BRANCH  21  22
ATOM     22  C   UNL     1      47.851   5.978  20.359  0.00  0.00    +0.000 C 
BRANCH  22  23
ATOM     23  C   UNL     1      48.596   4.895  21.139  0.00  0.00    +0.000 C 
BRANCH  23  24
ATOM     24  N   UNL     1      48.372   3.600  20.507  0.00  0.00    +0.000 NA
ATOM     25  H   UNL     1      49.252   3.238  20.139  0.00  0.00    +0.000 HD
ATOM     26  H   UNL     1      47.752   3.716  19.707  0.00  0.00    +0.000 HD
ENDBRANCH  23  24
ENDBRANCH  22  23
ENDBRANCH  21  22
ENDBRANCH  18  21
ENDBRANCH  14  15
ENDBRANCH   3  14
TORSDOF 7
ENDMDL
MODEL 7
REMARK VINA RESULT:    -5.315      3.447      5.719
REMARK INTER + INTRA:          -8.152
REMARK INTER:                  -7.299
REMARK INTRA:                  -0.853
REMARK UNBOUND:                -0.818
REMARK  Name = 
REMARK  10 active torsions:
REMARK  status: ('A' for Active; 'I' for Inactive)
REMARK    1  A    between atoms: C_1  and  C_2
REMARK    2  A    between atoms: C_2  and  C_3
REMARK    3  A    between atoms: C_2  and  C_4
REMARK    4  A    between atoms: C_2  and  C_5
REMARK    5  A    between atoms: N_7  and  C_8
REMARK    6  A    between atoms: C_8  and  C_9
REMARK    7  A    between atoms: C_12  and  C_13
REMARK    8  A    between atoms: C_13  and  C_14
REMARK    9  A    between atoms: C_14  and  C_15
REMARK   10  A    between atoms: C_15  and  N_16
REMARK                            x       y       z     vdW  Elec       q    Type
REMARK                         _______ _______ _______ _____ _____    ______ ____
ROOT
ATOM      1  C   UNL     1      48.431   8.420  17.930  0.00  0.00    +0.000 A 
ATOM      2  C   UNL     1      48.707   8.486  16.572  0.00  0.00    +0.000 A 
ATOM      3  N   UNL     1      48.938   7.222  16.094  0.00  0.00    +0.000 N 
ATOM      4  C   UNL     1      48.772   6.304  17.103  0.00  0.00    +0.000 A 
ATOM      5  C   UNL     1      48.856   4.907  17.125  0.00  0.00    +0.000 A 
ATOM      6  C   UNL     1      48.624   4.289  18.348  0.00  0.00    +0.000 A 
ATOM      7  C   UNL     1      48.333   5.074  19.449  0.00  0.00    +0.000 A 
ATOM      8  N   UNL     1      48.249   6.419  19.458  0.00  0.00    +0.000 NA
ATOM      9  C   UNL     1      48.470   7.025  18.264  0.00  0.00    +0.000 A 
ENDROOT
BRANCH   1  11
ATOM     10  C   UNL     1      47.852  10.848  17.888  0.00  0.00    +0.000 C 
ATOM     11  C   UNL     1      48.116   9.630  18.802  0.00  0.00    +0.000 C 
ATOM     12  C   UNL     1      49.321   9.954  19.716  0.00  0.00    +0.000 C 
ATOM     13  C   UNL     1      46.886   9.441  19.709  0.00  0.00    +0.000 C 
ENDBRANCH   1  11
BRANCH   3  14
ATOM     14  C   UNL     1      49.300   6.923  14.709  0.00  0.00    +0.000 C 
BRANCH  14  15
ATOM     15  C   UNL     1      48.057   6.761  13.873  0.00  0.00    +0.000 A 
ATOM     16  C   UNL     1      47.381   5.535  13.852  0.00  0.00    +0.000 A 
ATOM     17  C   UNL     1      46.353   5.305  12.937  0.00  0.00    +0.000 A 
ATOM     18  C   UNL     1      45.957   6.309  12.050  0.00  0.00    +0.000 A 
ATOM     19  C   UNL     1      46.593   7.556  12.109  0.00  0.00    +0.000 A 
ATOM     20  C   UNL     1      47.630   7.782  13.015  0.00  0.00    +0.000 A 
BRANCH  18  21
ATOM     21  C   UNL     1      44.886   6.058  11.016  0.00  0.00    +0.000 C 
BRANCH  21  22
ATOM     22  C   UNL     1      43.969   4.874  11.332  0.00  0.00    +0.000 C 
BRANCH  22  23
ATOM     23  C   UNL     1      42.602   5.307  11.858  0.00  0.00    +0.000 C 
BRANCH  23  24
ATOM     24  N   UNL     1      42.651   5.411  13.312  0.00  0.00    +0.000 NA
ATOM     25  H   UNL     1      42.178   6.263  13.614  0.00  0.00    +0.000 HD
ATOM     26  H   UNL     1      43.621   5.499  13.612  0.00  0.00    +0.000 HD
ENDBRANCH  23  24
ENDBRANCH  22  23
ENDBRANCH  21  22
ENDBRANCH  18  21
ENDBRANCH  14  15
ENDBRANCH   3  14
TORSDOF 7
ENDMDL
MODEL 8
REMARK VINA RESULT:    -5.275      3.402      6.178
REMARK INTER + INTRA:          -8.098
REMARK INTER:                  -7.333
REMARK INTRA:                  -0.765
REMARK UNBOUND:                -0.818
REMARK  Name = 
REMARK  10 active torsions:
REMARK  status: ('A' for Active; 'I' for Inactive)
REMARK    1  A    between atoms: C_1  and  C_2
REMARK    2  A    between atoms: C_2  and  C_3
REMARK    3  A    between atoms: C_2  and  C_4
REMARK    4  A    between atoms: C_2  and  C_5
REMARK    5  A    between atoms: N_7  and  C_8
REMARK    6  A    between atoms: C_8  and  C_9
REMARK    7  A    between atoms: C_12  and  C_13
REMARK    8  A    between atoms: C_13  and  C_14
REMARK    9  A    between atoms: C_14  and  C_15
REMARK   10  A    between atoms: C_15  and  N_16
REMARK                            x       y       z     vdW  Elec       q    Type
REMARK                         _______ _______ _______ _____ _____    ______ ____
ROOT
ATOM      1  C   UNL     1      49.431   5.973  17.648  0.00  0.00    +0.000 A 
ATOM      2  C   UNL     1      49.621   5.880  16.278  0.00  0.00    +0.000 A 
ATOM      3  N   UNL     1      49.150   7.017  15.676  0.00  0.00    +0.000 N 
ATOM      4  C   UNL     1      48.691   7.894  16.631  0.00  0.00    +0.000 A 
ATOM      5  C   UNL     1      48.154   9.183  16.540  0.00  0.00    +0.000 A 
ATOM      6  C   UNL     1      47.787   9.789  17.736  0.00  0.00    +0.000 A 
ATOM      7  C   UNL     1      47.966   9.095  18.920  0.00  0.00    +0.000 A 
ATOM      8  N   UNL     1      48.476   7.854  19.035  0.00  0.00    +0.000 NA
ATOM      9  C   UNL     1      48.840   7.262  17.869  0.00  0.00    +0.000 A 
ENDROOT
BRANCH   1  11
ATOM     10  C   UNL     1      50.758   3.877  17.934  0.00  0.00    +0.000 C 
ATOM     11  C   UNL     1      49.839   4.896  18.647  0.00  0.00    +0.000 C 
ATOM     12  C   UNL     1      48.588   4.150  19.166  0.00  0.00    +0.000 C 
ATOM     13  C   UNL     1      50.594   5.438  19.875  0.00  0.00    +0.000 C 
ENDBRANCH   1  11
BRANCH   3  14
ATOM     14  C   UNL     1      49.152   7.242  14.231  0.00  0.00    +0.000 C 
BRANCH  14  15
ATOM     15  C   UNL     1      47.821   6.845  13.645  0.00  0.00    +0.000 A 
ATOM     16  C   UNL     1      46.931   7.829  13.197  0.00  0.00    +0.000 A 
ATOM     17  C   UNL     1      45.624   7.496  12.839  0.00  0.00    +0.000 A 
ATOM     18  C   UNL     1      45.193   6.167  12.890  0.00  0.00    +0.000 A 
ATOM     19  C   UNL     1      46.099   5.174  13.283  0.00  0.00    +0.000 A 
ATOM     20  C   UNL     1      47.403   5.509  13.653  0.00  0.00    +0.000 A 
BRANCH  18  21
ATOM     21  C   UNL     1      43.766   5.799  12.562  0.00  0.00    +0.000 C 
BRANCH  21  22
ATOM     22  C   UNL     1      43.440   4.315  12.738  0.00  0.00    +0.000 C 
BRANCH  22  23
ATOM     23  C   UNL     1      43.252   3.587  11.408  0.00  0.00    +0.000 C 
BRANCH  23  24
ATOM     24  N   UNL     1      43.055   2.164  11.656  0.00  0.00    +0.000 NA
ATOM     25  H   UNL     1      42.334   1.801  11.033  0.00  0.00    +0.000 HD
ATOM     26  H   UNL     1      42.709   2.030  12.605  0.00  0.00    +0.000 HD
ENDBRANCH  23  24
ENDBRANCH  22  23
ENDBRANCH  21  22
ENDBRANCH  18  21
ENDBRANCH  14  15
ENDBRANCH   3  14
TORSDOF 7
ENDMDL
MODEL 9
REMARK VINA RESULT:    -5.228      3.544      6.332
REMARK INTER + INTRA:          -8.033
REMARK INTER:                  -7.553
REMARK INTRA:                  -0.480
REMARK UNBOUND:                -0.818
REMARK  Name = 
REMARK  10 active torsions:
REMARK  status: ('A' for Active; 'I' for Inactive)
REMARK    1  A    between atoms: C_1  and  C_2
REMARK    2  A    between atoms: C_2  and  C_3
REMARK    3  A    between atoms: C_2  and  C_4
REMARK    4  A    between atoms: C_2  and  C_5
REMARK    5  A    between atoms: N_7  and  C_8
REMARK    6  A    between atoms: C_8  and  C_9
REMARK    7  A    between atoms: C_12  and  C_13
REMARK    8  A    between atoms: C_13  and  C_14
REMARK    9  A    between atoms: C_14  and  C_15
REMARK   10  A    between atoms: C_15  and  N_16
REMARK                            x       y       z     vdW  Elec       q    Type
REMARK                         _______ _______ _______ _____ _____    ______ ____
ROOT
ATOM      1  C   UNL     1      49.329   5.421  16.919  0.00  0.00    +0.000 A 
ATOM      2  C   UNL     1      48.625   6.291  16.100  0.00  0.00    +0.000 A 
ATOM      3  N   UNL     1      49.496   7.178  15.524  0.00  0.00    +0.000 N 
ATOM      4  C   UNL     1      50.783   6.883  15.907  0.00  0.00    +0.000 A 
ATOM      5  C   UNL     1      52.016   7.455  15.574  0.00  0.00    +0.000 A 
ATOM      6  C   UNL     1      53.142   6.891  16.161  0.00  0.00    +0.000 A 
ATOM      7  C   UNL     1      52.981   5.821  17.025  0.00  0.00    +0.000 A 
ATOM      8  N   UNL     1      51.808   5.255  17.365  0.00  0.00    +0.000 NA
ATOM      9  C   UNL     1      50.707   5.801  16.790  0.00  0.00    +0.000 A 
ENDROOT
BRANCH   1  11
ATOM     10  C   UNL     1      47.180   4.247  17.405  0.00  0.00    +0.000 C 
ATOM     11  C   UNL     1      48.693   4.291  17.720  0.00  0.00    +0.000 C 
ATOM     12  C   UNL     1      48.872   4.548  19.234  0.00  0.00    +0.000 C 
ATOM     13  C   UNL     1      49.283   2.902  17.415  0.00  0.00    +0.000 C 
ENDBRANCH   1  11
BRANCH   3  14
ATOM     14  C   UNL     1      49.091   8.265  14.633  0.00  0.00    +0.000 C 
BRANCH  14  15
ATOM     15  C   UNL     1      47.986   7.799  13.719  0.00  0.00    +0.000 A 
ATOM     16  C   UNL     1      46.824   8.566  13.577  0.00  0.00    +0.000 A 
ATOM     17  C   UNL     1      45.715   8.058  12.898  0.00  0.00    +0.000 A 
ATOM     18  C   UNL     1      45.762   6.787  12.318  0.00  0.00    +0.000 A 
ATOM     19  C   UNL     1      46.944   6.042  12.410  0.00  0.00    +0.000 A 
ATOM     20  C   UNL     1      48.049   6.544  13.099  0.00  0.00    +0.000 A 
BRANCH  18  21
ATOM     21  C   UNL     1      44.552   6.201  11.630  0.00  0.00    +0.000 C 
BRANCH  21  22
ATOM     22  C   UNL     1      44.418   4.683  11.772  0.00  0.00    +0.000 C 
BRANCH  22  23
ATOM     23  C   UNL     1      43.463   4.274  12.892  0.00  0.00    +0.000 C 
BRANCH  23  24
ATOM     24  N   UNL     1      42.655   5.422  13.286  0.00  0.00    +0.000 NA
ATOM     25  H   UNL     1      42.060   5.709  12.509  0.00  0.00    +0.000 HD
ATOM     26  H   UNL     1      43.265   6.213  13.488  0.00  0.00    +0.000 HD
ENDBRANCH  23  24
ENDBRANCH  22  23
ENDBRANCH  21  22
ENDBRANCH  18  21
ENDBRANCH  14  15
ENDBRANCH   3  14
TORSDOF 7
ENDMDL
