MODEL 1
REMARK VINA RESULT:    -8.408      0.000      0.000
REMARK INTER + INTRA:         -11.479
REMARK INTER:                 -10.866
REMARK INTRA:                  -0.613
REMARK UNBOUND:                -0.613
REMARK  Name = 
REMARK  7 active torsions:
REMARK  status: ('A' for Active; 'I' for Inactive)
REMARK    1  A    between atoms: C_1  and  O_2
REMARK    2  A    between atoms: O_2  and  C_3
REMARK    3  A    between atoms: C_6  and  C_7
REMARK    4  A    between atoms: C_7  and  C_8
REMARK    5  A    between atoms: C_7  and  N_9
REMARK    6  A    between atoms: N_9  and  C_10
REMARK    7  A    between atoms: C_13  and  C_14
REMARK                            x       y       z     vdW  Elec       q    Type
REMARK                         _______ _______ _______ _____ _____    ______ ____
ROOT
ATOM      1  N   UNL     1      43.776   4.872   9.858  0.00  0.00    +0.000 N 
ATOM      2  H   UNL     1      44.101   5.828   9.722  0.00  0.00    +0.000 HD
ENDROOT
BRANCH   1   3
ATOM      3  C   UNL     1      44.560   3.969   9.128  0.00  0.00    +0.000 A 
ATOM      4  C   UNL     1      45.564   4.344   8.232  0.00  0.00    +0.000 A 
ATOM      5  C   UNL     1      46.385   3.382   7.635  0.00  0.00    +0.000 A 
ATOM      6  C   UNL     1      46.194   2.047   7.959  0.00  0.00    +0.000 A 
ATOM      7  N   UNL     1      45.242   1.618   8.827  0.00  0.00    +0.000 NA
ATOM      8  C   UNL     1      44.479   2.591   9.391  0.00  0.00    +0.000 A 
BRANCH   6   9
ATOM      9  C   UNL     1      47.088   1.003   7.356  0.00  0.00    +0.000 C 
ATOM     10  N   UNL     1      46.797  -0.291   7.678  0.00  0.00    +0.000 N 
ATOM     11  O   UNL     1      48.031   1.289   6.628  0.00  0.00    +0.000 OA
ATOM     12  H   UNL     1      46.029  -0.494   8.309  0.00  0.00    +0.000 HD
ATOM     13  H   UNL     1      47.399  -1.031   7.345  0.00  0.00    +0.000 HD
ENDBRANCH   6   9
ENDBRANCH   1   3
BRANCH   1  14
ATOM     14  C   UNL     1      43.408   4.624  11.260  0.00  0.00    +0.000 C 
ATOM     15  C   UNL     1      42.295   5.561  11.738  0.00  0.00    +0.000 C 
BRANCH  14  19
ATOM     16  C   UNL     1      46.794   4.942  13.845  0.00  0.00    +0.000 A 
ATOM     17  C   UNL     1      46.379   6.099  13.207  0.00  0.00    +0.000 A 
ATOM     18  C   UNL     1      45.285   6.026  12.341  0.00  0.00    +0.000 A 
ATOM     19  C   UNL     1      44.633   4.800  12.140  0.00  0.00    +0.000 A 
ATOM     20  C   UNL     1      45.144   3.702  12.826  0.00  0.00    +0.000 A 
ATOM     21  N   UNL     1      46.198   3.744  13.665  0.00  0.00    +0.000 NA
BRANCH  16  23
ATOM     22  C   UNL     1      47.596   4.500  15.990  0.00  0.00    +0.000 C 
ATOM     23  O   UNL     1      47.876   5.037  14.696  0.00  0.00    +0.000 OA
ENDBRANCH  16  23
ENDBRANCH  14  19
ENDBRANCH   1  14
TORSDOF 5
ENDMDL
MODEL 2
REMARK VINA RESULT:    -8.172      1.465      1.965
REMARK INTER + INTRA:         -11.174
REMARK INTER:                 -10.463
REMARK INTRA:                  -0.710
REMARK UNBOUND:                -0.613
REMARK  Name = 
REMARK  7 active torsions:
REMARK  status: ('A' for Active; 'I' for Inactive)
REMARK    1  A    between atoms: C_1  and  O_2
REMARK    2  A    between atoms: O_2  and  C_3
REMARK    3  A    between atoms: C_6  and  C_7
REMARK    4  A    between atoms: C_7  and  C_8
REMARK    5  A    between atoms: C_7  and  N_9
REMARK    6  A    between atoms: N_9  and  C_10
REMARK    7  A    between atoms: C_13  and  C_14
REMARK                            x       y       z     vdW  Elec       q    Type
REMARK                         _______ _______ _______ _____ _____    ______ ____
ROOT
ATOM      1  N   UNL     1      43.750   4.804   9.926  0.00  0.00    +0.000 N 
ATOM      2  H   UNL     1      43.871   5.786   9.682  0.00  0.00    +0.000 HD
ENDROOT
BRANCH   1   3
ATOM      3  C   UNL     1      44.701   4.007   9.275  0.00  0.00    +0.000 A 
ATOM      4  C   UNL     1      44.739   2.612   9.342  0.00  0.00    +0.000 A 
ATOM      5  C   UNL     1      45.645   1.883   8.565  0.00  0.00    +0.000 A 
ATOM      6  C   UNL     1      46.498   2.570   7.714  0.00  0.00    +0.000 A 
ATOM      7  N   UNL     1      46.506   3.922   7.597  0.00  0.00    +0.000 NA
ATOM      8  C   UNL     1      45.599   4.585   8.361  0.00  0.00    +0.000 A 
BRANCH   6   9
ATOM      9  C   UNL     1      47.452   1.803   6.846  0.00  0.00    +0.000 C 
ATOM     10  N   UNL     1      48.518   2.506   6.364  0.00  0.00    +0.000 N 
ATOM     11  O   UNL     1      47.284   0.621   6.571  0.00  0.00    +0.000 OA
ATOM     12  H   UNL     1      48.613   3.492   6.582  0.00  0.00    +0.000 HD
ATOM     13  H   UNL     1      49.163   2.055   5.729  0.00  0.00    +0.000 HD
ENDBRANCH   6   9
ENDBRANCH   1   3
BRANCH   1  14
ATOM     14  C   UNL     1      43.445   4.639  11.355  0.00  0.00    +0.000 C 
ATOM     15  C   UNL     1      42.311   5.560  11.813  0.00  0.00    +0.000 C 
BRANCH  14  19
ATOM     16  C   UNL     1      46.979   5.631  13.540  0.00  0.00    +0.000 A 
ATOM     17  C   UNL     1      46.631   4.292  13.484  0.00  0.00    +0.000 A 
ATOM     18  C   UNL     1      45.471   3.935  12.791  0.00  0.00    +0.000 A 
ATOM     19  C   UNL     1      44.694   4.926  12.171  0.00  0.00    +0.000 A 
ATOM     20  C   UNL     1      45.136   6.239  12.303  0.00  0.00    +0.000 A 
ATOM     21  N   UNL     1      46.249   6.611  12.966  0.00  0.00    +0.000 NA
BRANCH  16  23
ATOM     22  C   UNL     1      48.890   6.968  13.561  0.00  0.00    +0.000 C 
ATOM     23  O   UNL     1      48.129   5.960  14.228  0.00  0.00    +0.000 OA
ENDBRANCH  16  23
ENDBRANCH  14  19
ENDBRANCH   1  14
TORSDOF 5
ENDMDL
MODEL 3
REMARK VINA RESULT:    -7.040      1.464      6.228
REMARK INTER + INTRA:          -9.710
REMARK INTER:                  -9.586
REMARK INTRA:                  -0.124
REMARK UNBOUND:                -0.613
REMARK  Name = 
REMARK  7 active torsions:
REMARK  status: ('A' for Active; 'I' for Inactive)
REMARK    1  A    between atoms: C_1  and  O_2
REMARK    2  A    between atoms: O_2  and  C_3
REMARK    3  A    between atoms: C_6  and  C_7
REMARK    4  A    between atoms: C_7  and  C_8
REMARK    5  A    between atoms: C_7  and  N_9
REMARK    6  A    between atoms: N_9  and  C_10
REMARK    7  A    between atoms: C_13  and  C_14
REMARK                            x       y       z     vdW  Elec       q    Type
REMARK                         _______ _______ _______ _____ _____    ______ ____
ROOT
ATOM      1  N   UNL     1      44.037   5.399  10.727  0.00  0.00    +0.000 N 
ATOM      2  H   UNL     1      43.258   5.972  11.051  0.00  0.00    +0.000 HD
ENDROOT
BRANCH   1   3
ATOM      3  C   UNL     1      45.157   5.568  11.551  0.00  0.00    +0.000 A 
ATOM      4  C   UNL     1      46.289   6.307  11.200  0.00  0.00    +0.000 A 
ATOM      5  C   UNL     1      47.313   6.528  12.127  0.00  0.00    +0.000 A 
ATOM      6  C   UNL     1      47.179   6.014  13.407  0.00  0.00    +0.000 A 
ATOM      7  N   UNL     1      46.101   5.294  13.813  0.00  0.00    +0.000 NA
ATOM      8  C   UNL     1      45.127   5.116  12.883  0.00  0.00    +0.000 A 
BRANCH   6   9
ATOM      9  C   UNL     1      48.251   6.272  14.426  0.00  0.00    +0.000 C 
ATOM     10  N   UNL     1      47.923   5.993  15.722  0.00  0.00    +0.000 N 
ATOM     11  O   UNL     1      49.350   6.718  14.122  0.00  0.00    +0.000 OA
ATOM     12  H   UNL     1      46.993   5.656  15.946  0.00  0.00    +0.000 HD
ATOM     13  H   UNL     1      48.586   6.201  16.455  0.00  0.00    +0.000 HD
ENDBRANCH   6   9
ENDBRANCH   1   3
BRANCH   1  14
ATOM     14  C   UNL     1      43.582   4.069  10.296  0.00  0.00    +0.000 C 
ATOM     15  C   UNL     1      43.376   3.118  11.477  0.00  0.00    +0.000 C 
BRANCH  14  19
ATOM     16  C   UNL     1      46.484   2.241   7.747  0.00  0.00    +0.000 A 
ATOM     17  C   UNL     1      46.249   3.594   7.564  0.00  0.00    +0.000 A 
ATOM     18  C   UNL     1      45.294   4.219   8.370  0.00  0.00    +0.000 A 
ATOM     19  C   UNL     1      44.602   3.476   9.339  0.00  0.00    +0.000 A 
ATOM     20  C   UNL     1      44.913   2.123   9.427  0.00  0.00    +0.000 A 
ATOM     21  N   UNL     1      45.829   1.494   8.661  0.00  0.00    +0.000 NA
BRANCH  16  23
ATOM     22  C   UNL     1      47.675   2.391   5.748  0.00  0.00    +0.000 C 
ATOM     23  O   UNL     1      47.432   1.645   6.942  0.00  0.00    +0.000 OA
ENDBRANCH  16  23
ENDBRANCH  14  19
ENDBRANCH   1  14
TORSDOF 5
ENDMDL
MODEL 4
REMARK VINA RESULT:    -6.848      2.148      6.614
REMARK INTER + INTRA:          -9.463
REMARK INTER:                  -9.007
REMARK INTRA:                  -0.456
REMARK UNBOUND:                -0.613
REMARK  Name = 
REMARK  7 active torsions:
REMARK  status: ('A' for Active; 'I' for Inactive)
REMARK    1  A    between atoms: C_1  and  O_2
REMARK    2  A    between atoms: O_2  and  C_3
REMARK    3  A    between atoms: C_6  and  C_7
REMARK    4  A    between atoms: C_7  and  C_8
REMARK    5  A    between atoms: C_7  and  N_9
REMARK    6  A    between atoms: N_9  and  C_10
REMARK    7  A    between atoms: C_13  and  C_14
REMARK                            x       y       z     vdW  Elec       q    Type
REMARK                         _______ _______ _______ _____ _____    ______ ____
ROOT
ATOM      1  N   UNL     1      44.012   5.336  10.118  0.00  0.00    +0.000 N 
ATOM      2  H   UNL     1      43.113   5.816  10.099  0.00  0.00    +0.000 HD
ENDROOT
BRANCH   1   3
ATOM      3  C   UNL     1      44.898   5.970  10.997  0.00  0.00    +0.000 A 
ATOM      4  C   UNL     1      46.286   5.990  10.839  0.00  0.00    +0.000 A 
ATOM      5  C   UNL     1      47.092   6.748  11.694  0.00  0.00    +0.000 A 
ATOM      6  C   UNL     1      46.488   7.493  12.695  0.00  0.00    +0.000 A 
ATOM      7  N   UNL     1      45.146   7.522  12.898  0.00  0.00    +0.000 NA
ATOM      8  C   UNL     1      44.404   6.780  12.035  0.00  0.00    +0.000 A 
BRANCH   6   9
ATOM      9  C   UNL     1      47.334   8.341  13.600  0.00  0.00    +0.000 C 
ATOM     10  N   UNL     1      47.811   7.726  14.721  0.00  0.00    +0.000 N 
ATOM     11  O   UNL     1      47.574   9.518  13.360  0.00  0.00    +0.000 OA
ATOM     12  H   UNL     1      47.568   6.760  14.910  0.00  0.00    +0.000 HD
ATOM     13  H   UNL     1      48.339   8.265  15.394  0.00  0.00    +0.000 HD
ENDBRANCH   6   9
ENDBRANCH   1   3
BRANCH   1  14
ATOM     14  C   UNL     1      43.841   3.875  10.104  0.00  0.00    +0.000 C 
ATOM     15  C   UNL     1      44.060   3.256  11.487  0.00  0.00    +0.000 C 
BRANCH  14  19
ATOM     16  C   UNL     1      46.631   2.001   7.467  0.00  0.00    +0.000 A 
ATOM     17  C   UNL     1      46.382   3.348   7.264  0.00  0.00    +0.000 A 
ATOM     18  C   UNL     1      45.462   3.988   8.098  0.00  0.00    +0.000 A 
ATOM     19  C   UNL     1      44.819   3.264   9.115  0.00  0.00    +0.000 A 
ATOM     20  C   UNL     1      45.140   1.914   9.219  0.00  0.00    +0.000 A 
ATOM     21  N   UNL     1      46.023   1.272   8.427  0.00  0.00    +0.000 NA
BRANCH  16  23
ATOM     22  C   UNL     1      47.913   2.222   5.531  0.00  0.00    +0.000 C 
ATOM     23  O   UNL     1      47.545   1.390   6.632  0.00  0.00    +0.000 OA
ENDBRANCH  16  23
ENDBRANCH  14  19
ENDBRANCH   1  14
TORSDOF 5
ENDMDL
MODEL 5
REMARK VINA RESULT:    -6.587      2.136      6.736
REMARK INTER + INTRA:          -9.125
REMARK INTER:                  -8.512
REMARK INTRA:                  -0.613
REMARK UNBOUND:                -0.613
REMARK  Name = 
REMARK  7 active torsions:
REMARK  status: ('A' for Active; 'I' for Inactive)
REMARK    1  A    between atoms: C_1  and  O_2
REMARK    2  A    between atoms: O_2  and  C_3
REMARK    3  A    between atoms: C_6  and  C_7
REMARK    4  A    between atoms: C_7  and  C_8
REMARK    5  A    between atoms: C_7  and  N_9
REMARK    6  A    between atoms: N_9  and  C_10
REMARK    7  A    between atoms: C_13  and  C_14
REMARK                            x       y       z     vdW  Elec       q    Type
REMARK                         _______ _______ _______ _____ _____    ______ ____
ROOT
ATOM      1  N   UNL     1      44.979   4.524  12.570  0.00  0.00    +0.000 N 
ATOM      2  H   UNL     1      45.096   3.511  12.560  0.00  0.00    +0.000 HD
ENDROOT
BRANCH   1   3
ATOM      3  C   UNL     1      46.125   5.153  13.073  0.00  0.00    +0.000 A 
ATOM      4  C   UNL     1      46.586   6.403  12.653  0.00  0.00    +0.000 A 
ATOM      5  C   UNL     1      47.668   7.017  13.291  0.00  0.00    +0.000 A 
ATOM      6  C   UNL     1      48.270   6.369  14.359  0.00  0.00    +0.000 A 
ATOM      7  N   UNL     1      47.866   5.157  14.820  0.00  0.00    +0.000 NA
ATOM      8  C   UNL     1      46.803   4.607  14.177  0.00  0.00    +0.000 A 
BRANCH   6   9
ATOM      9  C   UNL     1      49.410   7.028  15.079  0.00  0.00    +0.000 C 
ATOM     10  N   UNL     1      49.616   8.347  14.789  0.00  0.00    +0.000 N 
ATOM     11  O   UNL     1      50.123   6.424  15.870  0.00  0.00    +0.000 OA
ATOM     12  H   UNL     1      49.029   8.811  14.105  0.00  0.00    +0.000 HD
ATOM     13  H   UNL     1      50.404   8.826  15.202  0.00  0.00    +0.000 HD
ENDBRANCH   6   9
ENDBRANCH   1   3
BRANCH   1  14
ATOM     14  C   UNL     1      44.301   4.998  11.355  0.00  0.00    +0.000 C 
ATOM     15  C   UNL     1      42.789   4.769  11.411  0.00  0.00    +0.000 C 
BRANCH  14  19
ATOM     16  C   UNL     1      45.920   3.174   7.847  0.00  0.00    +0.000 A 
ATOM     17  C   UNL     1      45.275   2.342   8.747  0.00  0.00    +0.000 A 
ATOM     18  C   UNL     1      44.749   2.904   9.914  0.00  0.00    +0.000 A 
ATOM     19  C   UNL     1      44.879   4.282  10.146  0.00  0.00    +0.000 A 
ATOM     20  C   UNL     1      45.555   5.018   9.176  0.00  0.00    +0.000 A 
ATOM     21  N   UNL     1      46.073   4.500   8.044  0.00  0.00    +0.000 NA
BRANCH  16  23
ATOM     22  C   UNL     1      47.712   2.006   6.918  0.00  0.00    +0.000 C 
ATOM     23  O   UNL     1      46.430   2.597   6.702  0.00  0.00    +0.000 OA
ENDBRANCH  16  23
ENDBRANCH  14  19
ENDBRANCH   1  14
TORSDOF 5
ENDMDL
MODEL 6
REMARK VINA RESULT:    -6.027      3.521      6.227
REMARK INTER + INTRA:          -8.402
REMARK INTER:                  -7.826
REMARK INTRA:                  -0.576
REMARK UNBOUND:                -0.613
REMARK  Name = 
REMARK  7 active torsions:
REMARK  status: ('A' for Active; 'I' for Inactive)
REMARK    1  A    between atoms: C_1  and  O_2
REMARK    2  A    between atoms: O_2  and  C_3
REMARK    3  A    between atoms: C_6  and  C_7
REMARK    4  A    between atoms: C_7  and  C_8
REMARK    5  A    between atoms: C_7  and  N_9
REMARK    6  A    between atoms: N_9  and  C_10
REMARK    7  A    between atoms: C_13  and  C_14
REMARK                            x       y       z     vdW  Elec       q    Type
REMARK                         _______ _______ _______ _____ _____    ______ ____
ROOT
ATOM      1  N   UNL     1      47.689   5.563  15.593  0.00  0.00    +0.000 N 
ATOM      2  H   UNL     1      48.676   5.793  15.478  0.00  0.00    +0.000 HD
ENDROOT
BRANCH   1   3
ATOM      3  C   UNL     1      47.078   5.354  14.350  0.00  0.00    +0.000 A 
ATOM      4  C   UNL     1      46.271   4.256  14.043  0.00  0.00    +0.000 A 
ATOM      5  C   UNL     1      45.599   4.183  12.819  0.00  0.00    +0.000 A 
ATOM      6  C   UNL     1      45.736   5.228  11.918  0.00  0.00    +0.000 A 
ATOM      7  N   UNL     1      46.499   6.324  12.158  0.00  0.00    +0.000 NA
ATOM      8  C   UNL     1      47.121   6.357  13.365  0.00  0.00    +0.000 A 
BRANCH   6   9
ATOM      9  C   UNL     1      44.993   5.184  10.614  0.00  0.00    +0.000 C 
ATOM     10  N   UNL     1      45.712   5.530   9.506  0.00  0.00    +0.000 N 
ATOM     11  O   UNL     1      43.812   4.870  10.543  0.00  0.00    +0.000 OA
ATOM     12  H   UNL     1      46.680   5.816   9.601  0.00  0.00    +0.000 HD
ATOM     13  H   UNL     1      45.248   5.572   8.609  0.00  0.00    +0.000 HD
ENDBRANCH   6   9
ENDBRANCH   1   3
BRANCH   1  14
ATOM     14  C   UNL     1      47.478   4.650  16.726  0.00  0.00    +0.000 C 
ATOM     15  C   UNL     1      47.262   5.402  18.041  0.00  0.00    +0.000 C 
BRANCH  14  19
ATOM     16  C   UNL     1      50.725   1.893  17.059  0.00  0.00    +0.000 A 
ATOM     17  C   UNL     1      50.865   3.111  17.704  0.00  0.00    +0.000 A 
ATOM     18  C   UNL     1      49.829   4.042  17.601  0.00  0.00    +0.000 A 
ATOM     19  C   UNL     1      48.679   3.729  16.859  0.00  0.00    +0.000 A 
ATOM     20  C   UNL     1      48.653   2.480  16.246  0.00  0.00    +0.000 A 
ATOM     21  N   UNL     1      49.639   1.564  16.328  0.00  0.00    +0.000 NA
BRANCH  16  23
ATOM     22  C   UNL     1      52.881   1.534  17.873  0.00  0.00    +0.000 C 
ATOM     23  O   UNL     1      51.760   0.989  17.176  0.00  0.00    +0.000 OA
ENDBRANCH  16  23
ENDBRANCH  14  19
ENDBRANCH   1  14
TORSDOF 5
ENDMDL
MODEL 7
REMARK VINA RESULT:    -5.764      2.068      6.544
REMARK INTER + INTRA:          -8.062
REMARK INTER:                  -7.965
REMARK INTRA:                  -0.097
REMARK UNBOUND:                -0.613
REMARK  Name = 
REMARK  7 active torsions:
REMARK  status: ('A' for Active; 'I' for Inactive)
REMARK    1  A    between atoms: C_1  and  O_2
REMARK    2  A    between atoms: O_2  and  C_3
REMARK    3  A    between atoms: C_6  and  C_7
REMARK    4  A    between atoms: C_7  and  C_8
REMARK    5  A    between atoms: C_7  and  N_9
REMARK    6  A    between atoms: N_9  and  C_10
REMARK    7  A    between atoms: C_13  and  C_14
REMARK                            x       y       z     vdW  Elec       q    Type
REMARK                         _______ _______ _______ _____ _____    ______ ____
ROOT
ATOM      1  N   UNL     1      46.534   6.335  12.422  0.00  0.00    +0.000 N 
ATOM      2  H   UNL     1      46.784   7.313  12.568  0.00  0.00    +0.000 HD
ENDROOT
BRANCH   1   3
ATOM      3  C   UNL     1      47.020   5.535  13.464  0.00  0.00    +0.000 A 
ATOM      4  C   UNL     1      47.477   6.028  14.688  0.00  0.00    +0.000 A 
ATOM      5  C   UNL     1      47.832   5.156  15.722  0.00  0.00    +0.000 A 
ATOM      6  C   UNL     1      47.710   3.790  15.516  0.00  0.00    +0.000 A 
ATOM      7  N   UNL     1      47.266   3.248  14.353  0.00  0.00    +0.000 NA
ATOM      8  C   UNL     1      46.921   4.135  13.383  0.00  0.00    +0.000 A 
BRANCH   6   9
ATOM      9  C   UNL     1      48.052   2.840  16.626  0.00  0.00    +0.000 C 
ATOM     10  N   UNL     1      47.126   2.729  17.624  0.00  0.00    +0.000 N 
ATOM     11  O   UNL     1      49.102   2.209  16.649  0.00  0.00    +0.000 OA
ATOM     12  H   UNL     1      46.281   3.288  17.593  0.00  0.00    +0.000 HD
ATOM     13  H   UNL     1      47.329   2.146  18.424  0.00  0.00    +0.000 HD
ENDBRANCH   6   9
ENDBRANCH   1   3
BRANCH   1  14
ATOM     14  C   UNL     1      45.160   6.202  11.916  0.00  0.00    +0.000 C 
ATOM     15  C   UNL     1      44.236   5.518  12.928  0.00  0.00    +0.000 C 
BRANCH  14  19
ATOM     16  C   UNL     1      45.120   3.789   8.391  0.00  0.00    +0.000 A 
ATOM     17  C   UNL     1      46.009   4.851   8.416  0.00  0.00    +0.000 A 
ATOM     18  C   UNL     1      46.035   5.670   9.547  0.00  0.00    +0.000 A 
ATOM     19  C   UNL     1      45.175   5.403  10.624  0.00  0.00    +0.000 A 
ATOM     20  C   UNL     1      44.318   4.316  10.484  0.00  0.00    +0.000 A 
ATOM     21  N   UNL     1      44.271   3.510   9.403  0.00  0.00    +0.000 NA
BRANCH  16  23
ATOM     22  C   UNL     1      46.355   3.034   6.563  0.00  0.00    +0.000 C 
ATOM     23  O   UNL     1      45.112   2.992   7.264  0.00  0.00    +0.000 OA
ENDBRANCH  16  23
ENDBRANCH  14  19
ENDBRANCH   1  14
TORSDOF 5
ENDMDL
MODEL 8
REMARK VINA RESULT:    -5.413      3.623      6.821
REMARK INTER + INTRA:          -7.608
REMARK INTER:                  -7.444
REMARK INTRA:                  -0.164
REMARK UNBOUND:                -0.613
REMARK  Name = 
REMARK  7 active torsions:
REMARK  status: ('A' for Active; 'I' for Inactive)
REMARK    1  A    between atoms: C_1  and  O_2
REMARK    2  A    between atoms: O_2  and  C_3
REMARK    3  A    between atoms: C_6  and  C_7
REMARK    4  A    between atoms: C_7  and  C_8
REMARK    5  A    between atoms: C_7  and  N_9
REMARK    6  A    between atoms: N_9  and  C_10
REMARK    7  A    between atoms: C_13  and  C_14
REMARK                            x       y       z     vdW  Elec       q    Type
REMARK                         _______ _______ _______ _____ _____    ______ ____
ROOT
ATOM      1  N   UNL     1      48.039   7.163  12.612  0.00  0.00    +0.000 N 
ATOM      2  H   UNL     1      48.835   7.793  12.519  0.00  0.00    +0.000 HD
ENDROOT
BRANCH   1   3
ATOM      3  C   UNL     1      48.127   6.419  13.795  0.00  0.00    +0.000 A 
ATOM      4  C   UNL     1      48.693   6.891  14.982  0.00  0.00    +0.000 A 
ATOM      5  C   UNL     1      48.631   6.130  16.154  0.00  0.00    +0.000 A 
ATOM      6  C   UNL     1      47.985   4.904  16.122  0.00  0.00    +0.000 A 
ATOM      7  N   UNL     1      47.409   4.393  15.004  0.00  0.00    +0.000 NA
ATOM      8  C   UNL     1      47.483   5.173  13.894  0.00  0.00    +0.000 A 
BRANCH   6   9
ATOM      9  C   UNL     1      47.878   4.090  17.379  0.00  0.00    +0.000 C 
ATOM     10  N   UNL     1      46.855   3.187  17.420  0.00  0.00    +0.000 N 
ATOM     11  O   UNL     1      48.650   4.232  18.319  0.00  0.00    +0.000 OA
ATOM     12  H   UNL     1      46.213   3.115  16.639  0.00  0.00    +0.000 HD
ATOM     13  H   UNL     1      46.702   2.652  18.263  0.00  0.00    +0.000 HD
ENDBRANCH   6   9
ENDBRANCH   1   3
BRANCH   1  14
ATOM     14  C   UNL     1      46.788   7.813  12.193  0.00  0.00    +0.000 C 
ATOM     15  C   UNL     1      46.206   8.707  13.291  0.00  0.00    +0.000 C 
BRANCH  14  19
ATOM     16  C   UNL     1      43.868   4.815  11.334  0.00  0.00    +0.000 A 
ATOM     17  C   UNL     1      44.935   4.922  10.457  0.00  0.00    +0.000 A 
ATOM     18  C   UNL     1      45.899   5.904  10.700  0.00  0.00    +0.000 A 
ATOM     19  C   UNL     1      45.772   6.749  11.814  0.00  0.00    +0.000 A 
ATOM     20  C   UNL     1      44.654   6.555  12.620  0.00  0.00    +0.000 A 
ATOM     21  N   UNL     1      43.709   5.617  12.408  0.00  0.00    +0.000 NA
BRANCH  16  23
ATOM     22  C   UNL     1      43.282   2.580  11.654  0.00  0.00    +0.000 C 
ATOM     23  O   UNL     1      42.929   3.837  11.076  0.00  0.00    +0.000 OA
ENDBRANCH  16  23
ENDBRANCH  14  19
ENDBRANCH   1  14
TORSDOF 5
ENDMDL
