MODEL 1
REMARK VINA RESULT:    -6.366      0.000      0.000
REMARK INTER + INTRA:          -9.755
REMARK INTER:                  -8.971
REMARK INTRA:                  -0.784
REMARK UNBOUND:                -0.784
REMARK  Name = 
REMARK  9 active torsions:
REMARK  status: ('A' for Active; 'I' for Inactive)
REMARK    1  A    between atoms: C_1  and  N_2
REMARK    2  A    between atoms: N_2  and  C_3
REMARK    3  A    between atoms: N_2  and  C_4
REMARK    4  A    between atoms: C_4  and  C_5
REMARK    5  A    between atoms: C_5  and  C_6
REMARK    6  A    between atoms: C_6  and  O_7
REMARK    7  A    between atoms: C_6  and  C_17
REMARK    8  A    between atoms: O_7  and  C_8
REMARK    9  A    between atoms: C_11  and  C_12
REMARK                            x       y       z     vdW  Elec       q    Type
REMARK                         _______ _______ _______ _____ _____    ______ ____
ROOT
ATOM      1  C   UNL     1      45.347   5.397  11.620  0.00  0.00    +0.000 C 
ENDROOT
BRANCH   1   2
ATOM      2  C   UNL     1      45.029   6.887  11.946  0.00  0.00    +0.000 C 
ATOM      3  C   UNL     1      44.065   7.536  10.941  0.00  0.00    +0.000 C 
ATOM      4  C   UNL     1      43.852   9.003  11.281  0.00  0.00    +0.000 C 
ATOM      5  O   UNL     1      45.103   9.690  11.322  0.00  0.00    +0.000 OA
ATOM      6  C   UNL     1      45.954   9.195  12.354  0.00  0.00    +0.000 C 
ATOM      7  C   UNL     1      46.301   7.736  12.106  0.00  0.00    +0.000 C 
ENDBRANCH   1   2
BRANCH   1   8
ATOM      8  C   UNL     1      45.219   4.512  12.881  0.00  0.00    +0.000 C 
BRANCH   8   9
ATOM      9  C   UNL     1      46.541   4.059  13.501  0.00  0.00    +0.000 C 
BRANCH   9  11
ATOM     10  C   UNL     1      47.377   3.749  15.774  0.00  0.00    +0.000 C 
ATOM     11  N   UNL     1      46.857   4.699  14.788  0.00  0.00    +0.000 NA
ATOM     12  C   UNL     1      47.821   5.778  14.569  0.00  0.00    +0.000 C 
ENDBRANCH   9  11
ENDBRANCH   8   9
ENDBRANCH   1   8
BRANCH   1  13
ATOM     13  O   UNL     1      44.458   4.911  10.580  0.00  0.00    +0.000 OA
BRANCH  13  14
ATOM     14  C   UNL     1      45.028   4.091   9.639  0.00  0.00    +0.000 A 
ATOM     15  C   UNL     1      44.956   2.702   9.642  0.00  0.00    +0.000 A 
ATOM     16  C   UNL     1      45.701   1.960   8.731  0.00  0.00    +0.000 A 
ATOM     17  C   UNL     1      46.464   2.633   7.790  0.00  0.00    +0.000 A 
ATOM     18  N   UNL     1      46.509   3.993   7.694  0.00  0.00    +0.000 NA
ATOM     19  C   UNL     1      45.785   4.685   8.620  0.00  0.00    +0.000 A 
BRANCH  17  20
ATOM     20  C   UNL     1      47.294   1.825   6.838  0.00  0.00    +0.000 C 
ATOM     21  N   UNL     1      48.328   2.483   6.229  0.00  0.00    +0.000 N 
ATOM     22  O   UNL     1      47.066   0.640   6.604  0.00  0.00    +0.000 OA
ATOM     23  H   UNL     1      48.487   3.462   6.428  0.00  0.00    +0.000 HD
ATOM     24  H   UNL     1      48.904   1.989   5.563  0.00  0.00    +0.000 HD
ENDBRANCH  17  20
ENDBRANCH  13  14
ENDBRANCH   1  13
TORSDOF 7
ENDMDL
MODEL 2
REMARK VINA RESULT:    -5.760      3.436      5.931
REMARK INTER + INTRA:          -8.902
REMARK INTER:                  -7.925
REMARK INTRA:                  -0.977
REMARK UNBOUND:                -0.784
REMARK  Name = 
REMARK  9 active torsions:
REMARK  status: ('A' for Active; 'I' for Inactive)
REMARK    1  A    between atoms: C_1  and  N_2
REMARK    2  A    between atoms: N_2  and  C_3
REMARK    3  A    between atoms: N_2  and  C_4
REMARK    4  A    between atoms: C_4  and  C_5
REMARK    5  A    between atoms: C_5  and  C_6
REMARK    6  A    between atoms: C_6  and  O_7
REMARK    7  A    between atoms: C_6  and  C_17
REMARK    8  A    between atoms: O_7  and  C_8
REMARK    9  A    between atoms: C_11  and  C_12
REMARK                            x       y       z     vdW  Elec       q    Type
REMARK                         _______ _______ _______ _____ _____    ______ ____
ROOT
ATOM      1  C   UNL     1      45.812   6.677  12.223  0.00  0.00    +0.000 C 
ENDROOT
BRANCH   1   2
ATOM      2  C   UNL     1      45.683   8.226  12.338  0.00  0.00    +0.000 C 
ATOM      3  C   UNL     1      44.591   8.813  11.431  0.00  0.00    +0.000 C 
ATOM      4  C   UNL     1      44.566  10.330  11.544  0.00  0.00    +0.000 C 
ATOM      5  O   UNL     1      45.850  10.872  11.234  0.00  0.00    +0.000 OA
ATOM      6  C   UNL     1      46.849  10.452  12.161  0.00  0.00    +0.000 C 
ATOM      7  C   UNL     1      47.023   8.943  12.111  0.00  0.00    +0.000 C 
ENDBRANCH   1   2
BRANCH   1   8
ATOM      8  C   UNL     1      45.426   6.189  10.808  0.00  0.00    +0.000 C 
BRANCH   8   9
ATOM      9  C   UNL     1      44.565   4.927  10.763  0.00  0.00    +0.000 C 
BRANCH   9  11
ATOM     10  C   UNL     1      42.422   5.444  11.814  0.00  0.00    +0.000 C 
ATOM     11  N   UNL     1      43.700   4.742  11.941  0.00  0.00    +0.000 NA
ATOM     12  C   UNL     1      43.471   3.312  12.154  0.00  0.00    +0.000 C 
ENDBRANCH   9  11
ENDBRANCH   8   9
ENDBRANCH   1   8
BRANCH   1  13
ATOM     13  O   UNL     1      47.169   6.264  12.538  0.00  0.00    +0.000 OA
BRANCH  13  14
ATOM     14  C   UNL     1      47.317   5.517  13.679  0.00  0.00    +0.000 A 
ATOM     15  C   UNL     1      47.781   6.005  14.897  0.00  0.00    +0.000 A 
ATOM     16  C   UNL     1      48.043   5.130  15.947  0.00  0.00    +0.000 A 
ATOM     17  C   UNL     1      47.776   3.782  15.774  0.00  0.00    +0.000 A 
ATOM     18  N   UNL     1      47.248   3.262  14.628  0.00  0.00    +0.000 NA
ATOM     19  C   UNL     1      47.028   4.148  13.612  0.00  0.00    +0.000 A 
BRANCH  17  20
ATOM     20  C   UNL     1      48.098   2.843  16.898  0.00  0.00    +0.000 C 
ATOM     21  N   UNL     1      47.217   2.829  17.945  0.00  0.00    +0.000 N 
ATOM     22  O   UNL     1      49.096   2.126  16.894  0.00  0.00    +0.000 OA
ATOM     23  H   UNL     1      46.409   3.439  17.931  0.00  0.00    +0.000 HD
ATOM     24  H   UNL     1      47.399   2.230  18.737  0.00  0.00    +0.000 HD
ENDBRANCH  17  20
ENDBRANCH  13  14
ENDBRANCH   1  13
TORSDOF 7
ENDMDL
MODEL 3
REMARK VINA RESULT:    -5.671      3.173      4.513
REMARK INTER + INTRA:          -8.776
REMARK INTER:                  -7.922
REMARK INTRA:                  -0.854
REMARK UNBOUND:                -0.784
REMARK  Name = 
REMARK  9 active torsions:
REMARK  status: ('A' for Active; 'I' for Inactive)
REMARK    1  A    between atoms: C_1  and  N_2
REMARK    2  A    between atoms: N_2  and  C_3
REMARK    3  A    between atoms: N_2  and  C_4
REMARK    4  A    between atoms: C_4  and  C_5
REMARK    5  A    between atoms: C_5  and  C_6
REMARK    6  A    between atoms: C_6  and  O_7
REMARK    7  A    between atoms: C_6  and  C_17
REMARK    8  A    between atoms: O_7  and  C_8
REMARK    9  A    between atoms: C_11  and  C_12
REMARK                            x       y       z     vdW  Elec       q    Type
REMARK                         _______ _______ _______ _____ _____    ______ ____
ROOT
ATOM      1  C   UNL     1      48.586   6.817  13.275  0.00  0.00    +0.000 C 
ENDROOT
BRANCH   1   2
ATOM      2  C   UNL     1      48.738   8.009  12.282  0.00  0.00    +0.000 C 
ATOM      3  C   UNL     1      50.188   8.491  12.130  0.00  0.00    +0.000 C 
ATOM      4  C   UNL     1      50.252   9.694  11.201  0.00  0.00    +0.000 C 
ATOM      5  O   UNL     1      49.403  10.737  11.680  0.00  0.00    +0.000 OA
ATOM      6  C   UNL     1      48.029  10.351  11.685  0.00  0.00    +0.000 C 
ATOM      7  C   UNL     1      47.807   9.181  12.629  0.00  0.00    +0.000 C 
ENDBRANCH   1   2
BRANCH   1   8
ATOM      8  C   UNL     1      49.428   7.044  14.550  0.00  0.00    +0.000 C 
BRANCH   8   9
ATOM      9  C   UNL     1      48.766   6.610  15.859  0.00  0.00    +0.000 C 
BRANCH   9  11
ATOM     10  C   UNL     1      50.087   5.199  17.350  0.00  0.00    +0.000 C 
ATOM     11  N   UNL     1      49.094   5.237  16.276  0.00  0.00    +0.000 NA
ATOM     12  C   UNL     1      47.870   4.553  16.696  0.00  0.00    +0.000 C 
ENDBRANCH   9  11
ENDBRANCH   8   9
ENDBRANCH   1   8
BRANCH   1  13
ATOM     13  O   UNL     1      47.189   6.635  13.628  0.00  0.00    +0.000 OA
BRANCH  13  14
ATOM     14  C   UNL     1      46.497   5.716  12.879  0.00  0.00    +0.000 A 
ATOM     15  C   UNL     1      45.876   5.983  11.663  0.00  0.00    +0.000 A 
ATOM     16  C   UNL     1      45.069   5.021  11.064  0.00  0.00    +0.000 A 
ATOM     17  C   UNL     1      44.948   3.781  11.670  0.00  0.00    +0.000 A 
ATOM     18  N   UNL     1      45.596   3.441  12.821  0.00  0.00    +0.000 NA
ATOM     19  C   UNL     1      46.358   4.419  13.392  0.00  0.00    +0.000 A 
BRANCH  17  20
ATOM     20  C   UNL     1      44.044   2.765  11.037  0.00  0.00    +0.000 C 
ATOM     21  N   UNL     1      44.478   2.224   9.856  0.00  0.00    +0.000 N 
ATOM     22  O   UNL     1      42.971   2.433  11.535  0.00  0.00    +0.000 OA
ATOM     23  H   UNL     1      45.359   2.523   9.460  0.00  0.00    +0.000 HD
ATOM     24  H   UNL     1      43.896   1.551   9.379  0.00  0.00    +0.000 HD
ENDBRANCH  17  20
ENDBRANCH  13  14
ENDBRANCH   1  13
TORSDOF 7
ENDMDL
MODEL 4
REMARK VINA RESULT:    -5.613      2.632      6.832
REMARK INTER + INTRA:          -8.695
REMARK INTER:                  -7.794
REMARK INTRA:                  -0.901
REMARK UNBOUND:                -0.784
REMARK  Name = 
REMARK  9 active torsions:
REMARK  status: ('A' for Active; 'I' for Inactive)
REMARK    1  A    between atoms: C_1  and  N_2
REMARK    2  A    between atoms: N_2  and  C_3
REMARK    3  A    between atoms: N_2  and  C_4
REMARK    4  A    between atoms: C_4  and  C_5
REMARK    5  A    between atoms: C_5  and  C_6
REMARK    6  A    between atoms: C_6  and  O_7
REMARK    7  A    between atoms: C_6  and  C_17
REMARK    8  A    between atoms: O_7  and  C_8
REMARK    9  A    between atoms: C_11  and  C_12
REMARK                            x       y       z     vdW  Elec       q    Type
REMARK                         _______ _______ _______ _____ _____    ______ ____
ROOT
ATOM      1  C   UNL     1      45.891   5.487  10.491  0.00  0.00    +0.000 C 
ENDROOT
BRANCH   1   2
ATOM      2  C   UNL     1      44.563   4.977  11.129  0.00  0.00    +0.000 C 
ATOM      3  C   UNL     1      43.511   6.081  11.307  0.00  0.00    +0.000 C 
ATOM      4  C   UNL     1      42.272   5.529  11.993  0.00  0.00    +0.000 C 
ATOM      5  O   UNL     1      42.620   4.933  13.243  0.00  0.00    +0.000 OA
ATOM      6  C   UNL     1      43.481   3.807  13.080  0.00  0.00    +0.000 C 
ATOM      7  C   UNL     1      44.799   4.230  12.451  0.00  0.00    +0.000 C 
ENDBRANCH   1   2
BRANCH   1   8
ATOM      8  C   UNL     1      45.947   5.154   8.982  0.00  0.00    +0.000 C 
BRANCH   8   9
ATOM      9  C   UNL     1      44.936   4.112   8.503  0.00  0.00    +0.000 C 
BRANCH   9  11
ATOM     10  C   UNL     1      46.813   3.352   7.139  0.00  0.00    +0.000 C 
ATOM     11  N   UNL     1      45.528   2.998   7.745  0.00  0.00    +0.000 NA
ATOM     12  C   UNL     1      45.688   1.842   8.629  0.00  0.00    +0.000 C 
ENDBRANCH   9  11
ENDBRANCH   8   9
ENDBRANCH   1   8
BRANCH   1  13
ATOM     13  O   UNL     1      46.023   6.919  10.689  0.00  0.00    +0.000 OA
BRANCH  13  14
ATOM     14  C   UNL     1      46.754   7.307  11.784  0.00  0.00    +0.000 A 
ATOM     15  C   UNL     1      47.675   6.506  12.452  0.00  0.00    +0.000 A 
ATOM     16  C   UNL     1      48.246   6.941  13.644  0.00  0.00    +0.000 A 
ATOM     17  C   UNL     1      47.926   8.204  14.114  0.00  0.00    +0.000 A 
ATOM     18  N   UNL     1      47.090   9.060  13.458  0.00  0.00    +0.000 NA
ATOM     19  C   UNL     1      46.530   8.587  12.306  0.00  0.00    +0.000 A 
BRANCH  17  20
ATOM     20  C   UNL     1      48.516   8.649  15.419  0.00  0.00    +0.000 C 
ATOM     21  N   UNL     1      47.646   9.206  16.317  0.00  0.00    +0.000 N 
ATOM     22  O   UNL     1      49.712   8.532  15.677  0.00  0.00    +0.000 OA
ATOM     23  H   UNL     1      46.668   9.303  16.076  0.00  0.00    +0.000 HD
ATOM     24  H   UNL     1      47.997   9.541  17.203  0.00  0.00    +0.000 HD
ENDBRANCH  17  20
ENDBRANCH  13  14
ENDBRANCH   1  13
TORSDOF 7
ENDMDL
MODEL 5
REMARK VINA RESULT:    -5.509      1.025      1.821
REMARK INTER + INTRA:          -8.548
REMARK INTER:                  -7.870
REMARK INTRA:                  -0.677
REMARK UNBOUND:                -0.784
REMARK  Name = 
REMARK  9 active torsions:
REMARK  status: ('A' for Active; 'I' for Inactive)
REMARK    1  A    between atoms: C_1  and  N_2
REMARK    2  A    between atoms: N_2  and  C_3
REMARK    3  A    between atoms: N_2  and  C_4
REMARK    4  A    between atoms: C_4  and  C_5
REMARK    5  A    between atoms: C_5  and  C_6
REMARK    6  A    between atoms: C_6  and  O_7
REMARK    7  A    between atoms: C_6  and  C_17
REMARK    8  A    between atoms: O_7  and  C_8
REMARK    9  A    between atoms: C_11  and  C_12
REMARK                            x       y       z     vdW  Elec       q    Type
REMARK                         _______ _______ _______ _____ _____    ______ ____
ROOT
ATOM      1  C   UNL     1      45.102   6.020  11.276  0.00  0.00    +0.000 C 
ENDROOT
BRANCH   1   2
ATOM      2  C   UNL     1      44.782   7.518  10.986  0.00  0.00    +0.000 C 
ATOM      3  C   UNL     1      45.523   8.489  11.916  0.00  0.00    +0.000 C 
ATOM      4  C   UNL     1      45.114   9.924  11.622  0.00  0.00    +0.000 C 
ATOM      5  O   UNL     1      43.699  10.070  11.735  0.00  0.00    +0.000 OA
ATOM      6  C   UNL     1      42.998   9.284  10.772  0.00  0.00    +0.000 C 
ATOM      7  C   UNL     1      43.272   7.805  10.990  0.00  0.00    +0.000 C 
ENDBRANCH   1   2
BRANCH   1   8
ATOM      8  C   UNL     1      44.725   5.642  12.726  0.00  0.00    +0.000 C 
BRANCH   8   9
ATOM      9  C   UNL     1      45.897   5.551  13.705  0.00  0.00    +0.000 C 
BRANCH   9  11
ATOM     10  C   UNL     1      46.487   3.234  13.208  0.00  0.00    +0.000 C 
ATOM     11  N   UNL     1      46.129   4.202  14.247  0.00  0.00    +0.000 NA
ATOM     12  C   UNL     1      47.180   4.262  15.264  0.00  0.00    +0.000 C 
ENDBRANCH   9  11
ENDBRANCH   8   9
ENDBRANCH   1   8
BRANCH   1  13
ATOM     13  O   UNL     1      44.393   5.167  10.339  0.00  0.00    +0.000 OA
BRANCH  13  14
ATOM     14  C   UNL     1      45.177   4.438   9.482  0.00  0.00    +0.000 A 
ATOM     15  C   UNL     1      46.046   4.980   8.540  0.00  0.00    +0.000 A 
ATOM     16  C   UNL     1      46.677   4.155   7.614  0.00  0.00    +0.000 A 
ATOM     17  C   UNL     1      46.469   2.787   7.689  0.00  0.00    +0.000 A 
ATOM     18  N   UNL     1      45.689   2.197   8.640  0.00  0.00    +0.000 NA
ATOM     19  C   UNL     1      45.068   3.041   9.515  0.00  0.00    +0.000 A 
BRANCH  17  20
ATOM     20  C   UNL     1      47.123   1.911   6.662  0.00  0.00    +0.000 C 
ATOM     21  N   UNL     1      47.833   2.553   5.684  0.00  0.00    +0.000 N 
ATOM     22  O   UNL     1      47.028   0.686   6.682  0.00  0.00    +0.000 OA
ATOM     23  H   UNL     1      47.884   3.563   5.681  0.00  0.00    +0.000 HD
ATOM     24  H   UNL     1      48.274   2.009   4.956  0.00  0.00    +0.000 HD
ENDBRANCH  17  20
ENDBRANCH  13  14
ENDBRANCH   1  13
TORSDOF 7
ENDMDL
MODEL 6
REMARK VINA RESULT:    -5.431      2.318      3.269
REMARK INTER + INTRA:          -8.439
REMARK INTER:                  -7.675
REMARK INTRA:                  -0.764
REMARK UNBOUND:                -0.784
REMARK  Name = 
REMARK  9 active torsions:
REMARK  status: ('A' for Active; 'I' for Inactive)
REMARK    1  A    between atoms: C_1  and  N_2
REMARK    2  A    between atoms: N_2  and  C_3
REMARK    3  A    between atoms: N_2  and  C_4
REMARK    4  A    between atoms: C_4  and  C_5
REMARK    5  A    between atoms: C_5  and  C_6
REMARK    6  A    between atoms: C_6  and  O_7
REMARK    7  A    between atoms: C_6  and  C_17
REMARK    8  A    between atoms: O_7  and  C_8
REMARK    9  A    between atoms: C_11  and  C_12
REMARK                            x       y       z     vdW  Elec       q    Type
REMARK                         _______ _______ _______ _____ _____    ______ ____
ROOT
ATOM      1  C   UNL     1      47.503   6.305  13.457  0.00  0.00    +0.000 C 
ENDROOT
BRANCH   1   2
ATOM      2  C   UNL     1      48.065   7.717  13.111  0.00  0.00    +0.000 C 
ATOM      3  C   UNL     1      46.981   8.802  13.041  0.00  0.00    +0.000 C 
ATOM      4  C   UNL     1      47.590  10.136  12.636  0.00  0.00    +0.000 C 
ATOM      5  O   UNL     1      48.282  10.009  11.394  0.00  0.00    +0.000 OA
ATOM      6  C   UNL     1      49.389   9.113  11.485  0.00  0.00    +0.000 C 
ATOM      7  C   UNL     1      48.914   7.711  11.830  0.00  0.00    +0.000 C 
ENDBRANCH   1   2
BRANCH   1   8
ATOM      8  C   UNL     1      47.862   5.902  14.905  0.00  0.00    +0.000 C 
BRANCH   8   9
ATOM      9  C   UNL     1      47.450   4.486  15.312  0.00  0.00    +0.000 C 
BRANCH   9  11
ATOM     10  C   UNL     1      49.016   4.972  17.122  0.00  0.00    +0.000 C 
ATOM     11  N   UNL     1      48.165   3.963  16.488  0.00  0.00    +0.000 NA
ATOM     12  C   UNL     1      47.196   3.442  17.453  0.00  0.00    +0.000 C 
ENDBRANCH   9  11
ENDBRANCH   8   9
ENDBRANCH   1   8
BRANCH   1  13
ATOM     13  O   UNL     1      46.062   6.283  13.277  0.00  0.00    +0.000 OA
BRANCH  13  14
ATOM     14  C   UNL     1      45.592   5.430  12.310  0.00  0.00    +0.000 A 
ATOM     15  C   UNL     1      45.143   4.134  12.540  0.00  0.00    +0.000 A 
ATOM     16  C   UNL     1      44.835   3.300  11.470  0.00  0.00    +0.000 A 
ATOM     17  C   UNL     1      44.929   3.805  10.183  0.00  0.00    +0.000 A 
ATOM     18  N   UNL     1      45.289   5.091   9.906  0.00  0.00    +0.000 NA
ATOM     19  C   UNL     1      45.607   5.870  10.980  0.00  0.00    +0.000 A 
BRANCH  17  20
ATOM     20  C   UNL     1      44.633   2.886   9.036  0.00  0.00    +0.000 C 
ATOM     21  N   UNL     1      44.443   3.482   7.818  0.00  0.00    +0.000 N 
ATOM     22  O   UNL     1      44.556   1.666   9.168  0.00  0.00    +0.000 OA
ATOM     23  H   UNL     1      44.498   4.489   7.737  0.00  0.00    +0.000 HD
ATOM     24  H   UNL     1      44.220   2.909   7.017  0.00  0.00    +0.000 HD
ENDBRANCH  17  20
ENDBRANCH  13  14
ENDBRANCH   1  13
TORSDOF 7
ENDMDL
MODEL 7
REMARK VINA RESULT:    -5.381      3.868      6.388
REMARK INTER + INTRA:          -8.368
REMARK INTER:                  -7.447
REMARK INTRA:                  -0.922
REMARK UNBOUND:                -0.784
REMARK  Name = 
REMARK  9 active torsions:
REMARK  status: ('A' for Active; 'I' for Inactive)
REMARK    1  A    between atoms: C_1  and  N_2
REMARK    2  A    between atoms: N_2  and  C_3
REMARK    3  A    between atoms: N_2  and  C_4
REMARK    4  A    between atoms: C_4  and  C_5
REMARK    5  A    between atoms: C_5  and  C_6
REMARK    6  A    between atoms: C_6  and  O_7
REMARK    7  A    between atoms: C_6  and  C_17
REMARK    8  A    between atoms: O_7  and  C_8
REMARK    9  A    between atoms: C_11  and  C_12
REMARK                            x       y       z     vdW  Elec       q    Type
REMARK                         _______ _______ _______ _____ _____    ______ ____
ROOT
ATOM      1  C   UNL     1      48.078   6.116  15.228  0.00  0.00    +0.000 C 
ENDROOT
BRANCH   1   2
ATOM      2  C   UNL     1      48.543   5.147  16.357  0.00  0.00    +0.000 C 
ATOM      3  C   UNL     1      47.402   4.301  16.940  0.00  0.00    +0.000 C 
ATOM      4  C   UNL     1      47.913   3.430  18.077  0.00  0.00    +0.000 C 
ATOM      5  O   UNL     1      48.530   4.237  19.081  0.00  0.00    +0.000 OA
ATOM      6  C   UNL     1      49.685   4.915  18.591  0.00  0.00    +0.000 C 
ATOM      7  C   UNL     1      49.307   5.875  17.475  0.00  0.00    +0.000 C 
ENDBRANCH   1   2
BRANCH   1   8
ATOM      8  C   UNL     1      48.872   7.441  15.271  0.00  0.00    +0.000 C 
BRANCH   8   9
ATOM      9  C   UNL     1      49.880   7.638  14.138  0.00  0.00    +0.000 C 
BRANCH   9  11
ATOM     10  C   UNL     1      50.433   9.796  13.139  0.00  0.00    +0.000 C 
ATOM     11  N   UNL     1      49.497   8.671  13.160  0.00  0.00    +0.000 NA
ATOM     12  C   UNL     1      49.403   8.067  11.830  0.00  0.00    +0.000 C 
ENDBRANCH   9  11
ENDBRANCH   8   9
ENDBRANCH   1   8
BRANCH   1  13
ATOM     13  O   UNL     1      48.237   5.483  13.930  0.00  0.00    +0.000 OA
BRANCH  13  14
ATOM     14  C   UNL     1      47.074   5.166  13.273  0.00  0.00    +0.000 A 
ATOM     15  C   UNL     1      46.311   6.059  12.527  0.00  0.00    +0.000 A 
ATOM     16  C   UNL     1      45.069   5.674  12.033  0.00  0.00    +0.000 A 
ATOM     17  C   UNL     1      44.640   4.374  12.247  0.00  0.00    +0.000 A 
ATOM     18  N   UNL     1      45.382   3.437  12.905  0.00  0.00    +0.000 NA
ATOM     19  C   UNL     1      46.584   3.860  13.396  0.00  0.00    +0.000 A 
BRANCH  17  20
ATOM     20  C   UNL     1      43.283   3.980  11.745  0.00  0.00    +0.000 C 
ATOM     21  N   UNL     1      42.335   4.967  11.730  0.00  0.00    +0.000 N 
ATOM     22  O   UNL     1      43.022   2.839  11.371  0.00  0.00    +0.000 OA
ATOM     23  H   UNL     1      42.570   5.896  12.055  0.00  0.00    +0.000 HD
ATOM     24  H   UNL     1      41.399   4.749  11.420  0.00  0.00    +0.000 HD
ENDBRANCH  17  20
ENDBRANCH  13  14
ENDBRANCH   1  13
TORSDOF 7
ENDMDL
MODEL 8
REMARK VINA RESULT:    -5.355      3.798      6.921
REMARK INTER + INTRA:          -8.331
REMARK INTER:                  -7.435
REMARK INTRA:                  -0.896
REMARK UNBOUND:                -0.784
REMARK  Name = 
REMARK  9 active torsions:
REMARK  status: ('A' for Active; 'I' for Inactive)
REMARK    1  A    between atoms: C_1  and  N_2
REMARK    2  A    between atoms: N_2  and  C_3
REMARK    3  A    between atoms: N_2  and  C_4
REMARK    4  A    between atoms: C_4  and  C_5
REMARK    5  A    between atoms: C_5  and  C_6
REMARK    6  A    between atoms: C_6  and  O_7
REMARK    7  A    between atoms: C_6  and  C_17
REMARK    8  A    between atoms: O_7  and  C_8
REMARK    9  A    between atoms: C_11  and  C_12
REMARK                            x       y       z     vdW  Elec       q    Type
REMARK                         _______ _______ _______ _____ _____    ______ ____
ROOT
ATOM      1  C   UNL     1      46.777   5.741  12.501  0.00  0.00    +0.000 C 
ENDROOT
BRANCH   1   2
ATOM      2  C   UNL     1      45.403   5.131  12.088  0.00  0.00    +0.000 C 
ATOM      3  C   UNL     1      45.164   5.144  10.571  0.00  0.00    +0.000 C 
ATOM      4  C   UNL     1      43.783   4.597  10.246  0.00  0.00    +0.000 C 
ATOM      5  O   UNL     1      42.780   5.339  10.939  0.00  0.00    +0.000 OA
ATOM      6  C   UNL     1      42.900   5.213  12.354  0.00  0.00    +0.000 C 
ATOM      7  C   UNL     1      44.226   5.783  12.830  0.00  0.00    +0.000 C 
ENDBRANCH   1   2
BRANCH   1   8
ATOM      8  C   UNL     1      47.197   6.871  11.534  0.00  0.00    +0.000 C 
BRANCH   8   9
ATOM      9  C   UNL     1      48.302   7.795  12.047  0.00  0.00    +0.000 C 
BRANCH   9  11
ATOM     10  C   UNL     1      46.422   9.346  12.190  0.00  0.00    +0.000 C 
ATOM     11  N   UNL     1      47.876   9.188  12.259  0.00  0.00    +0.000 NA
ATOM     12  C   UNL     1      48.374   9.655  13.554  0.00  0.00    +0.000 C 
ENDBRANCH   9  11
ENDBRANCH   8   9
ENDBRANCH   1   8
BRANCH   1  13
ATOM     13  O   UNL     1      46.709   6.250  13.860  0.00  0.00    +0.000 OA
BRANCH  13  14
ATOM     14  C   UNL     1      47.362   5.506  14.810  0.00  0.00    +0.000 A 
ATOM     15  C   UNL     1      46.994   4.226  15.213  0.00  0.00    +0.000 A 
ATOM     16  C   UNL     1      47.629   3.623  16.294  0.00  0.00    +0.000 A 
ATOM     17  C   UNL     1      48.667   4.296  16.917  0.00  0.00    +0.000 A 
ATOM     18  N   UNL     1      49.119   5.518  16.514  0.00  0.00    +0.000 NA
ATOM     19  C   UNL     1      48.455   6.088  15.466  0.00  0.00    +0.000 A 
BRANCH  17  20
ATOM     20  C   UNL     1      49.318   3.655  18.106  0.00  0.00    +0.000 C 
ATOM     21  N   UNL     1      48.477   3.222  19.096  0.00  0.00    +0.000 N 
ATOM     22  O   UNL     1      50.537   3.524  18.202  0.00  0.00    +0.000 OA
ATOM     23  H   UNL     1      47.479   3.353  18.999  0.00  0.00    +0.000 HD
ATOM     24  H   UNL     1      48.867   2.803  19.927  0.00  0.00    +0.000 HD
ENDBRANCH  17  20
ENDBRANCH  13  14
ENDBRANCH   1  13
TORSDOF 7
ENDMDL
MODEL 9
REMARK VINA RESULT:    -5.300      3.673      7.518
REMARK INTER + INTRA:          -8.253
REMARK INTER:                  -7.411
REMARK INTRA:                  -0.843
REMARK UNBOUND:                -0.784
REMARK  Name = 
REMARK  9 active torsions:
REMARK  status: ('A' for Active; 'I' for Inactive)
REMARK    1  A    between atoms: C_1  and  N_2
REMARK    2  A    between atoms: N_2  and  C_3
REMARK    3  A    between atoms: N_2  and  C_4
REMARK    4  A    between atoms: C_4  and  C_5
REMARK    5  A    between atoms: C_5  and  C_6
REMARK    6  A    between atoms: C_6  and  O_7
REMARK    7  A    between atoms: C_6  and  C_17
REMARK    8  A    between atoms: O_7  and  C_8
REMARK    9  A    between atoms: C_11  and  C_12
REMARK                            x       y       z     vdW  Elec       q    Type
REMARK                         _______ _______ _______ _____ _____    ______ ____
ROOT
ATOM      1  C   UNL     1      46.422   5.418  13.616  0.00  0.00    +0.000 C 
ENDROOT
BRANCH   1   2
ATOM      2  C   UNL     1      46.723   6.618  12.668  0.00  0.00    +0.000 C 
ATOM      3  C   UNL     1      48.221   6.925  12.532  0.00  0.00    +0.000 C 
ATOM      4  C   UNL     1      48.436   8.144  11.648  0.00  0.00    +0.000 C 
ATOM      5  O   UNL     1      47.718   9.264  12.166  0.00  0.00    +0.000 OA
ATOM      6  C   UNL     1      46.308   9.050  12.158  0.00  0.00    +0.000 C 
ATOM      7  C   UNL     1      45.941   7.882  13.059  0.00  0.00    +0.000 C 
ENDBRANCH   1   2
BRANCH   1   8
ATOM      8  C   UNL     1      45.573   4.343  12.901  0.00  0.00    +0.000 C 
BRANCH   8   9
ATOM      9  C   UNL     1      44.061   4.473  13.086  0.00  0.00    +0.000 C 
BRANCH   9  11
ATOM     10  C   UNL     1      42.958   5.860  11.407  0.00  0.00    +0.000 C 
ATOM     11  N   UNL     1      43.297   4.499  11.828  0.00  0.00    +0.000 NA
ATOM     12  C   UNL     1      44.064   3.823  10.781  0.00  0.00    +0.000 C 
ENDBRANCH   9  11
ENDBRANCH   8   9
ENDBRANCH   1   8
BRANCH   1  13
ATOM     13  O   UNL     1      47.664   4.834  14.093  0.00  0.00    +0.000 OA
BRANCH  13  14
ATOM     14  C   UNL     1      47.804   4.757  15.456  0.00  0.00    +0.000 A 
ATOM     15  C   UNL     1      47.252   3.765  16.259  0.00  0.00    +0.000 A 
ATOM     16  C   UNL     1      47.323   3.867  17.645  0.00  0.00    +0.000 A 
ATOM     17  C   UNL     1      48.003   4.939  18.200  0.00  0.00    +0.000 A 
ATOM     18  N   UNL     1      48.629   5.897  17.458  0.00  0.00    +0.000 NA
ATOM     19  C   UNL     1      48.515   5.776  16.103  0.00  0.00    +0.000 A 
BRANCH  17  20
ATOM     20  C   UNL     1      48.040   5.060  19.695  0.00  0.00    +0.000 C 
ATOM     21  N   UNL     1      48.527   3.978  20.377  0.00  0.00    +0.000 N 
ATOM     22  O   UNL     1      47.652   6.065  20.286  0.00  0.00    +0.000 OA
ATOM     23  H   UNL     1      48.827   3.157  19.868  0.00  0.00    +0.000 HD
ATOM     24  H   UNL     1      48.553   4.001  21.386  0.00  0.00    +0.000 HD
ENDBRANCH  17  20
ENDBRANCH  13  14
ENDBRANCH   1  13
TORSDOF 7
ENDMDL
