MODEL 1
REMARK VINA RESULT:    -8.129      0.000      0.000
REMARK INTER + INTRA:         -11.311
REMARK INTER:                 -10.505
REMARK INTRA:                  -0.806
REMARK UNBOUND:                -0.806
REMARK  Name = 
REMARK  5 active torsions:
REMARK  status: ('A' for Active; 'I' for Inactive)
REMARK    1  A    between atoms: C_2  and  C_3
REMARK    2  A    between atoms: C_6  and  N_7
REMARK    3  A    between atoms: N_7  and  C_8
REMARK    4  A    between atoms: C_8  and  C_9
REMARK    5  A    between atoms: C_14  and  C_15
REMARK                            x       y       z     vdW  Elec       q    Type
REMARK                         _______ _______ _______ _____ _____    ______ ____
ROOT
ATOM      1  C   UNL     1      44.882   4.992  11.950  0.00  0.00    +0.000 A 
ATOM      2  C   UNL     1      45.364   4.160  12.967  0.00  0.00    +0.000 A 
ATOM      3  C   UNL     1      46.487   4.535  13.699  0.00  0.00    +0.000 A 
ATOM      4  C   UNL     1      47.132   5.740  13.427  0.00  0.00    +0.000 A 
ATOM      5  F   UNL     1      48.214   6.033  14.166  0.00  0.00    +0.000 F 
ATOM      6  C   UNL     1      46.686   6.619  12.424  0.00  0.00    +0.000 A 
ATOM      7  C   UNL     1      45.553   6.205  11.689  0.00  0.00    +0.000 A 
ENDROOT
BRANCH   6   8
ATOM      8  C   UNL     1      47.356   7.916  12.149  0.00  0.00    +0.000 A 
ATOM      9  C   UNL     1      46.678   9.144  12.297  0.00  0.00    +0.000 A 
ATOM     10  C   UNL     1      47.296  10.369  12.010  0.00  0.00    +0.000 A 
ATOM     11  C   UNL     1      48.608  10.393  11.552  0.00  0.00    +0.000 A 
ATOM     12  C   UNL     1      49.297   9.198  11.416  0.00  0.00    +0.000 A 
ATOM     13  F   UNL     1      50.562   9.214  10.978  0.00  0.00    +0.000 F 
ATOM     14  C   UNL     1      48.695   7.980  11.724  0.00  0.00    +0.000 A 
ENDBRANCH   6   8
BRANCH   1  15
ATOM     15  C   UNL     1      43.598   4.664  11.217  0.00  0.00    +0.000 C 
BRANCH  15  16
ATOM     16  N   UNL     1      43.791   4.730   9.785  0.00  0.00    +0.000 N 
ATOM     17  H   UNL     1      43.517   5.581   9.304  0.00  0.00    +0.000 HD
BRANCH  16  21
ATOM     18  C   UNL     1      46.578   2.687   7.585  0.00  0.00    +0.000 A 
ATOM     19  C   UNL     1      46.432   4.060   7.514  0.00  0.00    +0.000 A 
ATOM     20  N   UNL     1      45.531   4.747   8.271  0.00  0.00    +0.000 NA
ATOM     21  C   UNL     1      44.743   4.022   9.095  0.00  0.00    +0.000 A 
ATOM     22  C   UNL     1      44.899   2.630   9.135  0.00  0.00    +0.000 A 
ATOM     23  N   UNL     1      45.813   1.935   8.405  0.00  0.00    +0.000 NA
BRANCH  18  25
ATOM     24  N   UNL     1      48.357   1.479   6.130  0.00  0.00    +0.000 NA
ATOM     25  C   UNL     1      47.556   2.005   6.795  0.00  0.00    +0.000 C 
ENDBRANCH  18  25
ENDBRANCH  16  21
ENDBRANCH  15  16
ENDBRANCH   1  15
TORSDOF 5
ENDMDL
MODEL 2
REMARK VINA RESULT:    -7.622      3.995      7.138
REMARK INTER + INTRA:         -10.656
REMARK INTER:                 -10.194
REMARK INTRA:                  -0.461
REMARK UNBOUND:                -0.806
REMARK  Name = 
REMARK  5 active torsions:
REMARK  status: ('A' for Active; 'I' for Inactive)
REMARK    1  A    between atoms: C_2  and  C_3
REMARK    2  A    between atoms: C_6  and  N_7
REMARK    3  A    between atoms: N_7  and  C_8
REMARK    4  A    between atoms: C_8  and  C_9
REMARK    5  A    between atoms: C_14  and  C_15
REMARK                            x       y       z     vdW  Elec       q    Type
REMARK                         _______ _______ _______ _____ _____    ______ ____
ROOT
ATOM      1  C   UNL     1      44.439   5.607  10.973  0.00  0.00    +0.000 A 
ATOM      2  C   UNL     1      43.555   4.836  11.735  0.00  0.00    +0.000 A 
ATOM      3  C   UNL     1      43.363   3.491  11.430  0.00  0.00    +0.000 A 
ATOM      4  C   UNL     1      44.055   2.907  10.370  0.00  0.00    +0.000 A 
ATOM      5  F   UNL     1      43.814   1.609  10.128  0.00  0.00    +0.000 F 
ATOM      6  C   UNL     1      44.963   3.631   9.578  0.00  0.00    +0.000 A 
ATOM      7  C   UNL     1      45.125   4.995   9.902  0.00  0.00    +0.000 A 
ENDROOT
BRANCH   6   8
ATOM      8  C   UNL     1      45.720   3.004   8.464  0.00  0.00    +0.000 A 
ATOM      9  C   UNL     1      46.110   3.742   7.327  0.00  0.00    +0.000 A 
ATOM     10  C   UNL     1      46.798   3.148   6.261  0.00  0.00    +0.000 A 
ATOM     11  C   UNL     1      47.101   1.792   6.300  0.00  0.00    +0.000 A 
ATOM     12  C   UNL     1      46.742   1.053   7.416  0.00  0.00    +0.000 A 
ATOM     13  F   UNL     1      47.034  -0.253   7.462  0.00  0.00    +0.000 F 
ATOM     14  C   UNL     1      46.081   1.644   8.490  0.00  0.00    +0.000 A 
ENDBRANCH   6   8
BRANCH   1  15
ATOM     15  C   UNL     1      44.752   7.039  11.353  0.00  0.00    +0.000 C 
BRANCH  15  16
ATOM     16  N   UNL     1      45.116   7.134  12.750  0.00  0.00    +0.000 N 
ATOM     17  H   UNL     1      44.487   6.729  13.436  0.00  0.00    +0.000 HD
BRANCH  16  21
ATOM     18  C   UNL     1      48.986   7.558  14.023  0.00  0.00    +0.000 A 
ATOM     19  C   UNL     1      48.102   8.619  13.956  0.00  0.00    +0.000 A 
ATOM     20  N   UNL     1      46.803   8.475  13.568  0.00  0.00    +0.000 NA
ATOM     21  C   UNL     1      46.403   7.235  13.213  0.00  0.00    +0.000 A 
ATOM     22  C   UNL     1      47.324   6.180  13.272  0.00  0.00    +0.000 A 
ATOM     23  N   UNL     1      48.614   6.304  13.684  0.00  0.00    +0.000 NA
BRANCH  18  25
ATOM     24  N   UNL     1      51.443   7.899  14.786  0.00  0.00    +0.000 NA
ATOM     25  C   UNL     1      50.334   7.743  14.463  0.00  0.00    +0.000 C 
ENDBRANCH  18  25
ENDBRANCH  16  21
ENDBRANCH  15  16
ENDBRANCH   1  15
TORSDOF 5
ENDMDL
MODEL 3
REMARK VINA RESULT:    -7.598      3.957      7.254
REMARK INTER + INTRA:         -10.624
REMARK INTER:                 -10.140
REMARK INTRA:                  -0.484
REMARK UNBOUND:                -0.806
REMARK  Name = 
REMARK  5 active torsions:
REMARK  status: ('A' for Active; 'I' for Inactive)
REMARK    1  A    between atoms: C_2  and  C_3
REMARK    2  A    between atoms: C_6  and  N_7
REMARK    3  A    between atoms: N_7  and  C_8
REMARK    4  A    between atoms: C_8  and  C_9
REMARK    5  A    between atoms: C_14  and  C_15
REMARK                            x       y       z     vdW  Elec       q    Type
REMARK                         _______ _______ _______ _____ _____    ______ ____
ROOT
ATOM      1  C   UNL     1      44.602   5.592  11.017  0.00  0.00    +0.000 A 
ATOM      2  C   UNL     1      43.659   4.855  11.742  0.00  0.00    +0.000 A 
ATOM      3  C   UNL     1      43.388   3.535  11.391  0.00  0.00    +0.000 A 
ATOM      4  C   UNL     1      44.058   2.942  10.322  0.00  0.00    +0.000 A 
ATOM      5  F   UNL     1      43.740   1.670  10.034  0.00  0.00    +0.000 F 
ATOM      6  C   UNL     1      45.022   3.632   9.566  0.00  0.00    +0.000 A 
ATOM      7  C   UNL     1      45.265   4.972   9.937  0.00  0.00    +0.000 A 
ENDROOT
BRANCH   6   8
ATOM      8  C   UNL     1      45.756   2.994   8.443  0.00  0.00    +0.000 A 
ATOM      9  C   UNL     1      46.149   3.728   7.304  0.00  0.00    +0.000 A 
ATOM     10  C   UNL     1      46.814   3.123   6.229  0.00  0.00    +0.000 A 
ATOM     11  C   UNL     1      47.091   1.762   6.262  0.00  0.00    +0.000 A 
ATOM     12  C   UNL     1      46.729   1.027   7.379  0.00  0.00    +0.000 A 
ATOM     13  F   UNL     1      46.995  -0.285   7.419  0.00  0.00    +0.000 F 
ATOM     14  C   UNL     1      46.090   1.627   8.462  0.00  0.00    +0.000 A 
ENDBRANCH   6   8
BRANCH   1  15
ATOM     15  C   UNL     1      44.999   6.989  11.448  0.00  0.00    +0.000 C 
BRANCH  15  16
ATOM     16  N   UNL     1      46.430   7.085  11.633  0.00  0.00    +0.000 N 
ATOM     17  H   UNL     1      46.952   7.697  11.014  0.00  0.00    +0.000 HD
BRANCH  16  21
ATOM     18  C   UNL     1      48.495   6.511  15.124  0.00  0.00    +0.000 A 
ATOM     19  C   UNL     1      48.371   7.751  14.525  0.00  0.00    +0.000 A 
ATOM     20  N   UNL     1      47.655   7.952  13.383  0.00  0.00    +0.000 NA
ATOM     21  C   UNL     1      47.076   6.867  12.823  0.00  0.00    +0.000 A 
ATOM     22  C   UNL     1      47.232   5.618  13.440  0.00  0.00    +0.000 A 
ATOM     23  N   UNL     1      47.921   5.408  14.594  0.00  0.00    +0.000 NA
BRANCH  18  25
ATOM     24  N   UNL     1      49.801   6.209  17.347  0.00  0.00    +0.000 NA
ATOM     25  C   UNL     1      49.232   6.344  16.338  0.00  0.00    +0.000 C 
ENDBRANCH  18  25
ENDBRANCH  16  21
ENDBRANCH  15  16
ENDBRANCH   1  15
TORSDOF 5
ENDMDL
MODEL 4
REMARK VINA RESULT:    -6.847      2.316      4.434
REMARK INTER + INTRA:          -9.654
REMARK INTER:                  -9.463
REMARK INTRA:                  -0.191
REMARK UNBOUND:                -0.806
REMARK  Name = 
REMARK  5 active torsions:
REMARK  status: ('A' for Active; 'I' for Inactive)
REMARK    1  A    between atoms: C_2  and  C_3
REMARK    2  A    between atoms: C_6  and  N_7
REMARK    3  A    between atoms: N_7  and  C_8
REMARK    4  A    between atoms: C_8  and  C_9
REMARK    5  A    between atoms: C_14  and  C_15
REMARK                            x       y       z     vdW  Elec       q    Type
REMARK                         _______ _______ _______ _____ _____    ______ ____
ROOT
ATOM      1  C   UNL     1      45.612   5.784  12.313  0.00  0.00    +0.000 A 
ATOM      2  C   UNL     1      46.486   6.611  11.600  0.00  0.00    +0.000 A 
ATOM      3  C   UNL     1      47.721   6.954  12.147  0.00  0.00    +0.000 A 
ATOM      4  C   UNL     1      48.091   6.470  13.400  0.00  0.00    +0.000 A 
ATOM      5  F   UNL     1      49.291   6.848  13.869  0.00  0.00    +0.000 F 
ATOM      6  C   UNL     1      47.256   5.628  14.155  0.00  0.00    +0.000 A 
ATOM      7  C   UNL     1      46.006   5.310  13.582  0.00  0.00    +0.000 A 
ENDROOT
BRANCH   6   8
ATOM      8  C   UNL     1      47.660   5.090  15.481  0.00  0.00    +0.000 A 
ATOM      9  C   UNL     1      48.620   5.743  16.282  0.00  0.00    +0.000 A 
ATOM     10  C   UNL     1      49.026   5.224  17.518  0.00  0.00    +0.000 A 
ATOM     11  C   UNL     1      48.491   4.027  17.978  0.00  0.00    +0.000 A 
ATOM     12  C   UNL     1      47.533   3.379  17.213  0.00  0.00    +0.000 A 
ATOM     13  F   UNL     1      47.011   2.226  17.651  0.00  0.00    +0.000 F 
ATOM     14  C   UNL     1      47.107   3.904  15.995  0.00  0.00    +0.000 A 
ENDBRANCH   6   8
BRANCH   1  15
ATOM     15  C   UNL     1      44.315   5.304  11.695  0.00  0.00    +0.000 C 
BRANCH  15  16
ATOM     16  N   UNL     1      44.476   3.989  11.113  0.00  0.00    +0.000 N 
ATOM     17  H   UNL     1      43.847   3.252  11.415  0.00  0.00    +0.000 HD
BRANCH  16  21
ATOM     18  C   UNL     1      46.184   3.173   7.480  0.00  0.00    +0.000 A 
ATOM     19  C   UNL     1      45.790   2.181   8.360  0.00  0.00    +0.000 A 
ATOM     20  N   UNL     1      45.188   2.448   9.553  0.00  0.00    +0.000 NA
ATOM     21  C   UNL     1      45.010   3.749   9.872  0.00  0.00    +0.000 A 
ATOM     22  C   UNL     1      45.434   4.735   8.972  0.00  0.00    +0.000 A 
ATOM     23  N   UNL     1      46.010   4.482   7.766  0.00  0.00    +0.000 NA
BRANCH  18  25
ATOM     24  N   UNL     1      47.305   2.613   5.207  0.00  0.00    +0.000 NA
ATOM     25  C   UNL     1      46.786   2.852   6.223  0.00  0.00    +0.000 C 
ENDBRANCH  18  25
ENDBRANCH  16  21
ENDBRANCH  15  16
ENDBRANCH   1  15
TORSDOF 5
ENDMDL
MODEL 5
REMARK VINA RESULT:    -6.837      1.746      2.316
REMARK INTER + INTRA:          -9.642
REMARK INTER:                  -9.008
REMARK INTRA:                  -0.634
REMARK UNBOUND:                -0.806
REMARK  Name = 
REMARK  5 active torsions:
REMARK  status: ('A' for Active; 'I' for Inactive)
REMARK    1  A    between atoms: C_2  and  C_3
REMARK    2  A    between atoms: C_6  and  N_7
REMARK    3  A    between atoms: N_7  and  C_8
REMARK    4  A    between atoms: C_8  and  C_9
REMARK    5  A    between atoms: C_14  and  C_15
REMARK                            x       y       z     vdW  Elec       q    Type
REMARK                         _______ _______ _______ _____ _____    ______ ____
ROOT
ATOM      1  C   UNL     1      45.781   4.447  12.825  0.00  0.00    +0.000 A 
ATOM      2  C   UNL     1      46.679   4.098  13.840  0.00  0.00    +0.000 A 
ATOM      3  C   UNL     1      47.515   5.065  14.393  0.00  0.00    +0.000 A 
ATOM      4  C   UNL     1      47.456   6.383  13.943  0.00  0.00    +0.000 A 
ATOM      5  F   UNL     1      48.297   7.260  14.514  0.00  0.00    +0.000 F 
ATOM      6  C   UNL     1      46.567   6.791  12.933  0.00  0.00    +0.000 A 
ATOM      7  C   UNL     1      45.743   5.786  12.382  0.00  0.00    +0.000 A 
ENDROOT
BRANCH   6   8
ATOM      8  C   UNL     1      46.485   8.200  12.469  0.00  0.00    +0.000 A 
ATOM      9  C   UNL     1      47.641   8.940  12.144  0.00  0.00    +0.000 A 
ATOM     10  C   UNL     1      47.571  10.279  11.735  0.00  0.00    +0.000 A 
ATOM     11  C   UNL     1      46.339  10.916  11.657  0.00  0.00    +0.000 A 
ATOM     12  C   UNL     1      45.190  10.201  11.956  0.00  0.00    +0.000 A 
ATOM     13  F   UNL     1      43.998  10.809  11.879  0.00  0.00    +0.000 F 
ATOM     14  C   UNL     1      45.251   8.863  12.338  0.00  0.00    +0.000 A 
ENDBRANCH   6   8
BRANCH   1  15
ATOM     15  C   UNL     1      44.784   3.442  12.287  0.00  0.00    +0.000 C 
BRANCH  15  16
ATOM     16  N   UNL     1      44.279   3.857  10.997  0.00  0.00    +0.000 N 
ATOM     17  H   UNL     1      43.674   4.672  10.959  0.00  0.00    +0.000 HD
BRANCH  16  21
ATOM     18  C   UNL     1      46.268   3.037   7.510  0.00  0.00    +0.000 A 
ATOM     19  C   UNL     1      45.814   2.047   8.362  0.00  0.00    +0.000 A 
ATOM     20  N   UNL     1      45.121   2.315   9.504  0.00  0.00    +0.000 NA
ATOM     21  C   UNL     1      44.909   3.615   9.802  0.00  0.00    +0.000 A 
ATOM     22  C   UNL     1      45.395   4.600   8.932  0.00  0.00    +0.000 A 
ATOM     23  N   UNL     1      46.064   4.346   7.776  0.00  0.00    +0.000 NA
BRANCH  18  25
ATOM     24  N   UNL     1      47.570   2.465   5.339  0.00  0.00    +0.000 NA
ATOM     25  C   UNL     1      46.968   2.716   6.305  0.00  0.00    +0.000 C 
ENDBRANCH  18  25
ENDBRANCH  16  21
ENDBRANCH  15  16
ENDBRANCH   1  15
TORSDOF 5
ENDMDL
MODEL 6
REMARK VINA RESULT:    -6.626      3.865      6.825
REMARK INTER + INTRA:          -9.369
REMARK INTER:                  -8.812
REMARK INTRA:                  -0.556
REMARK UNBOUND:                -0.806
REMARK  Name = 
REMARK  5 active torsions:
REMARK  status: ('A' for Active; 'I' for Inactive)
REMARK    1  A    between atoms: C_2  and  C_3
REMARK    2  A    between atoms: C_6  and  N_7
REMARK    3  A    between atoms: N_7  and  C_8
REMARK    4  A    between atoms: C_8  and  C_9
REMARK    5  A    between atoms: C_14  and  C_15
REMARK                            x       y       z     vdW  Elec       q    Type
REMARK                         _______ _______ _______ _____ _____    ______ ____
ROOT
ATOM      1  C   UNL     1      44.808   6.294  12.137  0.00  0.00    +0.000 A 
ATOM      2  C   UNL     1      43.748   5.766  12.882  0.00  0.00    +0.000 A 
ATOM      3  C   UNL     1      43.172   4.554  12.510  0.00  0.00    +0.000 A 
ATOM      4  C   UNL     1      43.653   3.860  11.401  0.00  0.00    +0.000 A 
ATOM      5  F   UNL     1      43.045   2.703  11.096  0.00  0.00    +0.000 F 
ATOM      6  C   UNL     1      44.722   4.339  10.624  0.00  0.00    +0.000 A 
ATOM      7  C   UNL     1      45.276   5.577  11.016  0.00  0.00    +0.000 A 
ENDROOT
BRANCH   6   8
ATOM      8  C   UNL     1      45.253   3.588   9.456  0.00  0.00    +0.000 A 
ATOM      9  C   UNL     1      45.339   2.180   9.460  0.00  0.00    +0.000 A 
ATOM     10  C   UNL     1      45.867   1.470   8.374  0.00  0.00    +0.000 A 
ATOM     11  C   UNL     1      46.338   2.154   7.260  0.00  0.00    +0.000 A 
ATOM     12  C   UNL     1      46.247   3.537   7.230  0.00  0.00    +0.000 A 
ATOM     13  F   UNL     1      46.697   4.203   6.158  0.00  0.00    +0.000 F 
ATOM     14  C   UNL     1      45.699   4.247   8.296  0.00  0.00    +0.000 A 
ENDBRANCH   6   8
BRANCH   1  15
ATOM     15  C   UNL     1      45.525   7.551  12.585  0.00  0.00    +0.000 C 
BRANCH  15  16
ATOM     16  N   UNL     1      46.629   7.229  13.463  0.00  0.00    +0.000 N 
ATOM     17  H   UNL     1      46.554   6.398  14.042  0.00  0.00    +0.000 HD
BRANCH  16  21
ATOM     18  C   UNL     1      50.533   8.199  12.691  0.00  0.00    +0.000 A 
ATOM     19  C   UNL     1      49.593   8.034  11.691  0.00  0.00    +0.000 A 
ATOM     20  N   UNL     1      48.285   7.747  11.946  0.00  0.00    +0.000 NA
ATOM     21  C   UNL     1      47.932   7.597  13.241  0.00  0.00    +0.000 A 
ATOM     22  C   UNL     1      48.908   7.751  14.234  0.00  0.00    +0.000 A 
ATOM     23  N   UNL     1      50.209   8.065  13.995  0.00  0.00    +0.000 NA
BRANCH  18  25
ATOM     24  N   UNL     1      52.989   8.797  12.099  0.00  0.00    +0.000 NA
ATOM     25  C   UNL     1      51.891   8.529  12.385  0.00  0.00    +0.000 C 
ENDBRANCH  18  25
ENDBRANCH  16  21
ENDBRANCH  15  16
ENDBRANCH   1  15
TORSDOF 5
ENDMDL
MODEL 7
REMARK VINA RESULT:    -6.527      4.848      7.891
REMARK INTER + INTRA:          -9.240
REMARK INTER:                  -8.463
REMARK INTRA:                  -0.777
REMARK UNBOUND:                -0.806
REMARK  Name = 
REMARK  5 active torsions:
REMARK  status: ('A' for Active; 'I' for Inactive)
REMARK    1  A    between atoms: C_2  and  C_3
REMARK    2  A    between atoms: C_6  and  N_7
REMARK    3  A    between atoms: N_7  and  C_8
REMARK    4  A    between atoms: C_8  and  C_9
REMARK    5  A    between atoms: C_14  and  C_15
REMARK                            x       y       z     vdW  Elec       q    Type
REMARK                         _______ _______ _______ _____ _____    ______ ____
ROOT
ATOM      1  C   UNL     1      47.450   7.461  12.578  0.00  0.00    +0.000 A 
ATOM      2  C   UNL     1      46.525   8.464  12.886  0.00  0.00    +0.000 A 
ATOM      3  C   UNL     1      45.221   8.380  12.405  0.00  0.00    +0.000 A 
ATOM      4  C   UNL     1      44.831   7.295  11.622  0.00  0.00    +0.000 A 
ATOM      5  F   UNL     1      43.562   7.284  11.185  0.00  0.00    +0.000 F 
ATOM      6  C   UNL     1      45.716   6.254  11.290  0.00  0.00    +0.000 A 
ATOM      7  C   UNL     1      47.034   6.374  11.780  0.00  0.00    +0.000 A 
ENDROOT
BRANCH   6   8
ATOM      8  C   UNL     1      45.295   5.084  10.477  0.00  0.00    +0.000 A 
ATOM      9  C   UNL     1      44.544   4.028  11.035  0.00  0.00    +0.000 A 
ATOM     10  C   UNL     1      44.171   2.908  10.280  0.00  0.00    +0.000 A 
ATOM     11  C   UNL     1      44.555   2.810   8.948  0.00  0.00    +0.000 A 
ATOM     12  C   UNL     1      45.278   3.845   8.376  0.00  0.00    +0.000 A 
ATOM     13  F   UNL     1      45.649   3.759   7.092  0.00  0.00    +0.000 F 
ATOM     14  C   UNL     1      45.630   4.973   9.115  0.00  0.00    +0.000 A 
ENDBRANCH   6   8
BRANCH   1  15
ATOM     15  C   UNL     1      48.839   7.469  13.182  0.00  0.00    +0.000 C 
BRANCH  15  16
ATOM     16  N   UNL     1      48.823   8.056  14.504  0.00  0.00    +0.000 N 
ATOM     17  H   UNL     1      48.384   8.964  14.619  0.00  0.00    +0.000 HD
BRANCH  16  21
ATOM     18  C   UNL     1      48.786   5.842  17.951  0.00  0.00    +0.000 A 
ATOM     19  C   UNL     1      48.648   5.275  16.697  0.00  0.00    +0.000 A 
ATOM     20  N   UNL     1      48.696   6.004  15.547  0.00  0.00    +0.000 NA
ATOM     21  C   UNL     1      48.859   7.339  15.673  0.00  0.00    +0.000 A 
ATOM     22  C   UNL     1      48.979   7.891  16.955  0.00  0.00    +0.000 A 
ATOM     23  N   UNL     1      48.961   7.172  18.109  0.00  0.00    +0.000 NA
BRANCH  18  25
ATOM     24  N   UNL     1      48.719   4.414  20.117  0.00  0.00    +0.000 NA
ATOM     25  C   UNL     1      48.759   5.040  19.134  0.00  0.00    +0.000 C 
ENDBRANCH  18  25
ENDBRANCH  16  21
ENDBRANCH  15  16
ENDBRANCH   1  15
TORSDOF 5
ENDMDL
MODEL 8
REMARK VINA RESULT:    -6.487      4.539      7.881
REMARK INTER + INTRA:          -9.189
REMARK INTER:                  -8.290
REMARK INTRA:                  -0.899
REMARK UNBOUND:                -0.806
REMARK  Name = 
REMARK  5 active torsions:
REMARK  status: ('A' for Active; 'I' for Inactive)
REMARK    1  A    between atoms: C_2  and  C_3
REMARK    2  A    between atoms: C_6  and  N_7
REMARK    3  A    between atoms: N_7  and  C_8
REMARK    4  A    between atoms: C_8  and  C_9
REMARK    5  A    between atoms: C_14  and  C_15
REMARK                            x       y       z     vdW  Elec       q    Type
REMARK                         _______ _______ _______ _____ _____    ______ ____
ROOT
ATOM      1  C   UNL     1      47.572   7.964  12.425  0.00  0.00    +0.000 A 
ATOM      2  C   UNL     1      46.629   8.949  12.739  0.00  0.00    +0.000 A 
ATOM      3  C   UNL     1      45.300   8.786  12.356  0.00  0.00    +0.000 A 
ATOM      4  C   UNL     1      44.904   7.642  11.667  0.00  0.00    +0.000 A 
ATOM      5  F   UNL     1      43.609   7.556  11.322  0.00  0.00    +0.000 F 
ATOM      6  C   UNL     1      45.807   6.617  11.334  0.00  0.00    +0.000 A 
ATOM      7  C   UNL     1      47.149   6.816  11.723  0.00  0.00    +0.000 A 
ENDROOT
BRANCH   6   8
ATOM      8  C   UNL     1      45.382   5.384  10.622  0.00  0.00    +0.000 A 
ATOM      9  C   UNL     1      45.706   5.164   9.267  0.00  0.00    +0.000 A 
ATOM     10  C   UNL     1      45.281   4.017   8.583  0.00  0.00    +0.000 A 
ATOM     11  C   UNL     1      44.506   3.067   9.236  0.00  0.00    +0.000 A 
ATOM     12  C   UNL     1      44.191   3.256  10.572  0.00  0.00    +0.000 A 
ATOM     13  F   UNL     1      43.446   2.343  11.209  0.00  0.00    +0.000 F 
ATOM     14  C   UNL     1      44.632   4.382  11.265  0.00  0.00    +0.000 A 
ENDBRANCH   6   8
BRANCH   1  15
ATOM     15  C   UNL     1      48.998   8.062  12.927  0.00  0.00    +0.000 C 
BRANCH  15  16
ATOM     16  N   UNL     1      49.341   6.910  13.732  0.00  0.00    +0.000 N 
ATOM     17  H   UNL     1      50.158   6.368  13.468  0.00  0.00    +0.000 HD
BRANCH  16  21
ATOM     18  C   UNL     1      48.247   6.412  17.649  0.00  0.00    +0.000 A 
ATOM     19  C   UNL     1      48.248   5.373  16.735  0.00  0.00    +0.000 A 
ATOM     20  N   UNL     1      48.646   5.528  15.441  0.00  0.00    +0.000 NA
ATOM     21  C   UNL     1      49.023   6.767  15.059  0.00  0.00    +0.000 A 
ATOM     22  C   UNL     1      48.996   7.806  15.999  0.00  0.00    +0.000 A 
ATOM     23  N   UNL     1      48.628   7.660  17.300  0.00  0.00    +0.000 NA
BRANCH  18  25
ATOM     24  N   UNL     1      47.549   6.007  20.115  0.00  0.00    +0.000 NA
ATOM     25  C   UNL     1      47.850   6.204  19.007  0.00  0.00    +0.000 C 
ENDBRANCH  18  25
ENDBRANCH  16  21
ENDBRANCH  15  16
ENDBRANCH   1  15
TORSDOF 5
ENDMDL
