MODEL 1
REMARK VINA RESULT:    -7.730      0.000      0.000
REMARK INTER + INTRA:         -10.548
REMARK INTER:                  -9.989
REMARK INTRA:                  -0.559
REMARK UNBOUND:                -0.559
REMARK  Name = 
REMARK  7 active torsions:
REMARK  status: ('A' for Active; 'I' for Inactive)
REMARK    1  A    between atoms: C_1  and  O_2
REMARK    2  A    between atoms: O_2  and  C_3
REMARK    3  A    between atoms: C_5  and  C_6
REMARK    4  A    between atoms: C_6  and  N_7
REMARK    5  A    between atoms: C_12  and  C_13
REMARK    6  A    between atoms: C_20  and  O_21
REMARK    7  A    between atoms: O_21  and  C_22
REMARK                            x       y       z     vdW  Elec       q    Type
REMARK                         _______ _______ _______ _____ _____    ______ ____
ROOT
ATOM      1  N   UNL     1      44.152   4.338  10.316  0.00  0.00    +0.000 N 
ATOM      2  C   UNL     1      43.641   3.207  10.917  0.00  0.00    +0.000 A 
ATOM      3  C   UNL     1      44.200   2.108  10.305  0.00  0.00    +0.000 A 
ATOM      4  C   UNL     1      45.082   2.581   9.298  0.00  0.00    +0.000 A 
ATOM      5  C   UNL     1      45.897   1.967   8.330  0.00  0.00    +0.000 A 
ATOM      6  C   UNL     1      46.623   2.795   7.467  0.00  0.00    +0.000 A 
ATOM      7  C   UNL     1      46.504   4.175   7.622  0.00  0.00    +0.000 A 
ATOM      8  N   UNL     1      45.725   4.819   8.537  0.00  0.00    +0.000 NA
ATOM      9  C   UNL     1      45.039   3.975   9.332  0.00  0.00    +0.000 A 
ENDROOT
BRANCH   6  10
ATOM     10  C   UNL     1      47.495   2.281   6.381  0.00  0.00    +0.000 C 
ATOM     11  N   UNL     1      47.752   3.091   5.309  0.00  0.00    +0.000 N 
ATOM     12  O   UNL     1      47.983   1.160   6.435  0.00  0.00    +0.000 OA
ATOM     13  H   UNL     1      47.404   4.027   5.174  0.00  0.00    +0.000 HD
ATOM     14  H   UNL     1      48.360   2.718   4.590  0.00  0.00    +0.000 HD
ENDBRANCH   6  10
BRANCH   1  15
ATOM     15  C   UNL     1      43.709   5.701  10.589  0.00  0.00    +0.000 C 
BRANCH  15  18
ATOM     16  C   UNL     1      45.675   8.531  12.228  0.00  0.00    +0.000 A 
ATOM     17  C   UNL     1      44.746   7.845  11.444  0.00  0.00    +0.000 A 
ATOM     18  C   UNL     1      44.657   6.447  11.496  0.00  0.00    +0.000 A 
ATOM     19  C   UNL     1      45.466   5.746  12.404  0.00  0.00    +0.000 A 
ATOM     20  C   UNL     1      46.396   6.421  13.196  0.00  0.00    +0.000 A 
ATOM     21  C   UNL     1      46.496   7.812  13.098  0.00  0.00    +0.000 A 
BRANCH  16  23
ATOM     22  C   UNL     1      44.811  10.680  11.706  0.00  0.00    +0.000 C 
ATOM     23  O   UNL     1      45.878   9.885  12.213  0.00  0.00    +0.000 OA
ENDBRANCH  16  23
BRANCH  20  24
ATOM     24  O   UNL     1      47.267   5.834  14.075  0.00  0.00    +0.000 OA
ATOM     25  C   UNL     1      46.997   4.487  14.445  0.00  0.00    +0.000 C 
ENDBRANCH  20  24
ENDBRANCH  15  18
ENDBRANCH   1  15
TORSDOF 5
ENDMDL
MODEL 2
REMARK VINA RESULT:    -7.684      0.143      2.710
REMARK INTER + INTRA:         -10.489
REMARK INTER:                  -9.933
REMARK INTRA:                  -0.556
REMARK UNBOUND:                -0.559
REMARK  Name = 
REMARK  7 active torsions:
REMARK  status: ('A' for Active; 'I' for Inactive)
REMARK    1  A    between atoms: C_1  and  O_2
REMARK    2  A    between atoms: O_2  and  C_3
REMARK    3  A    between atoms: C_5  and  C_6
REMARK    4  A    between atoms: C_6  and  N_7
REMARK    5  A    between atoms: C_12  and  C_13
REMARK    6  A    between atoms: C_20  and  O_21
REMARK    7  A    between atoms: O_21  and  C_22
REMARK                            x       y       z     vdW  Elec       q    Type
REMARK                         _______ _______ _______ _____ _____    ______ ____
ROOT
ATOM      1  N   UNL     1      44.080   4.338  10.411  0.00  0.00    +0.000 N 
ATOM      2  C   UNL     1      43.575   3.211  11.023  0.00  0.00    +0.000 A 
ATOM      3  C   UNL     1      44.115   2.108  10.401  0.00  0.00    +0.000 A 
ATOM      4  C   UNL     1      44.981   2.574   9.377  0.00  0.00    +0.000 A 
ATOM      5  C   UNL     1      45.774   1.955   8.395  0.00  0.00    +0.000 A 
ATOM      6  C   UNL     1      46.487   2.777   7.517  0.00  0.00    +0.000 A 
ATOM      7  C   UNL     1      46.380   4.159   7.673  0.00  0.00    +0.000 A 
ATOM      8  N   UNL     1      45.622   4.807   8.602  0.00  0.00    +0.000 NA
ATOM      9  C   UNL     1      44.947   3.969   9.411  0.00  0.00    +0.000 A 
ENDROOT
BRANCH   6  10
ATOM     10  C   UNL     1      47.335   2.257   6.415  0.00  0.00    +0.000 C 
ATOM     11  N   UNL     1      47.501   3.028   5.297  0.00  0.00    +0.000 N 
ATOM     12  O   UNL     1      47.884   1.165   6.496  0.00  0.00    +0.000 OA
ATOM     13  H   UNL     1      47.099   3.937   5.136  0.00  0.00    +0.000 HD
ATOM     14  H   UNL     1      48.095   2.651   4.567  0.00  0.00    +0.000 HD
ENDBRANCH   6  10
BRANCH   1  15
ATOM     15  C   UNL     1      43.651   5.704  10.691  0.00  0.00    +0.000 C 
BRANCH  15  18
ATOM     16  C   UNL     1      46.459   6.512  13.145  0.00  0.00    +0.000 A 
ATOM     17  C   UNL     1      45.573   5.801  12.334  0.00  0.00    +0.000 A 
ATOM     18  C   UNL     1      44.663   6.472  11.506  0.00  0.00    +0.000 A 
ATOM     19  C   UNL     1      44.702   7.874  11.446  0.00  0.00    +0.000 A 
ATOM     20  C   UNL     1      45.586   8.596  12.249  0.00  0.00    +0.000 A 
ATOM     21  C   UNL     1      46.457   7.908  13.097  0.00  0.00    +0.000 A 
BRANCH  16  23
ATOM     22  C   UNL     1      47.100   4.608  14.411  0.00  0.00    +0.000 C 
ATOM     23  O   UNL     1      47.349   5.956  14.025  0.00  0.00    +0.000 OA
ENDBRANCH  16  23
BRANCH  20  24
ATOM     24  O   UNL     1      45.674   9.962  12.307  0.00  0.00    +0.000 OA
ATOM     25  C   UNL     1      44.717  10.700  11.555  0.00  0.00    +0.000 C 
ENDBRANCH  20  24
ENDBRANCH  15  18
ENDBRANCH   1  15
TORSDOF 5
ENDMDL
MODEL 3
REMARK VINA RESULT:    -6.413      2.525      6.833
REMARK INTER + INTRA:          -8.846
REMARK INTER:                  -8.141
REMARK INTRA:                  -0.705
REMARK UNBOUND:                -0.559
REMARK  Name = 
REMARK  7 active torsions:
REMARK  status: ('A' for Active; 'I' for Inactive)
REMARK    1  A    between atoms: C_1  and  O_2
REMARK    2  A    between atoms: O_2  and  C_3
REMARK    3  A    between atoms: C_5  and  C_6
REMARK    4  A    between atoms: C_6  and  N_7
REMARK    5  A    between atoms: C_12  and  C_13
REMARK    6  A    between atoms: C_20  and  O_21
REMARK    7  A    between atoms: O_21  and  C_22
REMARK                            x       y       z     vdW  Elec       q    Type
REMARK                         _______ _______ _______ _____ _____    ______ ____
ROOT
ATOM      1  N   UNL     1      44.738   4.642  11.615  0.00  0.00    +0.000 N 
ATOM      2  C   UNL     1      44.518   3.808  12.690  0.00  0.00    +0.000 A 
ATOM      3  C   UNL     1      45.466   4.085  13.648  0.00  0.00    +0.000 A 
ATOM      4  C   UNL     1      46.292   5.124  13.146  0.00  0.00    +0.000 A 
ATOM      5  C   UNL     1      47.428   5.802  13.623  0.00  0.00    +0.000 A 
ATOM      6  C   UNL     1      48.000   6.777  12.799  0.00  0.00    +0.000 A 
ATOM      7  C   UNL     1      47.407   7.028  11.563  0.00  0.00    +0.000 A 
ATOM      8  N   UNL     1      46.312   6.396  11.053  0.00  0.00    +0.000 NA
ATOM      9  C   UNL     1      45.811   5.459  11.879  0.00  0.00    +0.000 A 
ENDROOT
BRANCH   6  10
ATOM     10  C   UNL     1      49.218   7.544  13.164  0.00  0.00    +0.000 C 
ATOM     11  N   UNL     1      50.350   7.369  12.416  0.00  0.00    +0.000 N 
ATOM     12  O   UNL     1      49.220   8.323  14.108  0.00  0.00    +0.000 OA
ATOM     13  H   UNL     1      50.450   6.758  11.621  0.00  0.00    +0.000 HD
ATOM     14  H   UNL     1      51.162   7.915  12.682  0.00  0.00    +0.000 HD
ENDBRANCH   6  10
BRANCH   1  15
ATOM     15  C   UNL     1      44.029   4.570  10.343  0.00  0.00    +0.000 C 
BRANCH  15  18
ATOM     16  C   UNL     1      45.600   1.616   8.508  0.00  0.00    +0.000 A 
ATOM     17  C   UNL     1      44.850   2.362   9.418  0.00  0.00    +0.000 A 
ATOM     18  C   UNL     1      44.774   3.757   9.311  0.00  0.00    +0.000 A 
ATOM     19  C   UNL     1      45.402   4.393   8.229  0.00  0.00    +0.000 A 
ATOM     20  C   UNL     1      46.152   3.658   7.310  0.00  0.00    +0.000 A 
ATOM     21  C   UNL     1      46.249   2.272   7.459  0.00  0.00    +0.000 A 
BRANCH  16  23
ATOM     22  C   UNL     1      46.720  -0.285   7.630  0.00  0.00    +0.000 C 
ATOM     23  O   UNL     1      45.782   0.259   8.554  0.00  0.00    +0.000 OA
ENDBRANCH  16  23
BRANCH  20  24
ATOM     24  O   UNL     1      46.845   4.180   6.250  0.00  0.00    +0.000 OA
ATOM     25  C   UNL     1      47.329   3.258   5.280  0.00  0.00    +0.000 C 
ENDBRANCH  20  24
ENDBRANCH  15  18
ENDBRANCH   1  15
TORSDOF 5
ENDMDL
MODEL 4
REMARK VINA RESULT:    -6.411      2.538      6.566
REMARK INTER + INTRA:          -8.844
REMARK INTER:                  -8.169
REMARK INTRA:                  -0.676
REMARK UNBOUND:                -0.559
REMARK  Name = 
REMARK  7 active torsions:
REMARK  status: ('A' for Active; 'I' for Inactive)
REMARK    1  A    between atoms: C_1  and  O_2
REMARK    2  A    between atoms: O_2  and  C_3
REMARK    3  A    between atoms: C_5  and  C_6
REMARK    4  A    between atoms: C_6  and  N_7
REMARK    5  A    between atoms: C_12  and  C_13
REMARK    6  A    between atoms: C_20  and  O_21
REMARK    7  A    between atoms: O_21  and  C_22
REMARK                            x       y       z     vdW  Elec       q    Type
REMARK                         _______ _______ _______ _____ _____    ______ ____
ROOT
ATOM      1  N   UNL     1      44.129   4.493  11.293  0.00  0.00    +0.000 N 
ATOM      2  C   UNL     1      43.556   3.674  12.243  0.00  0.00    +0.000 A 
ATOM      3  C   UNL     1      44.258   3.826  13.418  0.00  0.00    +0.000 A 
ATOM      4  C   UNL     1      45.291   4.770  13.181  0.00  0.00    +0.000 A 
ATOM      5  C   UNL     1      46.337   5.304  13.953  0.00  0.00    +0.000 A 
ATOM      6  C   UNL     1      47.200   6.219  13.340  0.00  0.00    +0.000 A 
ATOM      7  C   UNL     1      46.968   6.554  12.007  0.00  0.00    +0.000 A 
ATOM      8  N   UNL     1      45.974   6.061  11.215  0.00  0.00    +0.000 NA
ATOM      9  C   UNL     1      45.182   5.176  11.850  0.00  0.00    +0.000 A 
ENDROOT
BRANCH   6  10
ATOM     10  C   UNL     1      48.363   6.834  14.028  0.00  0.00    +0.000 C 
ATOM     11  N   UNL     1      48.156   7.473  15.220  0.00  0.00    +0.000 N 
ATOM     12  O   UNL     1      49.489   6.775  13.550  0.00  0.00    +0.000 OA
ATOM     13  H   UNL     1      47.274   7.572  15.696  0.00  0.00    +0.000 HD
ATOM     14  H   UNL     1      48.971   7.872  15.671  0.00  0.00    +0.000 HD
ENDBRANCH   6  10
BRANCH   1  15
ATOM     15  C   UNL     1      43.759   4.521   9.883  0.00  0.00    +0.000 C 
BRANCH  15  18
ATOM     16  C   UNL     1      46.207   3.524   7.132  0.00  0.00    +0.000 A 
ATOM     17  C   UNL     1      45.404   4.294   7.974  0.00  0.00    +0.000 A 
ATOM     18  C   UNL     1      44.690   3.700   9.024  0.00  0.00    +0.000 A 
ATOM     19  C   UNL     1      44.851   2.328   9.267  0.00  0.00    +0.000 A 
ATOM     20  C   UNL     1      45.655   1.547   8.435  0.00  0.00    +0.000 A 
ATOM     21  C   UNL     1      46.325   2.152   7.368  0.00  0.00    +0.000 A 
BRANCH  16  23
ATOM     22  C   UNL     1      47.350   3.020   5.113  0.00  0.00    +0.000 C 
ATOM     23  O   UNL     1      46.902   3.994   6.049  0.00  0.00    +0.000 OA
ENDBRANCH  16  23
BRANCH  20  24
ATOM     24  O   UNL     1      45.842   0.195   8.550  0.00  0.00    +0.000 OA
ATOM     25  C   UNL     1      46.733  -0.412   7.621  0.00  0.00    +0.000 C 
ENDBRANCH  20  24
ENDBRANCH  15  18
ENDBRANCH   1  15
TORSDOF 5
ENDMDL
MODEL 5
REMARK VINA RESULT:    -6.211      3.099      7.045
REMARK INTER + INTRA:          -8.586
REMARK INTER:                  -8.215
REMARK INTRA:                  -0.371
REMARK UNBOUND:                -0.559
REMARK  Name = 
REMARK  7 active torsions:
REMARK  status: ('A' for Active; 'I' for Inactive)
REMARK    1  A    between atoms: C_1  and  O_2
REMARK    2  A    between atoms: O_2  and  C_3
REMARK    3  A    between atoms: C_5  and  C_6
REMARK    4  A    between atoms: C_6  and  N_7
REMARK    5  A    between atoms: C_12  and  C_13
REMARK    6  A    between atoms: C_20  and  O_21
REMARK    7  A    between atoms: O_21  and  C_22
REMARK                            x       y       z     vdW  Elec       q    Type
REMARK                         _______ _______ _______ _____ _____    ______ ____
ROOT
ATOM      1  N   UNL     1      46.526   7.032  12.256  0.00  0.00    +0.000 N 
ATOM      2  C   UNL     1      47.519   7.986  12.187  0.00  0.00    +0.000 A 
ATOM      3  C   UNL     1      48.413   7.747  13.206  0.00  0.00    +0.000 A 
ATOM      4  C   UNL     1      47.955   6.610  13.920  0.00  0.00    +0.000 A 
ATOM      5  C   UNL     1      48.400   5.912  15.057  0.00  0.00    +0.000 A 
ATOM      6  C   UNL     1      47.640   4.821  15.492  0.00  0.00    +0.000 A 
ATOM      7  C   UNL     1      46.496   4.483  14.769  0.00  0.00    +0.000 A 
ATOM      8  N   UNL     1      46.020   5.129  13.667  0.00  0.00    +0.000 NA
ATOM      9  C   UNL     1      46.781   6.178  13.301  0.00  0.00    +0.000 A 
ENDROOT
BRANCH   6  10
ATOM     10  C   UNL     1      47.976   4.017  16.694  0.00  0.00    +0.000 C 
ATOM     11  N   UNL     1      47.200   4.155  17.812  0.00  0.00    +0.000 N 
ATOM     12  O   UNL     1      48.923   3.240  16.696  0.00  0.00    +0.000 OA
ATOM     13  H   UNL     1      46.400   4.760  17.910  0.00  0.00    +0.000 HD
ATOM     14  H   UNL     1      47.446   3.585  18.612  0.00  0.00    +0.000 HD
ENDBRANCH   6  10
BRANCH   1  15
ATOM     15  C   UNL     1      45.322   7.019  11.433  0.00  0.00    +0.000 C 
BRANCH  15  18
ATOM     16  C   UNL     1      44.381   3.550  10.153  0.00  0.00    +0.000 A 
ATOM     17  C   UNL     1      44.409   4.715  10.921  0.00  0.00    +0.000 A 
ATOM     18  C   UNL     1      45.231   5.792  10.559  0.00  0.00    +0.000 A 
ATOM     19  C   UNL     1      45.972   5.714   9.369  0.00  0.00    +0.000 A 
ATOM     20  C   UNL     1      45.948   4.555   8.591  0.00  0.00    +0.000 A 
ATOM     21  C   UNL     1      45.154   3.478   8.993  0.00  0.00    +0.000 A 
BRANCH  16  23
ATOM     22  C   UNL     1      43.301   2.239  11.813  0.00  0.00    +0.000 C 
ATOM     23  O   UNL     1      43.657   2.424  10.447  0.00  0.00    +0.000 OA
ENDBRANCH  16  23
BRANCH  20  24
ATOM     24  O   UNL     1      46.668   4.354   7.444  0.00  0.00    +0.000 OA
ATOM     25  C   UNL     1      46.344   3.201   6.675  0.00  0.00    +0.000 C 
ENDBRANCH  20  24
ENDBRANCH  15  18
ENDBRANCH   1  15
TORSDOF 5
ENDMDL
MODEL 6
REMARK VINA RESULT:    -6.169      4.077      6.768
REMARK INTER + INTRA:          -8.531
REMARK INTER:                  -8.431
REMARK INTRA:                  -0.100
REMARK UNBOUND:                -0.559
REMARK  Name = 
REMARK  7 active torsions:
REMARK  status: ('A' for Active; 'I' for Inactive)
REMARK    1  A    between atoms: C_1  and  O_2
REMARK    2  A    between atoms: O_2  and  C_3
REMARK    3  A    between atoms: C_5  and  C_6
REMARK    4  A    between atoms: C_6  and  N_7
REMARK    5  A    between atoms: C_12  and  C_13
REMARK    6  A    between atoms: C_20  and  O_21
REMARK    7  A    between atoms: O_21  and  C_22
REMARK                            x       y       z     vdW  Elec       q    Type
REMARK                         _______ _______ _______ _____ _____    ______ ____
ROOT
ATOM      1  N   UNL     1      47.222   4.981  15.091  0.00  0.00    +0.000 N 
ATOM      2  C   UNL     1      48.154   5.983  14.927  0.00  0.00    +0.000 A 
ATOM      3  C   UNL     1      47.995   6.512  13.666  0.00  0.00    +0.000 A 
ATOM      4  C   UNL     1      46.930   5.814  13.039  0.00  0.00    +0.000 A 
ATOM      5  C   UNL     1      46.329   5.863  11.769  0.00  0.00    +0.000 A 
ATOM      6  C   UNL     1      45.290   4.965  11.503  0.00  0.00    +0.000 A 
ATOM      7  C   UNL     1      44.904   4.085  12.514  0.00  0.00    +0.000 A 
ATOM      8  N   UNL     1      45.457   3.994  13.757  0.00  0.00    +0.000 NA
ATOM      9  C   UNL     1      46.460   4.870  13.953  0.00  0.00    +0.000 A 
ENDROOT
BRANCH   6  10
ATOM     10  C   UNL     1      44.591   4.886  10.196  0.00  0.00    +0.000 C 
ATOM     11  N   UNL     1      45.333   4.973   9.050  0.00  0.00    +0.000 N 
ATOM     12  O   UNL     1      43.376   4.741  10.132  0.00  0.00    +0.000 OA
ATOM     13  H   UNL     1      46.332   5.088   8.996  0.00  0.00    +0.000 HD
ATOM     14  H   UNL     1      44.829   4.904   8.174  0.00  0.00    +0.000 HD
ENDBRANCH   6  10
BRANCH   1  15
ATOM     15  C   UNL     1      47.151   4.086  16.241  0.00  0.00    +0.000 C 
BRANCH  15  18
ATOM     16  C   UNL     1      50.514   4.550  17.983  0.00  0.00    +0.000 A 
ATOM     17  C   UNL     1      49.227   4.796  17.501  0.00  0.00    +0.000 A 
ATOM     18  C   UNL     1      48.510   3.795  16.832  0.00  0.00    +0.000 A 
ATOM     19  C   UNL     1      49.072   2.514  16.716  0.00  0.00    +0.000 A 
ATOM     20  C   UNL     1      50.356   2.255  17.197  0.00  0.00    +0.000 A 
ATOM     21  C   UNL     1      51.071   3.279  17.825  0.00  0.00    +0.000 A 
BRANCH  16  23
ATOM     22  C   UNL     1      50.985   6.839  18.400  0.00  0.00    +0.000 C 
ATOM     23  O   UNL     1      51.319   5.470  18.601  0.00  0.00    +0.000 OA
ENDBRANCH  16  23
BRANCH  20  24
ATOM     24  O   UNL     1      51.018   1.060  17.093  0.00  0.00    +0.000 OA
ATOM     25  C   UNL     1      52.358   1.023  17.571  0.00  0.00    +0.000 C 
ENDBRANCH  20  24
ENDBRANCH  15  18
ENDBRANCH   1  15
TORSDOF 5
ENDMDL
MODEL 7
REMARK VINA RESULT:    -6.120      4.183      7.215
REMARK INTER + INTRA:          -8.467
REMARK INTER:                  -8.264
REMARK INTRA:                  -0.204
REMARK UNBOUND:                -0.559
REMARK  Name = 
REMARK  7 active torsions:
REMARK  status: ('A' for Active; 'I' for Inactive)
REMARK    1  A    between atoms: C_1  and  O_2
REMARK    2  A    between atoms: O_2  and  C_3
REMARK    3  A    between atoms: C_5  and  C_6
REMARK    4  A    between atoms: C_6  and  N_7
REMARK    5  A    between atoms: C_12  and  C_13
REMARK    6  A    between atoms: C_20  and  O_21
REMARK    7  A    between atoms: O_21  and  C_22
REMARK                            x       y       z     vdW  Elec       q    Type
REMARK                         _______ _______ _______ _____ _____    ______ ____
ROOT
ATOM      1  N   UNL     1      47.241   4.981  15.103  0.00  0.00    +0.000 N 
ATOM      2  C   UNL     1      48.159   5.998  14.950  0.00  0.00    +0.000 A 
ATOM      3  C   UNL     1      47.994   6.537  13.694  0.00  0.00    +0.000 A 
ATOM      4  C   UNL     1      46.941   5.830  13.059  0.00  0.00    +0.000 A 
ATOM      5  C   UNL     1      46.342   5.881  11.787  0.00  0.00    +0.000 A 
ATOM      6  C   UNL     1      45.316   4.971  11.511  0.00  0.00    +0.000 A 
ATOM      7  C   UNL     1      44.942   4.076  12.512  0.00  0.00    +0.000 A 
ATOM      8  N   UNL     1      45.493   3.981  13.756  0.00  0.00    +0.000 NA
ATOM      9  C   UNL     1      46.483   4.870  13.962  0.00  0.00    +0.000 A 
ENDROOT
BRANCH   6  10
ATOM     10  C   UNL     1      44.621   4.894  10.202  0.00  0.00    +0.000 C 
ATOM     11  N   UNL     1      45.362   5.014   9.059  0.00  0.00    +0.000 N 
ATOM     12  O   UNL     1      43.410   4.723  10.134  0.00  0.00    +0.000 OA
ATOM     13  H   UNL     1      46.359   5.152   9.008  0.00  0.00    +0.000 HD
ATOM     14  H   UNL     1      44.862   4.945   8.180  0.00  0.00    +0.000 HD
ENDBRANCH   6  10
BRANCH   1  15
ATOM     15  C   UNL     1      47.181   4.074  16.244  0.00  0.00    +0.000 C 
BRANCH  15  18
ATOM     16  C   UNL     1      50.398   2.228  17.139  0.00  0.00    +0.000 A 
ATOM     17  C   UNL     1      49.170   2.541  16.554  0.00  0.00    +0.000 A 
ATOM     18  C   UNL     1      48.546   3.769  16.812  0.00  0.00    +0.000 A 
ATOM     19  C   UNL     1      49.207   4.715  17.611  0.00  0.00    +0.000 A 
ATOM     20  C   UNL     1      50.437   4.415  18.198  0.00  0.00    +0.000 A 
ATOM     21  C   UNL     1      51.022   3.169  17.961  0.00  0.00    +0.000 A 
BRANCH  16  23
ATOM     22  C   UNL     1      52.292   0.913  17.707  0.00  0.00    +0.000 C 
ATOM     23  O   UNL     1      51.065   1.040  16.995  0.00  0.00    +0.000 OA
ENDBRANCH  16  23
BRANCH  20  24
ATOM     24  O   UNL     1      51.143   5.242  19.032  0.00  0.00    +0.000 OA
ATOM     25  C   UNL     1      50.855   5.152  20.422  0.00  0.00    +0.000 C 
ENDBRANCH  20  24
ENDBRANCH  15  18
ENDBRANCH   1  15
TORSDOF 5
ENDMDL
MODEL 8
REMARK VINA RESULT:    -5.873      4.505      8.470
REMARK INTER + INTRA:          -8.149
REMARK INTER:                  -7.458
REMARK INTRA:                  -0.691
REMARK UNBOUND:                -0.559
REMARK  Name = 
REMARK  7 active torsions:
REMARK  status: ('A' for Active; 'I' for Inactive)
REMARK    1  A    between atoms: C_1  and  O_2
REMARK    2  A    between atoms: O_2  and  C_3
REMARK    3  A    between atoms: C_5  and  C_6
REMARK    4  A    between atoms: C_6  and  N_7
REMARK    5  A    between atoms: C_12  and  C_13
REMARK    6  A    between atoms: C_20  and  O_21
REMARK    7  A    between atoms: O_21  and  C_22
REMARK                            x       y       z     vdW  Elec       q    Type
REMARK                         _______ _______ _______ _____ _____    ______ ____
ROOT
ATOM      1  N   UNL     1      48.613   6.919  14.615  0.00  0.00    +0.000 N 
ATOM      2  C   UNL     1      48.686   8.278  14.831  0.00  0.00    +0.000 A 
ATOM      3  C   UNL     1      48.767   8.492  16.189  0.00  0.00    +0.000 A 
ATOM      4  C   UNL     1      48.745   7.223  16.824  0.00  0.00    +0.000 A 
ATOM      5  C   UNL     1      48.758   6.787  18.161  0.00  0.00    +0.000 A 
ATOM      6  C   UNL     1      48.692   5.410  18.400  0.00  0.00    +0.000 A 
ATOM      7  C   UNL     1      48.627   4.553  17.302  0.00  0.00    +0.000 A 
ATOM      8  N   UNL     1      48.605   4.924  15.990  0.00  0.00    +0.000 NA
ATOM      9  C   UNL     1      48.657   6.259  15.819  0.00  0.00    +0.000 A 
ENDROOT
BRANCH   6  10
ATOM     10  C   UNL     1      48.666   4.815  19.759  0.00  0.00    +0.000 C 
ATOM     11  N   UNL     1      48.521   3.460  19.879  0.00  0.00    +0.000 N 
ATOM     12  O   UNL     1      48.774   5.512  20.760  0.00  0.00    +0.000 OA
ATOM     13  H   UNL     1      48.429   2.803  19.121  0.00  0.00    +0.000 HD
ATOM     14  H   UNL     1      48.518   3.082  20.819  0.00  0.00    +0.000 HD
ENDBRANCH   6  10
BRANCH   1  15
ATOM     15  C   UNL     1      48.382   6.290  13.319  0.00  0.00    +0.000 C 
BRANCH  15  18
ATOM     16  C   UNL     1      44.855   4.865  13.035  0.00  0.00    +0.000 A 
ATOM     17  C   UNL     1      46.193   5.025  13.399  0.00  0.00    +0.000 A 
ATOM     18  C   UNL     1      46.914   6.156  12.994  0.00  0.00    +0.000 A 
ATOM     19  C   UNL     1      46.254   7.166  12.278  0.00  0.00    +0.000 A 
ATOM     20  C   UNL     1      44.915   7.019  11.911  0.00  0.00    +0.000 A 
ATOM     21  C   UNL     1      44.225   5.864  12.290  0.00  0.00    +0.000 A 
BRANCH  16  23
ATOM     22  C   UNL     1      43.527   3.070  12.226  0.00  0.00    +0.000 C 
ATOM     23  O   UNL     1      44.077   3.777  13.333  0.00  0.00    +0.000 OA
ENDBRANCH  16  23
BRANCH  20  24
ATOM     24  O   UNL     1      44.189   7.916  11.173  0.00  0.00    +0.000 OA
ATOM     25  C   UNL     1      44.516   9.292  11.328  0.00  0.00    +0.000 C 
ENDBRANCH  20  24
ENDBRANCH  15  18
ENDBRANCH   1  15
TORSDOF 5
ENDMDL
MODEL 9
REMARK VINA RESULT:    -5.850      4.530      8.141
REMARK INTER + INTRA:          -8.119
REMARK INTER:                  -7.416
REMARK INTRA:                  -0.703
REMARK UNBOUND:                -0.559
REMARK  Name = 
REMARK  7 active torsions:
REMARK  status: ('A' for Active; 'I' for Inactive)
REMARK    1  A    between atoms: C_1  and  O_2
REMARK    2  A    between atoms: O_2  and  C_3
REMARK    3  A    between atoms: C_5  and  C_6
REMARK    4  A    between atoms: C_6  and  N_7
REMARK    5  A    between atoms: C_12  and  C_13
REMARK    6  A    between atoms: C_20  and  O_21
REMARK    7  A    between atoms: O_21  and  C_22
REMARK                            x       y       z     vdW  Elec       q    Type
REMARK                         _______ _______ _______ _____ _____    ______ ____
ROOT
ATOM      1  N   UNL     1      48.639   6.978  14.658  0.00  0.00    +0.000 N 
ATOM      2  C   UNL     1      48.687   8.342  14.853  0.00  0.00    +0.000 A 
ATOM      3  C   UNL     1      48.717   8.579  16.208  0.00  0.00    +0.000 A 
ATOM      4  C   UNL     1      48.688   7.321  16.864  0.00  0.00    +0.000 A 
ATOM      5  C   UNL     1      48.660   6.907  18.208  0.00  0.00    +0.000 A 
ATOM      6  C   UNL     1      48.602   5.534  18.468  0.00  0.00    +0.000 A 
ATOM      7  C   UNL     1      48.587   4.658  17.383  0.00  0.00    +0.000 A 
ATOM      8  N   UNL     1      48.607   5.007  16.065  0.00  0.00    +0.000 NA
ATOM      9  C   UNL     1      48.648   6.339  15.874  0.00  0.00    +0.000 A 
ENDROOT
BRANCH   6  10
ATOM     10  C   UNL     1      48.535   4.962  19.836  0.00  0.00    +0.000 C 
ATOM     11  N   UNL     1      48.471   3.602  19.974  0.00  0.00    +0.000 N 
ATOM     12  O   UNL     1      48.539   5.681  20.827  0.00  0.00    +0.000 OA
ATOM     13  H   UNL     1      48.467   2.928  19.226  0.00  0.00    +0.000 HD
ATOM     14  H   UNL     1      48.438   3.241  20.920  0.00  0.00    +0.000 HD
ENDBRANCH   6  10
BRANCH   1  15
ATOM     15  C   UNL     1      48.463   6.326  13.365  0.00  0.00    +0.000 C 
BRANCH  15  18
ATOM     16  C   UNL     1      45.019   7.157  11.949  0.00  0.00    +0.000 A 
ATOM     17  C   UNL     1      46.379   7.231  12.250  0.00  0.00    +0.000 A 
ATOM     18  C   UNL     1      47.011   6.207  12.970  0.00  0.00    +0.000 A 
ATOM     19  C   UNL     1      46.273   5.066  13.321  0.00  0.00    +0.000 A 
ATOM     20  C   UNL     1      44.913   4.978  13.021  0.00  0.00    +0.000 A 
ATOM     21  C   UNL     1      44.294   6.029  12.339  0.00  0.00    +0.000 A 
BRANCH  16  23
ATOM     22  C   UNL     1      44.706   9.470  11.514  0.00  0.00    +0.000 C 
ATOM     23  O   UNL     1      44.296   8.123  11.300  0.00  0.00    +0.000 OA
ENDBRANCH  16  23
BRANCH  20  24
ATOM     24  O   UNL     1      44.089   3.937  13.360  0.00  0.00    +0.000 OA
ATOM     25  C   UNL     1      43.561   3.161  12.290  0.00  0.00    +0.000 C 
ENDBRANCH  20  24
ENDBRANCH  15  18
ENDBRANCH   1  15
TORSDOF 5
ENDMDL
