MODEL 1
REMARK VINA RESULT:    -7.872      0.000      0.000
REMARK INTER + INTRA:         -10.305
REMARK INTER:                 -10.173
REMARK INTRA:                  -0.132
REMARK UNBOUND:                -0.132
REMARK  Name = 
REMARK  5 active torsions:
REMARK  status: ('A' for Active; 'I' for Inactive)
REMARK    1  A    between atoms: C_2  and  C_3
REMARK    2  A    between atoms: C_6  and  C_7
REMARK    3  A    between atoms: C_11  and  C_12
REMARK    4  A    between atoms: C_12  and  N_13
REMARK    5  A    between atoms: C_17  and  C_18
REMARK                            x       y       z     vdW  Elec       q    Type
REMARK                         _______ _______ _______ _____ _____    ______ ____
ROOT
ATOM      1  C   UNL     1      46.037   7.739  12.421  0.00  0.00    +0.000 C 
ATOM      2  C   UNL     1      45.267   8.851  13.126  0.00  0.00    +0.000 C 
ATOM      3  C   UNL     1      45.976   9.146  11.850  0.00  0.00    +0.000 C 
ENDROOT
BRANCH   1   4
ATOM      4  N   UNL     1      47.288   7.250  13.032  0.00  0.00    +0.000 N 
ATOM      5  C   UNL     1      47.348   6.234  13.998  0.00  0.00    +0.000 A 
ATOM      6  C   UNL     1      46.544   5.098  13.992  0.00  0.00    +0.000 A 
ATOM      7  C   UNL     1      46.740   4.098  14.951  0.00  0.00    +0.000 A 
ATOM      8  C   UNL     1      47.736   4.245  15.912  0.00  0.00    +0.000 A 
ATOM      9  C   UNL     1      48.495   5.401  15.844  0.00  0.00    +0.000 A 
ATOM     10  N   UNL     1      48.325   6.383  14.917  0.00  0.00    +0.000 NA
ATOM     11  H   UNL     1      47.921   7.971  13.376  0.00  0.00    +0.000 HD
BRANCH   8  12
ATOM     12  C   UNL     1      47.935   3.182  16.927  0.00  0.00    +0.000 C 
ATOM     13  N   UNL     1      46.871   2.782  17.688  0.00  0.00    +0.000 N 
ATOM     14  O   UNL     1      49.031   2.657  17.090  0.00  0.00    +0.000 OA
ATOM     15  H   UNL     1      45.928   3.133  17.625  0.00  0.00    +0.000 HD
ATOM     16  H   UNL     1      47.049   2.048  18.361  0.00  0.00    +0.000 HD
ENDBRANCH   8  12
ENDBRANCH   1   4
BRANCH   1  21
ATOM     17  C   UNL     1      44.972   4.838  10.114  0.00  0.00    +0.000 A 
ATOM     18  C   UNL     1      43.675   4.576  10.580  0.00  0.00    +0.000 A 
ATOM     19  C   UNL     1      43.127   5.324  11.621  0.00  0.00    +0.000 A 
ATOM     20  C   UNL     1      43.873   6.345  12.217  0.00  0.00    +0.000 A 
ATOM     21  C   UNL     1      45.182   6.639  11.792  0.00  0.00    +0.000 A 
ATOM     22  C   UNL     1      45.700   5.863  10.746  0.00  0.00    +0.000 A 
BRANCH  17  26
ATOM     23  C   UNL     1      46.887   2.777   6.974  0.00  0.00    +0.000 A 
ATOM     24  C   UNL     1      46.199   2.024   7.918  0.00  0.00    +0.000 A 
ATOM     25  C   UNL     1      45.538   2.675   8.954  0.00  0.00    +0.000 A 
ATOM     26  C   UNL     1      45.590   4.067   9.026  0.00  0.00    +0.000 A 
ATOM     27  N   UNL     1      46.234   4.805   8.083  0.00  0.00    +0.000 NA
ATOM     28  C   UNL     1      46.867   4.154   7.086  0.00  0.00    +0.000 A 
BRANCH  23  30
ATOM     29  N   UNL     1      48.203   1.651   5.065  0.00  0.00    +0.000 NA
ATOM     30  C   UNL     1      47.607   2.153   5.918  0.00  0.00    +0.000 C 
ENDBRANCH  23  30
ENDBRANCH  17  26
ENDBRANCH   1  21
TORSDOF 5
ENDMDL
MODEL 2
REMARK VINA RESULT:    -7.413      3.542      5.579
REMARK INTER + INTRA:          -9.711
REMARK INTER:                  -8.726
REMARK INTRA:                  -0.986
REMARK UNBOUND:                -0.132
REMARK  Name = 
REMARK  5 active torsions:
REMARK  status: ('A' for Active; 'I' for Inactive)
REMARK    1  A    between atoms: C_2  and  C_3
REMARK    2  A    between atoms: C_6  and  C_7
REMARK    3  A    between atoms: C_11  and  C_12
REMARK    4  A    between atoms: C_12  and  N_13
REMARK    5  A    between atoms: C_17  and  C_18
REMARK                            x       y       z     vdW  Elec       q    Type
REMARK                         _______ _______ _______ _____ _____    ______ ____
ROOT
ATOM      1  C   UNL     1      49.414   7.444  16.835  0.00  0.00    +0.000 C 
ATOM      2  C   UNL     1      48.935   8.758  17.443  0.00  0.00    +0.000 C 
ATOM      3  C   UNL     1      50.390   8.439  17.440  0.00  0.00    +0.000 C 
ENDROOT
BRANCH   1   4
ATOM      4  N   UNL     1      49.114   6.186  17.547  0.00  0.00    +0.000 N 
ATOM      5  C   UNL     1      49.936   5.049  17.518  0.00  0.00    +0.000 A 
ATOM      6  C   UNL     1      51.327   5.087  17.532  0.00  0.00    +0.000 A 
ATOM      7  C   UNL     1      52.058   3.894  17.590  0.00  0.00    +0.000 A 
ATOM      8  C   UNL     1      51.390   2.674  17.627  0.00  0.00    +0.000 A 
ATOM      9  C   UNL     1      50.007   2.725  17.616  0.00  0.00    +0.000 A 
ATOM     10  N   UNL     1      49.277   3.872  17.567  0.00  0.00    +0.000 NA
ATOM     11  H   UNL     1      48.170   5.825  17.424  0.00  0.00    +0.000 HD
BRANCH   8  12
ATOM     12  C   UNL     1      52.172   1.415  17.684  0.00  0.00    +0.000 C 
ATOM     13  N   UNL     1      51.561   0.271  18.117  0.00  0.00    +0.000 N 
ATOM     14  O   UNL     1      53.351   1.385  17.346  0.00  0.00    +0.000 OA
ATOM     15  H   UNL     1      50.598   0.181  18.401  0.00  0.00    +0.000 HD
ATOM     16  H   UNL     1      52.130  -0.567  18.130  0.00  0.00    +0.000 HD
ENDBRANCH   8  12
ENDBRANCH   1   4
BRANCH   1  21
ATOM     17  C   UNL     1      48.108   6.425  13.353  0.00  0.00    +0.000 A 
ATOM     18  C   UNL     1      49.007   7.098  12.513  0.00  0.00    +0.000 A 
ATOM     19  C   UNL     1      50.038   7.871  13.045  0.00  0.00    +0.000 A 
ATOM     20  C   UNL     1      50.182   7.986  14.430  0.00  0.00    +0.000 A 
ATOM     21  C   UNL     1      49.300   7.338  15.315  0.00  0.00    +0.000 A 
ATOM     22  C   UNL     1      48.274   6.574  14.742  0.00  0.00    +0.000 A 
BRANCH  17  26
ATOM     23  C   UNL     1      44.929   3.985  12.044  0.00  0.00    +0.000 A 
ATOM     24  C   UNL     1      45.059   5.243  11.467  0.00  0.00    +0.000 A 
ATOM     25  C   UNL     1      46.111   6.064  11.861  0.00  0.00    +0.000 A 
ATOM     26  C   UNL     1      47.002   5.608  12.832  0.00  0.00    +0.000 A 
ATOM     27  N   UNL     1      46.894   4.364  13.371  0.00  0.00    +0.000 NA
ATOM     28  C   UNL     1      45.868   3.584  12.974  0.00  0.00    +0.000 A 
BRANCH  23  30
ATOM     29  N   UNL     1      42.970   2.425  11.430  0.00  0.00    +0.000 NA
ATOM     30  C   UNL     1      43.849   3.126  11.699  0.00  0.00    +0.000 C 
ENDBRANCH  23  30
ENDBRANCH  17  26
ENDBRANCH   1  21
TORSDOF 5
ENDMDL
MODEL 3
REMARK VINA RESULT:    -7.291      2.790      3.405
REMARK INTER + INTRA:          -9.555
REMARK INTER:                  -9.011
REMARK INTRA:                  -0.543
REMARK UNBOUND:                -0.132
REMARK  Name = 
REMARK  5 active torsions:
REMARK  status: ('A' for Active; 'I' for Inactive)
REMARK    1  A    between atoms: C_2  and  C_3
REMARK    2  A    between atoms: C_6  and  C_7
REMARK    3  A    between atoms: C_11  and  C_12
REMARK    4  A    between atoms: C_12  and  N_13
REMARK    5  A    between atoms: C_17  and  C_18
REMARK                            x       y       z     vdW  Elec       q    Type
REMARK                         _______ _______ _______ _____ _____    ______ ____
ROOT
ATOM      1  C   UNL     1      44.947   8.032  12.104  0.00  0.00    +0.000 C 
ATOM      2  C   UNL     1      43.929   9.167  12.050  0.00  0.00    +0.000 C 
ATOM      3  C   UNL     1      45.014   9.106  11.031  0.00  0.00    +0.000 C 
ENDROOT
BRANCH   1   4
ATOM      4  N   UNL     1      45.939   8.026  13.198  0.00  0.00    +0.000 N 
ATOM      5  C   UNL     1      47.328   8.064  13.002  0.00  0.00    +0.000 A 
ATOM      6  C   UNL     1      47.960   8.816  12.017  0.00  0.00    +0.000 A 
ATOM      7  C   UNL     1      49.358   8.856  11.958  0.00  0.00    +0.000 A 
ATOM      8  C   UNL     1      50.111   8.138  12.882  0.00  0.00    +0.000 A 
ATOM      9  C   UNL     1      49.405   7.421  13.832  0.00  0.00    +0.000 A 
ATOM     10  N   UNL     1      48.047   7.373  13.912  0.00  0.00    +0.000 NA
ATOM     11  H   UNL     1      45.798   7.317  13.915  0.00  0.00    +0.000 HD
BRANCH   8  12
ATOM     12  C   UNL     1      51.592   8.182  12.810  0.00  0.00    +0.000 C 
ATOM     13  N   UNL     1      52.321   7.964  13.946  0.00  0.00    +0.000 N 
ATOM     14  O   UNL     1      52.169   8.406  11.751  0.00  0.00    +0.000 OA
ATOM     15  H   UNL     1      51.950   7.756  14.860  0.00  0.00    +0.000 HD
ATOM     16  H   UNL     1      53.328   7.994  13.849  0.00  0.00    +0.000 HD
ENDBRANCH   8  12
ENDBRANCH   1   4
BRANCH   1  21
ATOM     17  C   UNL     1      44.600   4.618  10.346  0.00  0.00    +0.000 A 
ATOM     18  C   UNL     1      43.498   4.071  11.021  0.00  0.00    +0.000 A 
ATOM     19  C   UNL     1      42.853   4.785  12.030  0.00  0.00    +0.000 A 
ATOM     20  C   UNL     1      43.306   6.059  12.384  0.00  0.00    +0.000 A 
ATOM     21  C   UNL     1      44.413   6.647  11.743  0.00  0.00    +0.000 A 
ATOM     22  C   UNL     1      45.037   5.897  10.737  0.00  0.00    +0.000 A 
BRANCH  17  26
ATOM     23  C   UNL     1      46.780   2.703   7.288  0.00  0.00    +0.000 A 
ATOM     24  C   UNL     1      46.097   1.901   8.196  0.00  0.00    +0.000 A 
ATOM     25  C   UNL     1      45.350   2.503   9.204  0.00  0.00    +0.000 A 
ATOM     26  C   UNL     1      45.313   3.895   9.284  0.00  0.00    +0.000 A 
ATOM     27  N   UNL     1      45.953   4.678   8.375  0.00  0.00    +0.000 NA
ATOM     28  C   UNL     1      46.670   4.075   7.405  0.00  0.00    +0.000 A 
BRANCH  23  30
ATOM     29  N   UNL     1      48.238   1.657   5.436  0.00  0.00    +0.000 NA
ATOM     30  C   UNL     1      47.584   2.133   6.264  0.00  0.00    +0.000 C 
ENDBRANCH  23  30
ENDBRANCH  17  26
ENDBRANCH   1  21
TORSDOF 5
ENDMDL
MODEL 4
REMARK VINA RESULT:    -6.959      3.727      7.583
REMARK INTER + INTRA:          -9.125
REMARK INTER:                  -8.799
REMARK INTRA:                  -0.326
REMARK UNBOUND:                -0.132
REMARK  Name = 
REMARK  5 active torsions:
REMARK  status: ('A' for Active; 'I' for Inactive)
REMARK    1  A    between atoms: C_2  and  C_3
REMARK    2  A    between atoms: C_6  and  C_7
REMARK    3  A    between atoms: C_11  and  C_12
REMARK    4  A    between atoms: C_12  and  N_13
REMARK    5  A    between atoms: C_17  and  C_18
REMARK                            x       y       z     vdW  Elec       q    Type
REMARK                         _______ _______ _______ _____ _____    ______ ____
ROOT
ATOM      1  C   UNL     1      47.676   8.472  13.458  0.00  0.00    +0.000 C 
ATOM      2  C   UNL     1      48.658   8.080  12.359  0.00  0.00    +0.000 C 
ATOM      3  C   UNL     1      48.327   9.517  12.568  0.00  0.00    +0.000 C 
ENDROOT
BRANCH   1   4
ATOM      4  N   UNL     1      46.248   8.143  13.279  0.00  0.00    +0.000 N 
ATOM      5  C   UNL     1      45.777   6.900  12.827  0.00  0.00    +0.000 A 
ATOM      6  C   UNL     1      46.333   5.675  13.182  0.00  0.00    +0.000 A 
ATOM      7  C   UNL     1      45.736   4.485  12.750  0.00  0.00    +0.000 A 
ATOM      8  C   UNL     1      44.591   4.532  11.961  0.00  0.00    +0.000 A 
ATOM      9  C   UNL     1      44.099   5.789  11.658  0.00  0.00    +0.000 A 
ATOM     10  N   UNL     1      44.659   6.958  12.073  0.00  0.00    +0.000 NA
ATOM     11  H   UNL     1      45.699   8.829  12.763  0.00  0.00    +0.000 HD
BRANCH   8  12
ATOM     12  C   UNL     1      43.967   3.266  11.503  0.00  0.00    +0.000 C 
ATOM     13  N   UNL     1      43.703   2.285  12.418  0.00  0.00    +0.000 N 
ATOM     14  O   UNL     1      43.683   3.089  10.323  0.00  0.00    +0.000 OA
ATOM     15  H   UNL     1      43.879   2.333  13.410  0.00  0.00    +0.000 HD
ATOM     16  H   UNL     1      43.268   1.443  12.064  0.00  0.00    +0.000 HD
ENDBRANCH   8  12
ENDBRANCH   1   4
BRANCH   1  21
ATOM     17  C   UNL     1      49.226   6.827  16.583  0.00  0.00    +0.000 A 
ATOM     18  C   UNL     1      49.146   7.873  17.513  0.00  0.00    +0.000 A 
ATOM     19  C   UNL     1      48.592   9.102  17.159  0.00  0.00    +0.000 A 
ATOM     20  C   UNL     1      48.113   9.306  15.862  0.00  0.00    +0.000 A 
ATOM     21  C   UNL     1      48.179   8.290  14.890  0.00  0.00    +0.000 A 
ATOM     22  C   UNL     1      48.746   7.070  15.283  0.00  0.00    +0.000 A 
BRANCH  17  26
ATOM     23  C   UNL     1      50.772   2.990  17.394  0.00  0.00    +0.000 A 
ATOM     24  C   UNL     1      51.622   4.078  17.556  0.00  0.00    +0.000 A 
ATOM     25  C   UNL     1      51.136   5.359  17.318  0.00  0.00    +0.000 A 
ATOM     26  C   UNL     1      49.811   5.519  16.912  0.00  0.00    +0.000 A 
ATOM     27  N   UNL     1      48.971   4.458  16.787  0.00  0.00    +0.000 NA
ATOM     28  C   UNL     1      49.462   3.224  17.025  0.00  0.00    +0.000 A 
BRANCH  23  30
ATOM     29  N   UNL     1      51.611   0.576  17.740  0.00  0.00    +0.000 NA
ATOM     30  C   UNL     1      51.235   1.660  17.592  0.00  0.00    +0.000 C 
ENDBRANCH  23  30
ENDBRANCH  17  26
ENDBRANCH   1  21
TORSDOF 5
ENDMDL
MODEL 5
REMARK VINA RESULT:    -6.878      2.471      3.549
REMARK INTER + INTRA:          -9.021
REMARK INTER:                  -7.961
REMARK INTRA:                  -1.060
REMARK UNBOUND:                -0.132
REMARK  Name = 
REMARK  5 active torsions:
REMARK  status: ('A' for Active; 'I' for Inactive)
REMARK    1  A    between atoms: C_2  and  C_3
REMARK    2  A    between atoms: C_6  and  C_7
REMARK    3  A    between atoms: C_11  and  C_12
REMARK    4  A    between atoms: C_12  and  N_13
REMARK    5  A    between atoms: C_17  and  C_18
REMARK                            x       y       z     vdW  Elec       q    Type
REMARK                         _______ _______ _______ _____ _____    ______ ____
ROOT
ATOM      1  C   UNL     1      49.311   8.706  12.608  0.00  0.00    +0.000 C 
ATOM      2  C   UNL     1      50.054   9.482  11.524  0.00  0.00    +0.000 C 
ATOM      3  C   UNL     1      50.320   8.026  11.697  0.00  0.00    +0.000 C 
ENDROOT
BRANCH   1   4
ATOM      4  N   UNL     1      49.656   8.962  14.020  0.00  0.00    +0.000 N 
ATOM      5  C   UNL     1      49.205   8.180  15.095  0.00  0.00    +0.000 A 
ATOM      6  C   UNL     1      49.075   6.795  15.056  0.00  0.00    +0.000 A 
ATOM      7  C   UNL     1      48.700   6.096  16.209  0.00  0.00    +0.000 A 
ATOM      8  C   UNL     1      48.455   6.789  17.390  0.00  0.00    +0.000 A 
ATOM      9  C   UNL     1      48.613   8.163  17.346  0.00  0.00    +0.000 A 
ATOM     10  N   UNL     1      48.982   8.862  16.238  0.00  0.00    +0.000 NA
ATOM     11  H   UNL     1      49.539   9.924  14.334  0.00  0.00    +0.000 HD
BRANCH   8  12
ATOM     12  C   UNL     1      48.055   6.040  18.607  0.00  0.00    +0.000 C 
ATOM     13  N   UNL     1      46.805   5.489  18.667  0.00  0.00    +0.000 N 
ATOM     14  O   UNL     1      48.825   5.906  19.552  0.00  0.00    +0.000 OA
ATOM     15  H   UNL     1      46.103   5.524  17.945  0.00  0.00    +0.000 HD
ATOM     16  H   UNL     1      46.578   4.978  19.512  0.00  0.00    +0.000 HD
ENDBRANCH   8  12
ENDBRANCH   1   4
BRANCH   1  21
ATOM     17  C   UNL     1      46.007   7.006  11.577  0.00  0.00    +0.000 A 
ATOM     18  C   UNL     1      45.074   8.006  11.886  0.00  0.00    +0.000 A 
ATOM     19  C   UNL     1      45.487   9.229  12.414  0.00  0.00    +0.000 A 
ATOM     20  C   UNL     1      46.845   9.467  12.646  0.00  0.00    +0.000 A 
ATOM     21  C   UNL     1      47.819   8.492  12.361  0.00  0.00    +0.000 A 
ATOM     22  C   UNL     1      47.364   7.274  11.836  0.00  0.00    +0.000 A 
BRANCH  17  26
ATOM     23  C   UNL     1      45.010   3.292   9.849  0.00  0.00    +0.000 A 
ATOM     24  C   UNL     1      44.865   3.426  11.226  0.00  0.00    +0.000 A 
ATOM     25  C   UNL     1      45.164   4.645  11.823  0.00  0.00    +0.000 A 
ATOM     26  C   UNL     1      45.612   5.700  11.029  0.00  0.00    +0.000 A 
ATOM     27  N   UNL     1      45.721   5.580   9.679  0.00  0.00    +0.000 NA
ATOM     28  C   UNL     1      45.424   4.389   9.119  0.00  0.00    +0.000 A 
BRANCH  23  30
ATOM     29  N   UNL     1      44.548   1.042   8.678  0.00  0.00    +0.000 NA
ATOM     30  C   UNL     1      44.750   2.054   9.200  0.00  0.00    +0.000 C 
ENDBRANCH  23  30
ENDBRANCH  17  26
ENDBRANCH   1  21
TORSDOF 5
ENDMDL
MODEL 6
REMARK VINA RESULT:    -6.453      5.323      7.770
REMARK INTER + INTRA:          -8.472
REMARK INTER:                  -7.888
REMARK INTRA:                  -0.584
REMARK UNBOUND:                -0.132
REMARK  Name = 
REMARK  5 active torsions:
REMARK  status: ('A' for Active; 'I' for Inactive)
REMARK    1  A    between atoms: C_2  and  C_3
REMARK    2  A    between atoms: C_6  and  C_7
REMARK    3  A    between atoms: C_11  and  C_12
REMARK    4  A    between atoms: C_12  and  N_13
REMARK    5  A    between atoms: C_17  and  C_18
REMARK                            x       y       z     vdW  Elec       q    Type
REMARK                         _______ _______ _______ _____ _____    ______ ____
ROOT
ATOM      1  C   UNL     1      51.859   9.011  11.603  0.00  0.00    +0.000 C 
ATOM      2  C   UNL     1      52.007  10.525  11.716  0.00  0.00    +0.000 C 
ATOM      3  C   UNL     1      51.181   9.949  10.619  0.00  0.00    +0.000 C 
ENDROOT
BRANCH   1   4
ATOM      4  N   UNL     1      53.028   8.219  11.173  0.00  0.00    +0.000 N 
ATOM      5  C   UNL     1      53.035   7.366  10.059  0.00  0.00    +0.000 A 
ATOM      6  C   UNL     1      52.391   7.642   8.856  0.00  0.00    +0.000 A 
ATOM      7  C   UNL     1      52.530   6.767   7.773  0.00  0.00    +0.000 A 
ATOM      8  C   UNL     1      53.308   5.621   7.903  0.00  0.00    +0.000 A 
ATOM      9  C   UNL     1      53.918   5.423   9.129  0.00  0.00    +0.000 A 
ATOM     10  N   UNL     1      53.802   6.263  10.194  0.00  0.00    +0.000 NA
ATOM     11  H   UNL     1      53.494   7.688  11.908  0.00  0.00    +0.000 HD
BRANCH   8  12
ATOM     12  C   UNL     1      53.446   4.697   6.751  0.00  0.00    +0.000 C 
ATOM     13  N   UNL     1      53.111   3.380   6.909  0.00  0.00    +0.000 N 
ATOM     14  O   UNL     1      53.850   5.095   5.663  0.00  0.00    +0.000 OA
ATOM     15  H   UNL     1      52.755   2.954   7.750  0.00  0.00    +0.000 HD
ATOM     16  H   UNL     1      53.211   2.789   6.094  0.00  0.00    +0.000 HD
ENDBRANCH   8  12
ENDBRANCH   1   4
BRANCH   1  21
ATOM     17  C   UNL     1      49.040   7.008  13.309  0.00  0.00    +0.000 A 
ATOM     18  C   UNL     1      49.432   7.072  14.654  0.00  0.00    +0.000 A 
ATOM     19  C   UNL     1      50.586   7.757  15.030  0.00  0.00    +0.000 A 
ATOM     20  C   UNL     1      51.371   8.388  14.060  0.00  0.00    +0.000 A 
ATOM     21  C   UNL     1      51.026   8.345  12.697  0.00  0.00    +0.000 A 
ATOM     22  C   UNL     1      49.861   7.642  12.358  0.00  0.00    +0.000 A 
BRANCH  17  26
ATOM     23  C   UNL     1      45.557   4.884  12.247  0.00  0.00    +0.000 A 
ATOM     24  C   UNL     1      45.912   5.977  11.465  0.00  0.00    +0.000 A 
ATOM     25  C   UNL     1      47.068   6.686  11.776  0.00  0.00    +0.000 A 
ATOM     26  C   UNL     1      47.836   6.288  12.870  0.00  0.00    +0.000 A 
ATOM     27  N   UNL     1      47.507   5.198  13.613  0.00  0.00    +0.000 NA
ATOM     28  C   UNL     1      46.384   4.524  13.294  0.00  0.00    +0.000 A 
BRANCH  23  30
ATOM     29  N   UNL     1      43.394   3.557  11.791  0.00  0.00    +0.000 NA
ATOM     30  C   UNL     1      44.366   4.151  11.989  0.00  0.00    +0.000 C 
ENDBRANCH  23  30
ENDBRANCH  17  26
ENDBRANCH   1  21
TORSDOF 5
ENDMDL
MODEL 7
REMARK VINA RESULT:    -6.414      3.952      8.296
REMARK INTER + INTRA:          -8.421
REMARK INTER:                  -8.000
REMARK INTRA:                  -0.421
REMARK UNBOUND:                -0.132
REMARK  Name = 
REMARK  5 active torsions:
REMARK  status: ('A' for Active; 'I' for Inactive)
REMARK    1  A    between atoms: C_2  and  C_3
REMARK    2  A    between atoms: C_6  and  C_7
REMARK    3  A    between atoms: C_11  and  C_12
REMARK    4  A    between atoms: C_12  and  N_13
REMARK    5  A    between atoms: C_17  and  C_18
REMARK                            x       y       z     vdW  Elec       q    Type
REMARK                         _______ _______ _______ _____ _____    ______ ____
ROOT
ATOM      1  C   UNL     1      48.788   7.832  14.458  0.00  0.00    +0.000 C 
ATOM      2  C   UNL     1      49.737   8.917  13.958  0.00  0.00    +0.000 C 
ATOM      3  C   UNL     1      48.304   9.248  14.192  0.00  0.00    +0.000 C 
ENDROOT
BRANCH   1   4
ATOM      4  N   UNL     1      48.413   6.744  13.534  0.00  0.00    +0.000 N 
ATOM      5  C   UNL     1      47.121   6.560  13.018  0.00  0.00    +0.000 A 
ATOM      6  C   UNL     1      46.275   7.596  12.633  0.00  0.00    +0.000 A 
ATOM      7  C   UNL     1      45.038   7.307  12.047  0.00  0.00    +0.000 A 
ATOM      8  C   UNL     1      44.654   5.983  11.855  0.00  0.00    +0.000 A 
ATOM      9  C   UNL     1      45.555   5.013  12.260  0.00  0.00    +0.000 A 
ATOM     10  N   UNL     1      46.765   5.272  12.826  0.00  0.00    +0.000 NA
ATOM     11  H   UNL     1      48.717   5.811  13.806  0.00  0.00    +0.000 HD
BRANCH   8  12
ATOM     12  C   UNL     1      43.339   5.685  11.237  0.00  0.00    +0.000 C 
ATOM     13  N   UNL     1      42.224   6.321  11.708  0.00  0.00    +0.000 N 
ATOM     14  O   UNL     1      43.239   4.885  10.313  0.00  0.00    +0.000 OA
ATOM     15  H   UNL     1      42.196   7.006  12.447  0.00  0.00    +0.000 HD
ATOM     16  H   UNL     1      41.349   6.096  11.250  0.00  0.00    +0.000 HD
ENDBRANCH   8  12
ENDBRANCH   1   4
BRANCH   1  21
ATOM     17  C   UNL     1      49.986   5.726  17.458  0.00  0.00    +0.000 A 
ATOM     18  C   UNL     1      49.472   6.463  18.535  0.00  0.00    +0.000 A 
ATOM     19  C   UNL     1      48.735   7.627  18.316  0.00  0.00    +0.000 A 
ATOM     20  C   UNL     1      48.505   8.074  17.012  0.00  0.00    +0.000 A 
ATOM     21  C   UNL     1      49.008   7.375  15.899  0.00  0.00    +0.000 A 
ATOM     22  C   UNL     1      49.747   6.213  16.160  0.00  0.00    +0.000 A 
BRANCH  17  26
ATOM     23  C   UNL     1      52.166   2.136  17.820  0.00  0.00    +0.000 A 
ATOM     24  C   UNL     1      52.717   3.287  18.372  0.00  0.00    +0.000 A 
ATOM     25  C   UNL     1      52.012   4.484  18.289  0.00  0.00    +0.000 A 
ATOM     26  C   UNL     1      50.775   4.500  17.645  0.00  0.00    +0.000 A 
ATOM     27  N   UNL     1      50.221   3.368  17.136  0.00  0.00    +0.000 NA
ATOM     28  C   UNL     1      50.920   2.218  17.229  0.00  0.00    +0.000 A 
BRANCH  23  30
ATOM     29  N   UNL     1      53.441  -0.104  17.885  0.00  0.00    +0.000 NA
ATOM     30  C   UNL     1      52.866   0.899  17.850  0.00  0.00    +0.000 C 
ENDBRANCH  23  30
ENDBRANCH  17  26
ENDBRANCH   1  21
TORSDOF 5
ENDMDL
MODEL 8
REMARK VINA RESULT:    -6.310      5.523      7.974
REMARK INTER + INTRA:          -8.287
REMARK INTER:                  -7.227
REMARK INTRA:                  -1.060
REMARK UNBOUND:                -0.132
REMARK  Name = 
REMARK  5 active torsions:
REMARK  status: ('A' for Active; 'I' for Inactive)
REMARK    1  A    between atoms: C_2  and  C_3
REMARK    2  A    between atoms: C_6  and  C_7
REMARK    3  A    between atoms: C_11  and  C_12
REMARK    4  A    between atoms: C_12  and  N_13
REMARK    5  A    between atoms: C_17  and  C_18
REMARK                            x       y       z     vdW  Elec       q    Type
REMARK                         _______ _______ _______ _____ _____    ______ ____
ROOT
ATOM      1  C   UNL     1      51.758   8.550  12.506  0.00  0.00    +0.000 C 
ATOM      2  C   UNL     1      52.158   8.480  13.977  0.00  0.00    +0.000 C 
ATOM      3  C   UNL     1      52.616   9.628  13.146  0.00  0.00    +0.000 C 
ENDROOT
BRANCH   1   4
ATOM      4  N   UNL     1      52.369   7.591  11.564  0.00  0.00    +0.000 N 
ATOM      5  C   UNL     1      52.510   7.822  10.187  0.00  0.00    +0.000 A 
ATOM      6  C   UNL     1      52.836   9.054   9.628  0.00  0.00    +0.000 A 
ATOM      7  C   UNL     1      53.041   9.163   8.248  0.00  0.00    +0.000 A 
ATOM      8  C   UNL     1      52.912   8.038   7.438  0.00  0.00    +0.000 A 
ATOM      9  C   UNL     1      52.591   6.851   8.073  0.00  0.00    +0.000 A 
ATOM     10  N   UNL     1      52.394   6.722   9.414  0.00  0.00    +0.000 NA
ATOM     11  H   UNL     1      52.032   6.632  11.632  0.00  0.00    +0.000 HD
BRANCH   8  12
ATOM     12  C   UNL     1      53.126   8.164   5.975  0.00  0.00    +0.000 C 
ATOM     13  N   UNL     1      52.779   9.329   5.349  0.00  0.00    +0.000 N 
ATOM     14  O   UNL     1      53.610   7.244   5.324  0.00  0.00    +0.000 OA
ATOM     15  H   UNL     1      52.392  10.149   5.789  0.00  0.00    +0.000 HD
ATOM     16  H   UNL     1      52.952   9.374   4.353  0.00  0.00    +0.000 HD
ENDBRANCH   8  12
ENDBRANCH   1   4
BRANCH   1  21
ATOM     17  C   UNL     1      47.981   7.961  12.005  0.00  0.00    +0.000 A 
ATOM     18  C   UNL     1      47.529   9.265  11.755  0.00  0.00    +0.000 A 
ATOM     19  C   UNL     1      48.420  10.337  11.735  0.00  0.00    +0.000 A 
ATOM     20  C   UNL     1      49.780  10.120  11.970  0.00  0.00    +0.000 A 
ATOM     21  C   UNL     1      50.281   8.831  12.235  0.00  0.00    +0.000 A 
ATOM     22  C   UNL     1      49.354   7.780  12.251  0.00  0.00    +0.000 A 
BRANCH  17  26
ATOM     23  C   UNL     1      45.352   4.680  12.322  0.00  0.00    +0.000 A 
ATOM     24  C   UNL     1      45.429   5.332  11.097  0.00  0.00    +0.000 A 
ATOM     25  C   UNL     1      46.303   6.404  10.953  0.00  0.00    +0.000 A 
ATOM     26  C   UNL     1      47.073   6.805  12.045  0.00  0.00    +0.000 A 
ATOM     27  N   UNL     1      47.023   6.145  13.232  0.00  0.00    +0.000 NA
ATOM     28  C   UNL     1      46.170   5.107  13.350  0.00  0.00    +0.000 A 
BRANCH  23  30
ATOM     29  N   UNL     1      43.713   2.722  12.679  0.00  0.00    +0.000 NA
ATOM     30  C   UNL     1      44.448   3.602  12.526  0.00  0.00    +0.000 C 
ENDBRANCH  23  30
ENDBRANCH  17  26
ENDBRANCH   1  21
TORSDOF 5
ENDMDL
MODEL 9
REMARK VINA RESULT:    -6.224      3.364      4.819
REMARK INTER + INTRA:          -8.175
REMARK INTER:                  -7.859
REMARK INTRA:                  -0.317
REMARK UNBOUND:                -0.132
REMARK  Name = 
REMARK  5 active torsions:
REMARK  status: ('A' for Active; 'I' for Inactive)
REMARK    1  A    between atoms: C_2  and  C_3
REMARK    2  A    between atoms: C_6  and  C_7
REMARK    3  A    between atoms: C_11  and  C_12
REMARK    4  A    between atoms: C_12  and  N_13
REMARK    5  A    between atoms: C_17  and  C_18
REMARK                            x       y       z     vdW  Elec       q    Type
REMARK                         _______ _______ _______ _____ _____    ______ ____
ROOT
ATOM      1  C   UNL     1      50.042   8.744  14.428  0.00  0.00    +0.000 C 
ATOM      2  C   UNL     1      50.246   9.818  15.491  0.00  0.00    +0.000 C 
ATOM      3  C   UNL     1      51.138   9.788  14.299  0.00  0.00    +0.000 C 
ENDROOT
BRANCH   1   4
ATOM      4  N   UNL     1      50.395   7.349  14.758  0.00  0.00    +0.000 N 
ATOM      5  C   UNL     1      50.030   6.706  15.951  0.00  0.00    +0.000 A 
ATOM      6  C   UNL     1      48.805   6.873  16.589  0.00  0.00    +0.000 A 
ATOM      7  C   UNL     1      48.503   6.119  17.729  0.00  0.00    +0.000 A 
ATOM      8  C   UNL     1      49.431   5.207  18.223  0.00  0.00    +0.000 A 
ATOM      9  C   UNL     1      50.622   5.098  17.527  0.00  0.00    +0.000 A 
ATOM     10  N   UNL     1      50.934   5.816  16.414  0.00  0.00    +0.000 NA
ATOM     11  H   UNL     1      51.372   7.097  14.616  0.00  0.00    +0.000 HD
BRANCH   8  12
ATOM     12  C   UNL     1      49.104   4.415  19.434  0.00  0.00    +0.000 C 
ATOM     13  N   UNL     1      48.395   3.254  19.298  0.00  0.00    +0.000 N 
ATOM     14  O   UNL     1      49.461   4.783  20.548  0.00  0.00    +0.000 OA
ATOM     15  H   UNL     1      48.068   2.853  18.432  0.00  0.00    +0.000 HD
ATOM     16  H   UNL     1      48.203   2.741  20.149  0.00  0.00    +0.000 HD
ENDBRANCH   8  12
ENDBRANCH   1   4
BRANCH   1  21
ATOM     17  C   UNL     1      46.764   7.817  12.620  0.00  0.00    +0.000 A 
ATOM     18  C   UNL     1      46.407   9.047  12.048  0.00  0.00    +0.000 A 
ATOM     19  C   UNL     1      47.208  10.175  12.225  0.00  0.00    +0.000 A 
ATOM     20  C   UNL     1      48.379  10.089  12.982  0.00  0.00    +0.000 A 
ATOM     21  C   UNL     1      48.775   8.880  13.584  0.00  0.00    +0.000 A 
ATOM     22  C   UNL     1      47.942   7.770  13.387  0.00  0.00    +0.000 A 
BRANCH  17  26
ATOM     23  C   UNL     1      44.410   4.380  11.974  0.00  0.00    +0.000 A 
ATOM     24  C   UNL     1      45.241   4.396  13.089  0.00  0.00    +0.000 A 
ATOM     25  C   UNL     1      46.013   5.524  13.343  0.00  0.00    +0.000 A 
ATOM     26  C   UNL     1      45.944   6.607  12.466  0.00  0.00    +0.000 A 
ATOM     27  N   UNL     1      45.106   6.604  11.396  0.00  0.00    +0.000 NA
ATOM     28  C   UNL     1      44.364   5.501  11.169  0.00  0.00    +0.000 A 
BRANCH  23  30
ATOM     29  N   UNL     1      42.994   2.307  11.385  0.00  0.00    +0.000 NA
ATOM     30  C   UNL     1      43.629   3.235  11.656  0.00  0.00    +0.000 C 
ENDBRANCH  23  30
ENDBRANCH  17  26
ENDBRANCH   1  21
TORSDOF 5
ENDMDL
