MODEL 1
REMARK VINA RESULT:    -8.408      0.000      0.000
REMARK INTER + INTRA:         -11.574
REMARK INTER:                 -10.866
REMARK INTRA:                  -0.708
REMARK UNBOUND:                -0.708
REMARK  Name = 
REMARK  5 active torsions:
REMARK  status: ('A' for Active; 'I' for Inactive)
REMARK    1  A    between atoms: C_2  and  C_3
REMARK    2  A    between atoms: C_6  and  N_7
REMARK    3  A    between atoms: N_7  and  C_8
REMARK    4  A    between atoms: C_8  and  C_9
REMARK    5  A    between atoms: C_13  and  C_14
REMARK                            x       y       z     vdW  Elec       q    Type
REMARK                         _______ _______ _______ _____ _____    ______ ____
ROOT
ATOM      1  C   UNL     1      43.919   4.912  11.178  0.00  0.00    +0.000 C 
ATOM      2  C   UNL     1      42.632   5.276  11.917  0.00  0.00    +0.000 C 
ATOM      3  C   UNL     1      43.398   6.342  11.211  0.00  0.00    +0.000 C 
ENDROOT
BRANCH   1   4
ATOM      4  C   UNL     1      45.154   4.643  12.021  0.00  0.00    +0.000 A 
ATOM      5  C   UNL     1      45.407   3.411  12.624  0.00  0.00    +0.000 A 
ATOM      6  N   UNL     1      46.393   3.175  13.526  0.00  0.00    +0.000 NA
ATOM      7  C   UNL     1      47.172   4.231  13.867  0.00  0.00    +0.000 A 
ATOM      8  C   UNL     1      47.038   5.495  13.320  0.00  0.00    +0.000 A 
ATOM      9  C   UNL     1      46.042   5.676  12.358  0.00  0.00    +0.000 A 
BRANCH   8  10
ATOM     10  C   UNL     1      47.832   6.674  13.738  0.00  0.00    +0.000 C 
ATOM     11  N   UNL     1      47.183   7.845  14.010  0.00  0.00    +0.000 N 
ATOM     12  O   UNL     1      49.056   6.629  13.782  0.00  0.00    +0.000 OA
ATOM     13  H   UNL     1      46.203   8.018  13.848  0.00  0.00    +0.000 HD
ATOM     14  H   UNL     1      47.775   8.650  14.176  0.00  0.00    +0.000 HD
ENDBRANCH   8  10
ENDBRANCH   1   4
BRANCH   1  15
ATOM     15  N   UNL     1      43.697   4.007  10.048  0.00  0.00    +0.000 N 
ATOM     16  H   UNL     1      42.819   3.498  10.005  0.00  0.00    +0.000 HD
BRANCH  15  20
ATOM     17  C   UNL     1      46.655   2.510   7.430  0.00  0.00    +0.000 A 
ATOM     18  C   UNL     1      45.951   1.624   8.253  0.00  0.00    +0.000 A 
ATOM     19  C   UNL     1      44.979   2.100   9.148  0.00  0.00    +0.000 A 
ATOM     20  C   UNL     1      44.672   3.462   9.201  0.00  0.00    +0.000 A 
ATOM     21  C   UNL     1      45.385   4.340   8.370  0.00  0.00    +0.000 A 
ATOM     22  C   UNL     1      46.380   3.876   7.501  0.00  0.00    +0.000 A 
BRANCH  17  24
ATOM     23  N   UNL     1      48.464   1.616   5.796  0.00  0.00    +0.000 NA
ATOM     24  C   UNL     1      47.663   2.021   6.533  0.00  0.00    +0.000 C 
ENDBRANCH  17  24
ENDBRANCH  15  20
ENDBRANCH   1  15
TORSDOF 5
ENDMDL
MODEL 2
REMARK VINA RESULT:    -8.313      1.362      2.133
REMARK INTER + INTRA:         -11.451
REMARK INTER:                 -10.842
REMARK INTRA:                  -0.609
REMARK UNBOUND:                -0.708
REMARK  Name = 
REMARK  5 active torsions:
REMARK  status: ('A' for Active; 'I' for Inactive)
REMARK    1  A    between atoms: C_2  and  C_3
REMARK    2  A    between atoms: C_6  and  N_7
REMARK    3  A    between atoms: N_7  and  C_8
REMARK    4  A    between atoms: C_8  and  C_9
REMARK    5  A    between atoms: C_13  and  C_14
REMARK                            x       y       z     vdW  Elec       q    Type
REMARK                         _______ _______ _______ _____ _____    ______ ____
ROOT
ATOM      1  C   UNL     1      43.896   5.108  11.293  0.00  0.00    +0.000 C 
ATOM      2  C   UNL     1      42.564   5.366  11.996  0.00  0.00    +0.000 C 
ATOM      3  C   UNL     1      42.992   6.263  10.884  0.00  0.00    +0.000 C 
ENDROOT
BRANCH   1   4
ATOM      4  C   UNL     1      45.163   5.497  12.036  0.00  0.00    +0.000 A 
ATOM      5  C   UNL     1      46.087   6.412  11.532  0.00  0.00    +0.000 A 
ATOM      6  N   UNL     1      47.310   6.655  12.067  0.00  0.00    +0.000 NA
ATOM      7  C   UNL     1      47.650   5.935  13.164  0.00  0.00    +0.000 A 
ATOM      8  C   UNL     1      46.811   5.017  13.772  0.00  0.00    +0.000 A 
ATOM      9  C   UNL     1      45.543   4.839  13.216  0.00  0.00    +0.000 A 
BRANCH   8  10
ATOM     10  C   UNL     1      47.196   4.169  14.924  0.00  0.00    +0.000 C 
ATOM     11  N   UNL     1      47.196   4.716  16.176  0.00  0.00    +0.000 N 
ATOM     12  O   UNL     1      47.572   3.014  14.762  0.00  0.00    +0.000 OA
ATOM     13  H   UNL     1      47.056   5.693  16.384  0.00  0.00    +0.000 HD
ATOM     14  H   UNL     1      47.578   4.135  16.913  0.00  0.00    +0.000 HD
ENDBRANCH   8  10
ENDBRANCH   1   4
BRANCH   1  15
ATOM     15  N   UNL     1      43.930   3.829  10.579  0.00  0.00    +0.000 N 
ATOM     16  H   UNL     1      43.476   3.027  11.007  0.00  0.00    +0.000 HD
BRANCH  15  20
ATOM     17  C   UNL     1      46.589   2.560   7.551  0.00  0.00    +0.000 A 
ATOM     18  C   UNL     1      46.307   3.923   7.694  0.00  0.00    +0.000 A 
ATOM     19  C   UNL     1      45.409   4.368   8.678  0.00  0.00    +0.000 A 
ATOM     20  C   UNL     1      44.814   3.459   9.556  0.00  0.00    +0.000 A 
ATOM     21  C   UNL     1      45.105   2.094   9.404  0.00  0.00    +0.000 A 
ATOM     22  C   UNL     1      45.972   1.641   8.401  0.00  0.00    +0.000 A 
BRANCH  17  24
ATOM     23  N   UNL     1      48.214   1.725   5.707  0.00  0.00    +0.000 NA
ATOM     24  C   UNL     1      47.490   2.109   6.529  0.00  0.00    +0.000 C 
ENDBRANCH  17  24
ENDBRANCH  15  20
ENDBRANCH   1  15
TORSDOF 5
ENDMDL
MODEL 3
REMARK VINA RESULT:    -7.680      1.927      2.256
REMARK INTER + INTRA:         -10.632
REMARK INTER:                 -10.305
REMARK INTRA:                  -0.327
REMARK UNBOUND:                -0.708
REMARK  Name = 
REMARK  5 active torsions:
REMARK  status: ('A' for Active; 'I' for Inactive)
REMARK    1  A    between atoms: C_2  and  C_3
REMARK    2  A    between atoms: C_6  and  N_7
REMARK    3  A    between atoms: N_7  and  C_8
REMARK    4  A    between atoms: C_8  and  C_9
REMARK    5  A    between atoms: C_13  and  C_14
REMARK                            x       y       z     vdW  Elec       q    Type
REMARK                         _______ _______ _______ _____ _____    ______ ____
ROOT
ATOM      1  C   UNL     1      43.807   5.019  11.523  0.00  0.00    +0.000 C 
ATOM      2  C   UNL     1      43.497   3.942  12.562  0.00  0.00    +0.000 C 
ATOM      3  C   UNL     1      42.650   5.168  12.501  0.00  0.00    +0.000 C 
ENDROOT
BRANCH   1   4
ATOM      4  C   UNL     1      45.007   5.913  11.783  0.00  0.00    +0.000 A 
ATOM      5  C   UNL     1      46.225   5.428  12.261  0.00  0.00    +0.000 A 
ATOM      6  N   UNL     1      47.260   6.201  12.677  0.00  0.00    +0.000 NA
ATOM      7  C   UNL     1      47.074   7.543  12.633  0.00  0.00    +0.000 A 
ATOM      8  C   UNL     1      45.923   8.146  12.156  0.00  0.00    +0.000 A 
ATOM      9  C   UNL     1      44.906   7.310  11.691  0.00  0.00    +0.000 A 
BRANCH   8  10
ATOM     10  C   UNL     1      45.677   9.607  12.173  0.00  0.00    +0.000 C 
ATOM     11  N   UNL     1      44.447  10.065  12.548  0.00  0.00    +0.000 N 
ATOM     12  O   UNL     1      46.536  10.397  11.797  0.00  0.00    +0.000 OA
ATOM     13  H   UNL     1      43.637   9.488  12.719  0.00  0.00    +0.000 HD
ATOM     14  H   UNL     1      44.290  11.059  12.431  0.00  0.00    +0.000 HD
ENDBRANCH   8  10
ENDBRANCH   1   4
BRANCH   1  15
ATOM     15  N   UNL     1      43.632   4.555  10.144  0.00  0.00    +0.000 N 
ATOM     16  H   UNL     1      42.687   4.474   9.781  0.00  0.00    +0.000 HD
BRANCH  15  20
ATOM     17  C   UNL     1      46.480   2.586   7.724  0.00  0.00    +0.000 A 
ATOM     18  C   UNL     1      45.670   1.835   8.584  0.00  0.00    +0.000 A 
ATOM     19  C   UNL     1      44.732   2.470   9.415  0.00  0.00    +0.000 A 
ATOM     20  C   UNL     1      44.565   3.855   9.366  0.00  0.00    +0.000 A 
ATOM     21  C   UNL     1      45.383   4.596   8.499  0.00  0.00    +0.000 A 
ATOM     22  C   UNL     1      46.346   3.974   7.694  0.00  0.00    +0.000 A 
BRANCH  17  24
ATOM     23  N   UNL     1      48.238   1.423   6.207  0.00  0.00    +0.000 NA
ATOM     24  C   UNL     1      47.453   1.935   6.893  0.00  0.00    +0.000 C 
ENDBRANCH  17  24
ENDBRANCH  15  20
ENDBRANCH   1  15
TORSDOF 5
ENDMDL
MODEL 4
REMARK VINA RESULT:    -6.502      2.512      6.185
REMARK INTER + INTRA:          -9.110
REMARK INTER:                  -8.468
REMARK INTRA:                  -0.642
REMARK UNBOUND:                -0.708
REMARK  Name = 
REMARK  5 active torsions:
REMARK  status: ('A' for Active; 'I' for Inactive)
REMARK    1  A    between atoms: C_2  and  C_3
REMARK    2  A    between atoms: C_6  and  N_7
REMARK    3  A    between atoms: N_7  and  C_8
REMARK    4  A    between atoms: C_8  and  C_9
REMARK    5  A    between atoms: C_13  and  C_14
REMARK                            x       y       z     vdW  Elec       q    Type
REMARK                         _______ _______ _______ _____ _____    ______ ____
ROOT
ATOM      1  C   UNL     1      43.765   5.364  11.307  0.00  0.00    +0.000 C 
ATOM      2  C   UNL     1      42.315   5.515  11.764  0.00  0.00    +0.000 C 
ATOM      3  C   UNL     1      43.326   4.956  12.706  0.00  0.00    +0.000 C 
ENDROOT
BRANCH   1   4
ATOM      4  C   UNL     1      44.081   4.221  10.358  0.00  0.00    +0.000 A 
ATOM      5  C   UNL     1      43.775   2.891  10.644  0.00  0.00    +0.000 A 
ATOM      6  N   UNL     1      44.194   1.824   9.918  0.00  0.00    +0.000 NA
ATOM      7  C   UNL     1      44.981   2.087   8.846  0.00  0.00    +0.000 A 
ATOM      8  C   UNL     1      45.333   3.364   8.444  0.00  0.00    +0.000 A 
ATOM      9  C   UNL     1      44.834   4.432   9.192  0.00  0.00    +0.000 A 
BRANCH   8  10
ATOM     10  C   UNL     1      46.252   3.662   7.322  0.00  0.00    +0.000 C 
ATOM     11  N   UNL     1      46.400   2.740   6.326  0.00  0.00    +0.000 N 
ATOM     12  O   UNL     1      46.922   4.690   7.308  0.00  0.00    +0.000 OA
ATOM     13  H   UNL     1      46.015   1.808   6.334  0.00  0.00    +0.000 HD
ATOM     14  H   UNL     1      47.124   2.935   5.645  0.00  0.00    +0.000 HD
ENDBRANCH   8  10
ENDBRANCH   1   4
BRANCH   1  15
ATOM     15  N   UNL     1      44.411   6.646  11.014  0.00  0.00    +0.000 N 
ATOM     16  H   UNL     1      44.266   7.060  10.098  0.00  0.00    +0.000 HD
BRANCH  15  20
ATOM     17  C   UNL     1      47.789   8.233  12.995  0.00  0.00    +0.000 A 
ATOM     18  C   UNL     1      46.536   8.829  13.184  0.00  0.00    +0.000 A 
ATOM     19  C   UNL     1      45.402   8.333  12.518  0.00  0.00    +0.000 A 
ATOM     20  C   UNL     1      45.501   7.213  11.689  0.00  0.00    +0.000 A 
ATOM     21  C   UNL     1      46.762   6.625  11.509  0.00  0.00    +0.000 A 
ATOM     22  C   UNL     1      47.903   7.136  12.141  0.00  0.00    +0.000 A 
BRANCH  17  24
ATOM     23  N   UNL     1      49.877   9.200  14.196  0.00  0.00    +0.000 NA
ATOM     24  C   UNL     1      48.947   8.757  13.659  0.00  0.00    +0.000 C 
ENDBRANCH  17  24
ENDBRANCH  15  20
ENDBRANCH   1  15
TORSDOF 5
ENDMDL
MODEL 5
REMARK VINA RESULT:    -6.308      2.624      6.712
REMARK INTER + INTRA:          -8.860
REMARK INTER:                  -8.276
REMARK INTRA:                  -0.584
REMARK UNBOUND:                -0.708
REMARK  Name = 
REMARK  5 active torsions:
REMARK  status: ('A' for Active; 'I' for Inactive)
REMARK    1  A    between atoms: C_2  and  C_3
REMARK    2  A    between atoms: C_6  and  N_7
REMARK    3  A    between atoms: N_7  and  C_8
REMARK    4  A    between atoms: C_8  and  C_9
REMARK    5  A    between atoms: C_13  and  C_14
REMARK                            x       y       z     vdW  Elec       q    Type
REMARK                         _______ _______ _______ _____ _____    ______ ____
ROOT
ATOM      1  C   UNL     1      45.192   5.791  11.666  0.00  0.00    +0.000 C 
ATOM      2  C   UNL     1      44.525   7.144  11.419  0.00  0.00    +0.000 C 
ATOM      3  C   UNL     1      44.033   6.276  12.527  0.00  0.00    +0.000 C 
ENDROOT
BRANCH   1   4
ATOM      4  C   UNL     1      44.866   4.667  10.699  0.00  0.00    +0.000 A 
ATOM      5  C   UNL     1      44.026   3.603  11.027  0.00  0.00    +0.000 A 
ATOM      6  N   UNL     1      43.848   2.491  10.270  0.00  0.00    +0.000 NA
ATOM      7  C   UNL     1      44.559   2.417   9.119  0.00  0.00    +0.000 A 
ATOM      8  C   UNL     1      45.405   3.418   8.671  0.00  0.00    +0.000 A 
ATOM      9  C   UNL     1      45.515   4.565   9.459  0.00  0.00    +0.000 A 
BRANCH   8  10
ATOM     10  C   UNL     1      46.244   3.319   7.454  0.00  0.00    +0.000 C 
ATOM     11  N   UNL     1      46.800   2.114   7.131  0.00  0.00    +0.000 N 
ATOM     12  O   UNL     1      46.494   4.309   6.776  0.00  0.00    +0.000 OA
ATOM     13  H   UNL     1      46.779   1.289   7.712  0.00  0.00    +0.000 HD
ATOM     14  H   UNL     1      47.458   2.122   6.362  0.00  0.00    +0.000 HD
ENDBRANCH   8  10
ENDBRANCH   1   4
BRANCH   1  15
ATOM     15  N   UNL     1      46.594   5.908  12.075  0.00  0.00    +0.000 N 
ATOM     16  H   UNL     1      47.309   5.869  11.355  0.00  0.00    +0.000 HD
BRANCH  15  20
ATOM     17  C   UNL     1      48.074   5.154  15.959  0.00  0.00    +0.000 A 
ATOM     18  C   UNL     1      48.465   6.318  15.286  0.00  0.00    +0.000 A 
ATOM     19  C   UNL     1      48.004   6.579  13.986  0.00  0.00    +0.000 A 
ATOM     20  C   UNL     1      47.117   5.701  13.359  0.00  0.00    +0.000 A 
ATOM     21  C   UNL     1      46.732   4.539  14.045  0.00  0.00    +0.000 A 
ATOM     22  C   UNL     1      47.216   4.254  15.328  0.00  0.00    +0.000 A 
BRANCH  17  24
ATOM     23  N   UNL     1      48.945   4.652  18.353  0.00  0.00    +0.000 NA
ATOM     24  C   UNL     1      48.566   4.881  17.280  0.00  0.00    +0.000 C 
ENDBRANCH  17  24
ENDBRANCH  15  20
ENDBRANCH   1  15
TORSDOF 5
ENDMDL
MODEL 6
REMARK VINA RESULT:    -6.071      2.916      7.071
REMARK INTER + INTRA:          -8.553
REMARK INTER:                  -7.944
REMARK INTRA:                  -0.609
REMARK UNBOUND:                -0.708
REMARK  Name = 
REMARK  5 active torsions:
REMARK  status: ('A' for Active; 'I' for Inactive)
REMARK    1  A    between atoms: C_2  and  C_3
REMARK    2  A    between atoms: C_6  and  N_7
REMARK    3  A    between atoms: N_7  and  C_8
REMARK    4  A    between atoms: C_8  and  C_9
REMARK    5  A    between atoms: C_13  and  C_14
REMARK                            x       y       z     vdW  Elec       q    Type
REMARK                         _______ _______ _______ _____ _____    ______ ____
ROOT
ATOM      1  C   UNL     1      46.461   7.079  12.589  0.00  0.00    +0.000 C 
ATOM      2  C   UNL     1      46.848   8.401  11.927  0.00  0.00    +0.000 C 
ATOM      3  C   UNL     1      46.023   8.417  13.168  0.00  0.00    +0.000 C 
ENDROOT
BRANCH   1   4
ATOM      4  C   UNL     1      45.368   6.261  11.924  0.00  0.00    +0.000 A 
ATOM      5  C   UNL     1      44.220   5.839  12.596  0.00  0.00    +0.000 A 
ATOM      6  N   UNL     1      43.309   4.963  12.104  0.00  0.00    +0.000 NA
ATOM      7  C   UNL     1      43.555   4.456  10.871  0.00  0.00    +0.000 A 
ATOM      8  C   UNL     1      44.643   4.816  10.094  0.00  0.00    +0.000 A 
ATOM      9  C   UNL     1      45.525   5.760  10.622  0.00  0.00    +0.000 A 
BRANCH   8  10
ATOM     10  C   UNL     1      44.963   4.215   8.778  0.00  0.00    +0.000 C 
ATOM     11  N   UNL     1      44.312   3.078   8.394  0.00  0.00    +0.000 N 
ATOM     12  O   UNL     1      45.842   4.687   8.065  0.00  0.00    +0.000 OA
ATOM     13  H   UNL     1      43.694   2.536   8.979  0.00  0.00    +0.000 HD
ATOM     14  H   UNL     1      44.647   2.641   7.544  0.00  0.00    +0.000 HD
ENDBRANCH   8  10
ENDBRANCH   1   4
BRANCH   1  15
ATOM     15  N   UNL     1      47.615   6.330  13.093  0.00  0.00    +0.000 N 
ATOM     16  H   UNL     1      48.241   5.900  12.418  0.00  0.00    +0.000 HD
BRANCH  15  20
ATOM     17  C   UNL     1      48.234   4.871  17.009  0.00  0.00    +0.000 A 
ATOM     18  C   UNL     1      47.370   4.186  16.147  0.00  0.00    +0.000 A 
ATOM     19  C   UNL     1      47.130   4.664  14.848  0.00  0.00    +0.000 A 
ATOM     20  C   UNL     1      47.782   5.808  14.383  0.00  0.00    +0.000 A 
ATOM     21  C   UNL     1      48.647   6.486  15.257  0.00  0.00    +0.000 A 
ATOM     22  C   UNL     1      48.862   6.035  16.565  0.00  0.00    +0.000 A 
BRANCH  17  24
ATOM     23  N   UNL     1      48.645   4.020  19.427  0.00  0.00    +0.000 NA
ATOM     24  C   UNL     1      48.458   4.390  18.342  0.00  0.00    +0.000 C 
ENDBRANCH  17  24
ENDBRANCH  15  20
ENDBRANCH   1  15
TORSDOF 5
ENDMDL
MODEL 7
REMARK VINA RESULT:    -5.939      2.847      5.238
REMARK INTER + INTRA:          -8.383
REMARK INTER:                  -7.895
REMARK INTRA:                  -0.488
REMARK UNBOUND:                -0.708
REMARK  Name = 
REMARK  5 active torsions:
REMARK  status: ('A' for Active; 'I' for Inactive)
REMARK    1  A    between atoms: C_2  and  C_3
REMARK    2  A    between atoms: C_6  and  N_7
REMARK    3  A    between atoms: N_7  and  C_8
REMARK    4  A    between atoms: C_8  and  C_9
REMARK    5  A    between atoms: C_13  and  C_14
REMARK                            x       y       z     vdW  Elec       q    Type
REMARK                         _______ _______ _______ _____ _____    ______ ____
ROOT
ATOM      1  C   UNL     1      48.038   6.889  13.995  0.00  0.00    +0.000 C 
ATOM      2  C   UNL     1      48.437   8.314  13.615  0.00  0.00    +0.000 C 
ATOM      3  C   UNL     1      49.034   7.165  12.877  0.00  0.00    +0.000 C 
ENDROOT
BRANCH   1   4
ATOM      4  C   UNL     1      48.626   6.318  15.273  0.00  0.00    +0.000 A 
ATOM      5  C   UNL     1      49.941   6.553  15.675  0.00  0.00    +0.000 A 
ATOM      6  N   UNL     1      50.563   5.925  16.704  0.00  0.00    +0.000 NA
ATOM      7  C   UNL     1      49.843   4.991  17.373  0.00  0.00    +0.000 A 
ATOM      8  C   UNL     1      48.523   4.687  17.088  0.00  0.00    +0.000 A 
ATOM      9  C   UNL     1      47.910   5.397  16.054  0.00  0.00    +0.000 A 
BRANCH   8  10
ATOM     10  C   UNL     1      47.749   3.619  17.761  0.00  0.00    +0.000 C 
ATOM     11  N   UNL     1      48.270   3.026  18.875  0.00  0.00    +0.000 N 
ATOM     12  O   UNL     1      46.685   3.221  17.298  0.00  0.00    +0.000 OA
ATOM     13  H   UNL     1      49.202   3.176  19.232  0.00  0.00    +0.000 HD
ATOM     14  H   UNL     1      47.763   2.224  19.229  0.00  0.00    +0.000 HD
ENDBRANCH   8  10
ENDBRANCH   1   4
BRANCH   1  15
ATOM     15  N   UNL     1      46.621   6.605  13.750  0.00  0.00    +0.000 N 
ATOM     16  H   UNL     1      45.952   6.833  14.480  0.00  0.00    +0.000 HD
BRANCH  15  20
ATOM     17  C   UNL     1      45.045   3.832  10.980  0.00  0.00    +0.000 A 
ATOM     18  C   UNL     1      45.253   5.159  10.585  0.00  0.00    +0.000 A 
ATOM     19  C   UNL     1      45.755   6.104  11.494  0.00  0.00    +0.000 A 
ATOM     20  C   UNL     1      46.091   5.726  12.796  0.00  0.00    +0.000 A 
ATOM     21  C   UNL     1      45.878   4.393  13.179  0.00  0.00    +0.000 A 
ATOM     22  C   UNL     1      45.345   3.453  12.288  0.00  0.00    +0.000 A 
BRANCH  17  24
ATOM     23  N   UNL     1      44.092   2.108   9.289  0.00  0.00    +0.000 NA
ATOM     24  C   UNL     1      44.511   2.876  10.053  0.00  0.00    +0.000 C 
ENDBRANCH  17  24
ENDBRANCH  15  20
ENDBRANCH   1  15
TORSDOF 5
ENDMDL
MODEL 8
REMARK VINA RESULT:    -5.622      2.846      6.464
REMARK INTER + INTRA:          -7.973
REMARK INTER:                  -7.324
REMARK INTRA:                  -0.649
REMARK UNBOUND:                -0.708
REMARK  Name = 
REMARK  5 active torsions:
REMARK  status: ('A' for Active; 'I' for Inactive)
REMARK    1  A    between atoms: C_2  and  C_3
REMARK    2  A    between atoms: C_6  and  N_7
REMARK    3  A    between atoms: N_7  and  C_8
REMARK    4  A    between atoms: C_8  and  C_9
REMARK    5  A    between atoms: C_13  and  C_14
REMARK                            x       y       z     vdW  Elec       q    Type
REMARK                         _______ _______ _______ _____ _____    ______ ____
ROOT
ATOM      1  C   UNL     1      46.463   5.387  13.587  0.00  0.00    +0.000 C 
ATOM      2  C   UNL     1      46.401   4.389  14.741  0.00  0.00    +0.000 C 
ATOM      3  C   UNL     1      47.381   4.174  13.640  0.00  0.00    +0.000 C 
ENDROOT
BRANCH   1   4
ATOM      4  C   UNL     1      45.353   5.327  12.552  0.00  0.00    +0.000 A 
ATOM      5  C   UNL     1      44.000   5.394  12.886  0.00  0.00    +0.000 A 
ATOM      6  N   UNL     1      42.975   5.166  12.027  0.00  0.00    +0.000 NA
ATOM      7  C   UNL     1      43.308   4.832  10.756  0.00  0.00    +0.000 A 
ATOM      8  C   UNL     1      44.612   4.759  10.296  0.00  0.00    +0.000 A 
ATOM      9  C   UNL     1      45.631   5.053  11.204  0.00  0.00    +0.000 A 
BRANCH   8  10
ATOM     10  C   UNL     1      44.992   4.323   8.932  0.00  0.00    +0.000 C 
ATOM     11  N   UNL     1      44.344   3.259   8.373  0.00  0.00    +0.000 N 
ATOM     12  O   UNL     1      45.915   4.862   8.330  0.00  0.00    +0.000 OA
ATOM     13  H   UNL     1      43.688   2.661   8.852  0.00  0.00    +0.000 HD
ATOM     14  H   UNL     1      44.717   2.926   7.492  0.00  0.00    +0.000 HD
ENDBRANCH   8  10
ENDBRANCH   1   4
BRANCH   1  15
ATOM     15  N   UNL     1      46.884   6.726  14.007  0.00  0.00    +0.000 N 
ATOM     16  H   UNL     1      46.421   7.146  14.809  0.00  0.00    +0.000 HD
BRANCH  15  20
ATOM     17  C   UNL     1      48.911   9.684  11.773  0.00  0.00    +0.000 A 
ATOM     18  C   UNL     1      49.143   8.331  11.496  0.00  0.00    +0.000 A 
ATOM     19  C   UNL     1      48.498   7.330  12.241  0.00  0.00    +0.000 A 
ATOM     20  C   UNL     1      47.585   7.668  13.242  0.00  0.00    +0.000 A 
ATOM     21  C   UNL     1      47.361   9.028  13.509  0.00  0.00    +0.000 A 
ATOM     22  C   UNL     1      48.027  10.031  12.795  0.00  0.00    +0.000 A 
BRANCH  17  24
ATOM     23  N   UNL     1      50.136  11.516  10.401  0.00  0.00    +0.000 NA
ATOM     24  C   UNL     1      49.589  10.703  11.024  0.00  0.00    +0.000 C 
ENDBRANCH  17  24
ENDBRANCH  15  20
ENDBRANCH   1  15
TORSDOF 5
ENDMDL
MODEL 9
REMARK VINA RESULT:    -5.446      3.739      7.575
REMARK INTER + INTRA:          -7.745
REMARK INTER:                  -7.710
REMARK INTRA:                  -0.035
REMARK UNBOUND:                -0.708
REMARK  Name = 
REMARK  5 active torsions:
REMARK  status: ('A' for Active; 'I' for Inactive)
REMARK    1  A    between atoms: C_2  and  C_3
REMARK    2  A    between atoms: C_6  and  N_7
REMARK    3  A    between atoms: N_7  and  C_8
REMARK    4  A    between atoms: C_8  and  C_9
REMARK    5  A    between atoms: C_13  and  C_14
REMARK                            x       y       z     vdW  Elec       q    Type
REMARK                         _______ _______ _______ _____ _____    ______ ____
ROOT
ATOM      1  C   UNL     1      47.567   6.868  13.455  0.00  0.00    +0.000 C 
ATOM      2  C   UNL     1      48.804   6.853  12.558  0.00  0.00    +0.000 C 
ATOM      3  C   UNL     1      47.737   7.867  12.319  0.00  0.00    +0.000 C 
ENDROOT
BRANCH   1   4
ATOM      4  C   UNL     1      46.528   5.784  13.227  0.00  0.00    +0.000 A 
ATOM      5  C   UNL     1      46.747   4.444  13.544  0.00  0.00    +0.000 A 
ATOM      6  N   UNL     1      45.928   3.419  13.197  0.00  0.00    +0.000 NA
ATOM      7  C   UNL     1      44.827   3.737  12.474  0.00  0.00    +0.000 A 
ATOM      8  C   UNL     1      44.486   5.031  12.119  0.00  0.00    +0.000 A 
ATOM      9  C   UNL     1      45.332   6.057  12.544  0.00  0.00    +0.000 A 
BRANCH   8  10
ATOM     10  C   UNL     1      43.328   5.385  11.266  0.00  0.00    +0.000 C 
ATOM     11  N   UNL     1      42.274   6.050  11.825  0.00  0.00    +0.000 N 
ATOM     12  O   UNL     1      43.277   5.037  10.091  0.00  0.00    +0.000 OA
ATOM     13  H   UNL     1      42.159   6.235  12.811  0.00  0.00    +0.000 HD
ATOM     14  H   UNL     1      41.459   6.165  11.235  0.00  0.00    +0.000 HD
ENDBRANCH   8  10
ENDBRANCH   1   4
BRANCH   1  15
ATOM     15  N   UNL     1      47.874   7.186  14.852  0.00  0.00    +0.000 N 
ATOM     16  H   UNL     1      47.600   8.097  15.209  0.00  0.00    +0.000 HD
BRANCH  15  20
ATOM     17  C   UNL     1      50.605   5.189  17.382  0.00  0.00    +0.000 A 
ATOM     18  C   UNL     1      51.042   6.280  16.621  0.00  0.00    +0.000 A 
ATOM     19  C   UNL     1      50.158   6.946  15.756  0.00  0.00    +0.000 A 
ATOM     20  C   UNL     1      48.820   6.554  15.671  0.00  0.00    +0.000 A 
ATOM     21  C   UNL     1      48.394   5.460  16.440  0.00  0.00    +0.000 A 
ATOM     22  C   UNL     1      49.279   4.769  17.278  0.00  0.00    +0.000 A 
BRANCH  17  24
ATOM     23  N   UNL     1      52.242   3.941  18.964  0.00  0.00    +0.000 NA
ATOM     24  C   UNL     1      51.517   4.499  18.248  0.00  0.00    +0.000 C 
ENDBRANCH  17  24
ENDBRANCH  15  20
ENDBRANCH   1  15
TORSDOF 5
ENDMDL
