MODEL 1
REMARK VINA RESULT:    -7.551      0.000      0.000
REMARK INTER + INTRA:         -11.862
REMARK INTER:                 -10.642
REMARK INTRA:                  -1.221
REMARK UNBOUND:                -1.221
REMARK  Name = 
REMARK  7 active torsions:
REMARK  status: ('A' for Active; 'I' for Inactive)
REMARK    1  A    between atoms: C_2  and  C_3
REMARK    2  A    between atoms: C_8  and  C_9
REMARK    3  A    between atoms: N_11  and  C_12
REMARK    4  A    between atoms: C_12  and  C_13
REMARK    5  A    between atoms: C_16  and  C_17
REMARK    6  A    between atoms: C_17  and  N_18
REMARK    7  A    between atoms: C_19  and  C_21
REMARK                            x       y       z     vdW  Elec       q    Type
REMARK                         _______ _______ _______ _____ _____    ______ ____
ROOT
ATOM      1  C   UNL     1      50.111   7.083  15.683  0.00  0.00    +0.000 A 
ATOM      2  C   UNL     1      48.843   6.491  15.613  0.00  0.00    +0.000 A 
ATOM      3  C   UNL     1      48.040   6.650  14.477  0.00  0.00    +0.000 A 
ATOM      4  C   UNL     1      48.498   7.381  13.374  0.00  0.00    +0.000 A 
ATOM      5  C   UNL     1      49.765   7.977  13.445  0.00  0.00    +0.000 A 
ATOM      6  C   UNL     1      50.566   7.824  14.583  0.00  0.00    +0.000 A 
ENDROOT
BRANCH   1   7
ATOM      7  C   UNL     1      50.962   6.925  16.919  0.00  0.00    +0.000 C 
BRANCH   7  10
ATOM      8  C   UNL     1      51.133   4.689  17.942  0.00  0.00    +0.000 C 
ATOM      9  O   UNL     1      50.207   4.908  18.719  0.00  0.00    +0.000 OA
ATOM     10  N   UNL     1      51.559   5.607  17.010  0.00  0.00    +0.000 N 
ATOM     11  H   UNL     1      52.232   5.365  16.297  0.00  0.00    +0.000 HD
BRANCH   8  17
ATOM     12  C   UNL     1      51.307   2.179  17.404  0.00  0.00    +0.000 A 
ATOM     13  C   UNL     1      52.081   1.004  17.441  0.00  0.00    +0.000 A 
ATOM     14  C   UNL     1      53.332   0.991  18.059  0.00  0.00    +0.000 A 
ATOM     15  C   UNL     1      53.823   2.151  18.648  0.00  0.00    +0.000 A 
ATOM     16  C   UNL     1      53.068   3.324  18.607  0.00  0.00    +0.000 A 
ATOM     17  C   UNL     1      51.804   3.356  17.994  0.00  0.00    +0.000 A 
BRANCH  12  19
ATOM     18  N   UNL     1      49.040   2.074  16.156  0.00  0.00    +0.000 NA
ATOM     19  C   UNL     1      50.039   2.115  16.743  0.00  0.00    +0.000 C 
ENDBRANCH  12  19
ENDBRANCH   8  17
ENDBRANCH   7  10
ENDBRANCH   1   7
BRANCH   4  20
ATOM     20  C   UNL     1      47.638   7.548  12.146  0.00  0.00    +0.000 C 
BRANCH  20  21
ATOM     21  N   UNL     1      46.921   6.338  11.827  0.00  0.00    +0.000 N 
ATOM     22  C   UNL     1      45.549   6.308  11.799  0.00  0.00    +0.000 C 
ATOM     23  O   UNL     1      44.872   7.314  11.999  0.00  0.00    +0.000 OA
ATOM     24  H   UNL     1      47.439   5.468  11.881  0.00  0.00    +0.000 HD
BRANCH  22  25
ATOM     25  C   UNL     1      44.924   5.023  11.455  0.00  0.00    +0.000 A 
ATOM     26  C   UNL     1      44.168   4.348  12.405  0.00  0.00    +0.000 A 
ATOM     27  S   UNL     1      43.476   2.900  11.828  0.00  0.00    +0.000 S 
ATOM     28  C   UNL     1      44.204   3.096  10.303  0.00  0.00    +0.000 A 
ATOM     29  N   UNL     1      44.033   2.170   9.321  0.00  0.00    +0.000 NA
ATOM     30  C   UNL     1      44.665   2.429   8.226  0.00  0.00    +0.000 A 
ATOM     31  N   UNL     1      45.447   3.538   8.021  0.00  0.00    +0.000 N 
ATOM     32  C   UNL     1      45.625   4.511   8.971  0.00  0.00    +0.000 A 
ATOM     33  O   UNL     1      46.304   5.509   8.742  0.00  0.00    +0.000 OA
ATOM     34  C   UNL     1      44.948   4.262  10.229  0.00  0.00    +0.000 A 
ATOM     35  H   UNL     1      45.909   3.686   7.137  0.00  0.00    +0.000 HD
ENDBRANCH  22  25
ENDBRANCH  20  21
ENDBRANCH   4  20
TORSDOF 7
ENDMDL
MODEL 2
REMARK VINA RESULT:    -7.446      1.324      2.144
REMARK INTER + INTRA:         -11.713
REMARK INTER:                 -10.604
REMARK INTRA:                  -1.109
REMARK UNBOUND:                -1.221
REMARK  Name = 
REMARK  7 active torsions:
REMARK  status: ('A' for Active; 'I' for Inactive)
REMARK    1  A    between atoms: C_2  and  C_3
REMARK    2  A    between atoms: C_8  and  C_9
REMARK    3  A    between atoms: N_11  and  C_12
REMARK    4  A    between atoms: C_12  and  C_13
REMARK    5  A    between atoms: C_16  and  C_17
REMARK    6  A    between atoms: C_17  and  N_18
REMARK    7  A    between atoms: C_19  and  C_21
REMARK                            x       y       z     vdW  Elec       q    Type
REMARK                         _______ _______ _______ _____ _____    ______ ____
ROOT
ATOM      1  C   UNL     1      50.001   7.100  15.905  0.00  0.00    +0.000 A 
ATOM      2  C   UNL     1      50.735   7.856  14.981  0.00  0.00    +0.000 A 
ATOM      3  C   UNL     1      50.225   8.117  13.704  0.00  0.00    +0.000 A 
ATOM      4  C   UNL     1      48.958   7.652  13.330  0.00  0.00    +0.000 A 
ATOM      5  C   UNL     1      48.225   6.892  14.253  0.00  0.00    +0.000 A 
ATOM      6  C   UNL     1      48.737   6.625  15.529  0.00  0.00    +0.000 A 
ENDROOT
BRANCH   1   7
ATOM      7  C   UNL     1      50.566   6.805  17.273  0.00  0.00    +0.000 C 
BRANCH   7  10
ATOM      8  C   UNL     1      50.875   4.498  18.084  0.00  0.00    +0.000 C 
ATOM      9  O   UNL     1      49.847   4.532  18.756  0.00  0.00    +0.000 OA
ATOM     10  N   UNL     1      51.296   5.553  17.307  0.00  0.00    +0.000 N 
ATOM     11  H   UNL     1      52.069   5.462  16.664  0.00  0.00    +0.000 HD
BRANCH   8  17
ATOM     12  C   UNL     1      51.335   2.056  17.417  0.00  0.00    +0.000 A 
ATOM     13  C   UNL     1      52.231   0.970  17.418  0.00  0.00    +0.000 A 
ATOM     14  C   UNL     1      53.456   1.054  18.078  0.00  0.00    +0.000 A 
ATOM     15  C   UNL     1      53.801   2.223  18.747  0.00  0.00    +0.000 A 
ATOM     16  C   UNL     1      52.925   3.311  18.743  0.00  0.00    +0.000 A 
ATOM     17  C   UNL     1      51.684   3.243  18.087  0.00  0.00    +0.000 A 
BRANCH  12  19
ATOM     18  N   UNL     1      49.130   1.786  16.085  0.00  0.00    +0.000 NA
ATOM     19  C   UNL     1      50.102   1.895  16.708  0.00  0.00    +0.000 C 
ENDBRANCH  12  19
ENDBRANCH   8  17
ENDBRANCH   7  10
ENDBRANCH   1   7
BRANCH   4  20
ATOM     20  C   UNL     1      48.403   7.939  11.957  0.00  0.00    +0.000 C 
BRANCH  20  21
ATOM     21  N   UNL     1      47.653   6.821  11.439  0.00  0.00    +0.000 N 
ATOM     22  C   UNL     1      46.287   6.876  11.310  0.00  0.00    +0.000 C 
ATOM     23  O   UNL     1      45.649   7.889  11.585  0.00  0.00    +0.000 OA
ATOM     24  H   UNL     1      48.121   5.921  11.422  0.00  0.00    +0.000 HD
BRANCH  22  25
ATOM     25  C   UNL     1      45.627   5.682  10.765  0.00  0.00    +0.000 A 
ATOM     26  C   UNL     1      45.706   5.409   9.406  0.00  0.00    +0.000 A 
ATOM     27  S   UNL     1      44.927   3.962   8.949  0.00  0.00    +0.000 S 
ATOM     28  C   UNL     1      44.411   3.674  10.544  0.00  0.00    +0.000 A 
ATOM     29  N   UNL     1      43.656   2.584  10.849  0.00  0.00    +0.000 NA
ATOM     30  C   UNL     1      43.310   2.503  12.090  0.00  0.00    +0.000 A 
ATOM     31  N   UNL     1      43.657   3.413  13.056  0.00  0.00    +0.000 N 
ATOM     32  C   UNL     1      44.439   4.511  12.801  0.00  0.00    +0.000 A 
ATOM     33  O   UNL     1      44.762   5.287  13.698  0.00  0.00    +0.000 OA
ATOM     34  C   UNL     1      44.845   4.658  11.416  0.00  0.00    +0.000 A 
ATOM     35  H   UNL     1      43.360   3.288  14.012  0.00  0.00    +0.000 HD
ENDBRANCH  22  25
ENDBRANCH  20  21
ENDBRANCH   4  20
TORSDOF 7
ENDMDL
MODEL 3
REMARK VINA RESULT:    -6.838      2.846      9.084
REMARK INTER + INTRA:         -10.858
REMARK INTER:                  -9.643
REMARK INTRA:                  -1.214
REMARK UNBOUND:                -1.221
REMARK  Name = 
REMARK  7 active torsions:
REMARK  status: ('A' for Active; 'I' for Inactive)
REMARK    1  A    between atoms: C_2  and  C_3
REMARK    2  A    between atoms: C_8  and  C_9
REMARK    3  A    between atoms: N_11  and  C_12
REMARK    4  A    between atoms: C_12  and  C_13
REMARK    5  A    between atoms: C_16  and  C_17
REMARK    6  A    between atoms: C_17  and  N_18
REMARK    7  A    between atoms: C_19  and  C_21
REMARK                            x       y       z     vdW  Elec       q    Type
REMARK                         _______ _______ _______ _____ _____    ______ ____
ROOT
ATOM      1  C   UNL     1      47.693   7.844  13.400  0.00  0.00    +0.000 A 
ATOM      2  C   UNL     1      47.811   8.969  14.229  0.00  0.00    +0.000 A 
ATOM      3  C   UNL     1      48.299   8.848  15.535  0.00  0.00    +0.000 A 
ATOM      4  C   UNL     1      48.706   7.604  16.035  0.00  0.00    +0.000 A 
ATOM      5  C   UNL     1      48.584   6.479  15.208  0.00  0.00    +0.000 A 
ATOM      6  C   UNL     1      48.091   6.598  13.902  0.00  0.00    +0.000 A 
ENDROOT
BRANCH   1   7
ATOM      7  C   UNL     1      47.147   7.980  12.000  0.00  0.00    +0.000 C 
BRANCH   7  10
ATOM      8  C   UNL     1      45.586   6.366  10.983  0.00  0.00    +0.000 C 
ATOM      9  O   UNL     1      44.639   7.144  11.058  0.00  0.00    +0.000 OA
ATOM     10  N   UNL     1      46.857   6.694  11.397  0.00  0.00    +0.000 N 
ATOM     11  H   UNL     1      47.647   6.093  11.210  0.00  0.00    +0.000 HD
BRANCH   8  17
ATOM     12  C   UNL     1      44.751   3.934  11.053  0.00  0.00    +0.000 A 
ATOM     13  C   UNL     1      44.498   2.740  10.350  0.00  0.00    +0.000 A 
ATOM     14  C   UNL     1      44.840   2.618   9.004  0.00  0.00    +0.000 A 
ATOM     15  C   UNL     1      45.440   3.685   8.344  0.00  0.00    +0.000 A 
ATOM     16  C   UNL     1      45.685   4.877   9.029  0.00  0.00    +0.000 A 
ATOM     17  C   UNL     1      45.352   5.017  10.387  0.00  0.00    +0.000 A 
BRANCH  12  19
ATOM     18  N   UNL     1      43.998   3.993  13.531  0.00  0.00    +0.000 NA
ATOM     19  C   UNL     1      44.361   3.985  12.429  0.00  0.00    +0.000 C 
ENDBRANCH  12  19
ENDBRANCH   8  17
ENDBRANCH   7  10
ENDBRANCH   1   7
BRANCH   4  20
ATOM     20  C   UNL     1      49.239   7.472  17.440  0.00  0.00    +0.000 C 
BRANCH  20  21
ATOM     21  N   UNL     1      50.209   6.410  17.547  0.00  0.00    +0.000 N 
ATOM     22  C   UNL     1      50.563   5.887  18.765  0.00  0.00    +0.000 C 
ATOM     23  O   UNL     1      50.042   6.265  19.811  0.00  0.00    +0.000 OA
ATOM     24  H   UNL     1      50.802   6.245  16.740  0.00  0.00    +0.000 HD
BRANCH  22  25
ATOM     25  C   UNL     1      51.556   4.803  18.754  0.00  0.00    +0.000 A 
ATOM     26  C   UNL     1      52.774   4.977  19.399  0.00  0.00    +0.000 A 
ATOM     27  S   UNL     1      53.788   3.607  19.331  0.00  0.00    +0.000 S 
ATOM     28  C   UNL     1      52.658   2.750  18.392  0.00  0.00    +0.000 A 
ATOM     29  N   UNL     1      52.921   1.487  17.960  0.00  0.00    +0.000 NA
ATOM     30  C   UNL     1      51.990   0.966  17.234  0.00  0.00    +0.000 A 
ATOM     31  N   UNL     1      50.814   1.592  16.906  0.00  0.00    +0.000 N 
ATOM     32  C   UNL     1      50.494   2.853  17.343  0.00  0.00    +0.000 A 
ATOM     33  O   UNL     1      49.416   3.370  17.060  0.00  0.00    +0.000 OA
ATOM     34  C   UNL     1      51.513   3.492  18.152  0.00  0.00    +0.000 A 
ATOM     35  H   UNL     1      50.122   1.126  16.340  0.00  0.00    +0.000 HD
ENDBRANCH  22  25
ENDBRANCH  20  21
ENDBRANCH   4  20
TORSDOF 7
ENDMDL
MODEL 4
REMARK VINA RESULT:    -6.696      3.286      8.775
REMARK INTER + INTRA:         -10.657
REMARK INTER:                 -10.507
REMARK INTRA:                  -0.150
REMARK UNBOUND:                -1.221
REMARK  Name = 
REMARK  7 active torsions:
REMARK  status: ('A' for Active; 'I' for Inactive)
REMARK    1  A    between atoms: C_2  and  C_3
REMARK    2  A    between atoms: C_8  and  C_9
REMARK    3  A    between atoms: N_11  and  C_12
REMARK    4  A    between atoms: C_12  and  C_13
REMARK    5  A    between atoms: C_16  and  C_17
REMARK    6  A    between atoms: C_17  and  N_18
REMARK    7  A    between atoms: C_19  and  C_21
REMARK                            x       y       z     vdW  Elec       q    Type
REMARK                         _______ _______ _______ _____ _____    ______ ____
ROOT
ATOM      1  C   UNL     1      44.844   6.544  11.342  0.00  0.00    +0.000 A 
ATOM      2  C   UNL     1      45.761   5.816  12.112  0.00  0.00    +0.000 A 
ATOM      3  C   UNL     1      46.691   6.470  12.927  0.00  0.00    +0.000 A 
ATOM      4  C   UNL     1      46.709   7.868  13.013  0.00  0.00    +0.000 A 
ATOM      5  C   UNL     1      45.794   8.597  12.241  0.00  0.00    +0.000 A 
ATOM      6  C   UNL     1      44.867   7.944  11.420  0.00  0.00    +0.000 A 
ENDROOT
BRANCH   1   7
ATOM      7  C   UNL     1      43.857   5.832  10.450  0.00  0.00    +0.000 C 
BRANCH   7  10
ATOM      8  C   UNL     1      45.480   4.735   8.954  0.00  0.00    +0.000 C 
ATOM      9  O   UNL     1      46.024   5.798   8.666  0.00  0.00    +0.000 OA
ATOM     10  N   UNL     1      44.427   4.649   9.835  0.00  0.00    +0.000 N 
ATOM     11  H   UNL     1      44.077   3.758  10.158  0.00  0.00    +0.000 HD
BRANCH   8  17
ATOM     12  C   UNL     1      45.549   2.183   8.640  0.00  0.00    +0.000 A 
ATOM     13  C   UNL     1      46.062   1.084   7.924  0.00  0.00    +0.000 A 
ATOM     14  C   UNL     1      47.020   1.265   6.927  0.00  0.00    +0.000 A 
ATOM     15  C   UNL     1      47.479   2.544   6.634  0.00  0.00    +0.000 A 
ATOM     16  C   UNL     1      46.970   3.642   7.331  0.00  0.00    +0.000 A 
ATOM     17  C   UNL     1      46.007   3.479   8.342  0.00  0.00    +0.000 A 
BRANCH  12  19
ATOM     18  N   UNL     1      43.734   1.753  10.437  0.00  0.00    +0.000 NA
ATOM     19  C   UNL     1      44.561   1.917   9.640  0.00  0.00    +0.000 C 
ENDBRANCH  12  19
ENDBRANCH   8  17
ENDBRANCH   7  10
ENDBRANCH   1   7
BRANCH   4  20
ATOM     20  C   UNL     1      47.706   8.576  13.897  0.00  0.00    +0.000 C 
BRANCH  20  21
ATOM     21  N   UNL     1      47.934   7.860  15.127  0.00  0.00    +0.000 N 
ATOM     22  C   UNL     1      49.089   7.150  15.337  0.00  0.00    +0.000 C 
ATOM     23  O   UNL     1      49.998   7.129  14.510  0.00  0.00    +0.000 OA
ATOM     24  H   UNL     1      47.124   7.681  15.713  0.00  0.00    +0.000 HD
BRANCH  22  25
ATOM     25  C   UNL     1      49.217   6.464  16.630  0.00  0.00    +0.000 A 
ATOM     26  C   UNL     1      49.931   7.062  17.661  0.00  0.00    +0.000 A 
ATOM     27  S   UNL     1      49.941   6.154  19.105  0.00  0.00    +0.000 S 
ATOM     28  C   UNL     1      49.035   4.905  18.390  0.00  0.00    +0.000 A 
ATOM     29  N   UNL     1      48.709   3.786  19.092  0.00  0.00    +0.000 NA
ATOM     30  C   UNL     1      48.045   2.907  18.419  0.00  0.00    +0.000 A 
ATOM     31  N   UNL     1      47.672   3.049  17.107  0.00  0.00    +0.000 N 
ATOM     32  C   UNL     1      47.954   4.170  16.368  0.00  0.00    +0.000 A 
ATOM     33  O   UNL     1      47.573   4.280  15.205  0.00  0.00    +0.000 OA
ATOM     34  C   UNL     1      48.712   5.186  17.072  0.00  0.00    +0.000 A 
ATOM     35  H   UNL     1      47.146   2.326  16.639  0.00  0.00    +0.000 HD
ENDBRANCH  22  25
ENDBRANCH  20  21
ENDBRANCH   4  20
TORSDOF 7
ENDMDL
MODEL 5
REMARK VINA RESULT:    -6.570      1.789      3.018
REMARK INTER + INTRA:         -10.479
REMARK INTER:                  -9.731
REMARK INTRA:                  -0.749
REMARK UNBOUND:                -1.221
REMARK  Name = 
REMARK  7 active torsions:
REMARK  status: ('A' for Active; 'I' for Inactive)
REMARK    1  A    between atoms: C_2  and  C_3
REMARK    2  A    between atoms: C_8  and  C_9
REMARK    3  A    between atoms: N_11  and  C_12
REMARK    4  A    between atoms: C_12  and  C_13
REMARK    5  A    between atoms: C_16  and  C_17
REMARK    6  A    between atoms: C_17  and  N_18
REMARK    7  A    between atoms: C_19  and  C_21
REMARK                            x       y       z     vdW  Elec       q    Type
REMARK                         _______ _______ _______ _____ _____    ______ ____
ROOT
ATOM      1  C   UNL     1      49.044   4.989  17.357  0.00  0.00    +0.000 A 
ATOM      2  C   UNL     1      49.781   6.078  16.870  0.00  0.00    +0.000 A 
ATOM      3  C   UNL     1      49.426   6.701  15.668  0.00  0.00    +0.000 A 
ATOM      4  C   UNL     1      48.311   6.268  14.939  0.00  0.00    +0.000 A 
ATOM      5  C   UNL     1      47.576   5.177  15.425  0.00  0.00    +0.000 A 
ATOM      6  C   UNL     1      47.934   4.549  16.624  0.00  0.00    +0.000 A 
ENDROOT
BRANCH   1   7
ATOM      7  C   UNL     1      49.445   4.309  18.644  0.00  0.00    +0.000 C 
BRANCH   7  10
ATOM      8  C   UNL     1      51.098   2.736  17.712  0.00  0.00    +0.000 C 
ATOM      9  O   UNL     1      50.289   2.260  16.921  0.00  0.00    +0.000 OA
ATOM     10  N   UNL     1      50.784   3.758  18.580  0.00  0.00    +0.000 N 
ATOM     11  H   UNL     1      51.492   4.222  19.130  0.00  0.00    +0.000 HD
BRANCH   8  17
ATOM     12  C   UNL     1      53.658   2.987  17.765  0.00  0.00    +0.000 A 
ATOM     13  C   UNL     1      54.915   2.359  17.854  0.00  0.00    +0.000 A 
ATOM     14  C   UNL     1      55.018   0.968  17.884  0.00  0.00    +0.000 A 
ATOM     15  C   UNL     1      53.868   0.188  17.824  0.00  0.00    +0.000 A 
ATOM     16  C   UNL     1      52.616   0.802  17.747  0.00  0.00    +0.000 A 
ATOM     17  C   UNL     1      52.492   2.201  17.710  0.00  0.00    +0.000 A 
BRANCH  12  19
ATOM     18  N   UNL     1      53.602   5.576  17.796  0.00  0.00    +0.000 NA
ATOM     19  C   UNL     1      53.634   4.418  17.750  0.00  0.00    +0.000 C 
ENDBRANCH  12  19
ENDBRANCH   8  17
ENDBRANCH   7  10
ENDBRANCH   1   7
BRANCH   4  20
ATOM     20  C   UNL     1      47.922   6.943  13.647  0.00  0.00    +0.000 C 
BRANCH  20  21
ATOM     21  N   UNL     1      47.244   6.037  12.753  0.00  0.00    +0.000 N 
ATOM     22  C   UNL     1      46.285   6.482  11.878  0.00  0.00    +0.000 C 
ATOM     23  O   UNL     1      45.993   7.671  11.783  0.00  0.00    +0.000 OA
ATOM     24  H   UNL     1      47.304   5.047  12.968  0.00  0.00    +0.000 HD
BRANCH  22  25
ATOM     25  C   UNL     1      45.665   5.471  11.009  0.00  0.00    +0.000 A 
ATOM     26  C   UNL     1      45.782   5.581   9.630  0.00  0.00    +0.000 A 
ATOM     27  S   UNL     1      45.046   4.302   8.774  0.00  0.00    +0.000 S 
ATOM     28  C   UNL     1      44.498   3.582  10.215  0.00  0.00    +0.000 A 
ATOM     29  N   UNL     1      43.761   2.439  10.189  0.00  0.00    +0.000 NA
ATOM     30  C   UNL     1      43.387   2.018  11.351  0.00  0.00    +0.000 A 
ATOM     31  N   UNL     1      43.692   2.635  12.539  0.00  0.00    +0.000 N 
ATOM     32  C   UNL     1      44.455   3.773  12.614  0.00  0.00    +0.000 A 
ATOM     33  O   UNL     1      44.739   4.279  13.697  0.00  0.00    +0.000 OA
ATOM     34  C   UNL     1      44.890   4.297  11.334  0.00  0.00    +0.000 A 
ATOM     35  H   UNL     1      43.375   2.250  13.415  0.00  0.00    +0.000 HD
ENDBRANCH  22  25
ENDBRANCH  20  21
ENDBRANCH   4  20
TORSDOF 7
ENDMDL
MODEL 6
REMARK VINA RESULT:    -6.523      0.947      2.042
REMARK INTER + INTRA:         -10.413
REMARK INTER:                  -9.393
REMARK INTRA:                  -1.020
REMARK UNBOUND:                -1.221
REMARK  Name = 
REMARK  7 active torsions:
REMARK  status: ('A' for Active; 'I' for Inactive)
REMARK    1  A    between atoms: C_2  and  C_3
REMARK    2  A    between atoms: C_8  and  C_9
REMARK    3  A    between atoms: N_11  and  C_12
REMARK    4  A    between atoms: C_12  and  C_13
REMARK    5  A    between atoms: C_16  and  C_17
REMARK    6  A    between atoms: C_17  and  N_18
REMARK    7  A    between atoms: C_19  and  C_21
REMARK                            x       y       z     vdW  Elec       q    Type
REMARK                         _______ _______ _______ _____ _____    ______ ____
ROOT
ATOM      1  C   UNL     1      50.359   7.006  15.930  0.00  0.00    +0.000 A 
ATOM      2  C   UNL     1      50.791   7.772  14.839  0.00  0.00    +0.000 A 
ATOM      3  C   UNL     1      49.971   7.947  13.718  0.00  0.00    +0.000 A 
ATOM      4  C   UNL     1      48.690   7.383  13.673  0.00  0.00    +0.000 A 
ATOM      5  C   UNL     1      48.259   6.614  14.762  0.00  0.00    +0.000 A 
ATOM      6  C   UNL     1      49.081   6.433  15.882  0.00  0.00    +0.000 A 
ENDROOT
BRANCH   1   7
ATOM      7  C   UNL     1      51.257   6.805  17.126  0.00  0.00    +0.000 C 
BRANCH   7  10
ATOM      8  C   UNL     1      51.586   4.523  17.998  0.00  0.00    +0.000 C 
ATOM      9  O   UNL     1      50.692   4.647  18.830  0.00  0.00    +0.000 OA
ATOM     10  N   UNL     1      51.919   5.516  17.105  0.00  0.00    +0.000 N 
ATOM     11  H   UNL     1      52.566   5.352  16.347  0.00  0.00    +0.000 HD
BRANCH   8  17
ATOM     12  C   UNL     1      53.665   3.040  18.304  0.00  0.00    +0.000 A 
ATOM     13  C   UNL     1      54.217   1.745  18.288  0.00  0.00    +0.000 A 
ATOM     14  C   UNL     1      53.450   0.645  17.906  0.00  0.00    +0.000 A 
ATOM     15  C   UNL     1      52.122   0.825  17.534  0.00  0.00    +0.000 A 
ATOM     16  C   UNL     1      51.562   2.104  17.556  0.00  0.00    +0.000 A 
ATOM     17  C   UNL     1      52.321   3.225  17.933  0.00  0.00    +0.000 A 
BRANCH  12  19
ATOM     18  N   UNL     1      55.247   4.961  19.022  0.00  0.00    +0.000 NA
ATOM     19  C   UNL     1      54.514   4.115  18.717  0.00  0.00    +0.000 C 
ENDBRANCH  12  19
ENDBRANCH   8  17
ENDBRANCH   7  10
ENDBRANCH   1   7
BRANCH   4  20
ATOM     20  C   UNL     1      47.802   7.576  12.469  0.00  0.00    +0.000 C 
BRANCH  20  21
ATOM     21  N   UNL     1      47.061   6.380  12.153  0.00  0.00    +0.000 N 
ATOM     22  C   UNL     1      45.690   6.385  12.091  0.00  0.00    +0.000 C 
ATOM     23  O   UNL     1      45.035   7.412  12.256  0.00  0.00    +0.000 OA
ATOM     24  H   UNL     1      47.555   5.497  12.236  0.00  0.00    +0.000 HD
BRANCH  22  25
ATOM     25  C   UNL     1      45.040   5.111  11.754  0.00  0.00    +0.000 A 
ATOM     26  C   UNL     1      44.345   4.411  12.733  0.00  0.00    +0.000 A 
ATOM     27  S   UNL     1      43.613   2.980  12.163  0.00  0.00    +0.000 S 
ATOM     28  C   UNL     1      44.240   3.217  10.599  0.00  0.00    +0.000 A 
ATOM     29  N   UNL     1      44.003   2.317   9.607  0.00  0.00    +0.000 NA
ATOM     30  C   UNL     1      44.563   2.606   8.480  0.00  0.00    +0.000 A 
ATOM     31  N   UNL     1      45.334   3.718   8.254  0.00  0.00    +0.000 N 
ATOM     32  C   UNL     1      45.576   4.665   9.217  0.00  0.00    +0.000 A 
ATOM     33  O   UNL     1      46.242   5.668   8.971  0.00  0.00    +0.000 OA
ATOM     34  C   UNL     1      44.982   4.383  10.509  0.00  0.00    +0.000 A 
ATOM     35  H   UNL     1      45.737   3.890   7.346  0.00  0.00    +0.000 HD
ENDBRANCH  22  25
ENDBRANCH  20  21
ENDBRANCH   4  20
TORSDOF 7
ENDMDL
MODEL 7
REMARK VINA RESULT:    -6.497      5.205      6.354
REMARK INTER + INTRA:         -10.376
REMARK INTER:                  -9.477
REMARK INTRA:                  -0.899
REMARK UNBOUND:                -1.221
REMARK  Name = 
REMARK  7 active torsions:
REMARK  status: ('A' for Active; 'I' for Inactive)
REMARK    1  A    between atoms: C_2  and  C_3
REMARK    2  A    between atoms: C_8  and  C_9
REMARK    3  A    between atoms: N_11  and  C_12
REMARK    4  A    between atoms: C_12  and  C_13
REMARK    5  A    between atoms: C_16  and  C_17
REMARK    6  A    between atoms: C_17  and  N_18
REMARK    7  A    between atoms: C_19  and  C_21
REMARK                            x       y       z     vdW  Elec       q    Type
REMARK                         _______ _______ _______ _____ _____    ______ ____
ROOT
ATOM      1  C   UNL     1      50.374   9.000  11.424  0.00  0.00    +0.000 A 
ATOM      2  C   UNL     1      49.534  10.040  11.847  0.00  0.00    +0.000 A 
ATOM      3  C   UNL     1      48.238   9.773  12.301  0.00  0.00    +0.000 A 
ATOM      4  C   UNL     1      47.759   8.459  12.369  0.00  0.00    +0.000 A 
ATOM      5  C   UNL     1      48.597   7.419  11.942  0.00  0.00    +0.000 A 
ATOM      6  C   UNL     1      49.892   7.685  11.482  0.00  0.00    +0.000 A 
ENDROOT
BRANCH   1   7
ATOM      7  C   UNL     1      51.764   9.297  10.916  0.00  0.00    +0.000 C 
BRANCH   7  10
ATOM      8  C   UNL     1      52.848   8.088   9.062  0.00  0.00    +0.000 C 
ATOM      9  O   UNL     1      52.758   9.050   8.304  0.00  0.00    +0.000 OA
ATOM     10  N   UNL     1      52.410   8.122  10.367  0.00  0.00    +0.000 N 
ATOM     11  H   UNL     1      52.607   7.370  11.012  0.00  0.00    +0.000 HD
BRANCH   8  17
ATOM     12  C   UNL     1      54.560   6.171   9.175  0.00  0.00    +0.000 A 
ATOM     13  C   UNL     1      55.014   4.947   8.648  0.00  0.00    +0.000 A 
ATOM     14  C   UNL     1      54.419   4.392   7.515  0.00  0.00    +0.000 A 
ATOM     15  C   UNL     1      53.364   5.053   6.895  0.00  0.00    +0.000 A 
ATOM     16  C   UNL     1      52.899   6.262   7.416  0.00  0.00    +0.000 A 
ATOM     17  C   UNL     1      53.489   6.839   8.553  0.00  0.00    +0.000 A 
BRANCH  12  19
ATOM     18  N   UNL     1      55.693   7.074  11.322  0.00  0.00    +0.000 NA
ATOM     19  C   UNL     1      55.215   6.670  10.346  0.00  0.00    +0.000 C 
ENDBRANCH  12  19
ENDBRANCH   8  17
ENDBRANCH   7  10
ENDBRANCH   1   7
BRANCH   4  20
ATOM     20  C   UNL     1      46.364   8.168  12.864  0.00  0.00    +0.000 C 
BRANCH  20  21
ATOM     21  N   UNL     1      45.942   6.832  12.523  0.00  0.00    +0.000 N 
ATOM     22  C   UNL     1      44.836   6.611  11.741  0.00  0.00    +0.000 C 
ATOM     23  O   UNL     1      44.184   7.534  11.261  0.00  0.00    +0.000 OA
ATOM     24  H   UNL     1      46.321   6.073  13.081  0.00  0.00    +0.000 HD
BRANCH  22  25
ATOM     25  C   UNL     1      44.503   5.209  11.451  0.00  0.00    +0.000 A 
ATOM     26  C   UNL     1      43.766   4.471  12.369  0.00  0.00    +0.000 A 
ATOM     27  S   UNL     1      43.428   2.880  11.856  0.00  0.00    +0.000 S 
ATOM     28  C   UNL     1      44.298   3.102  10.411  0.00  0.00    +0.000 A 
ATOM     29  N   UNL     1      44.425   2.093   9.508  0.00  0.00    +0.000 NA
ATOM     30  C   UNL     1      45.135   2.389   8.472  0.00  0.00    +0.000 A 
ATOM     31  N   UNL     1      45.724   3.609   8.253  0.00  0.00    +0.000 N 
ATOM     32  C   UNL     1      45.599   4.664   9.122  0.00  0.00    +0.000 A 
ATOM     33  O   UNL     1      46.110   5.754   8.877  0.00  0.00    +0.000 OA
ATOM     34  C   UNL     1      44.822   4.381  10.313  0.00  0.00    +0.000 A 
ATOM     35  H   UNL     1      46.261   3.780   7.417  0.00  0.00    +0.000 HD
ENDBRANCH  22  25
ENDBRANCH  20  21
ENDBRANCH   4  20
TORSDOF 7
ENDMDL
MODEL 8
REMARK VINA RESULT:    -6.363      5.129      7.513
REMARK INTER + INTRA:         -10.189
REMARK INTER:                  -9.211
REMARK INTRA:                  -0.977
REMARK UNBOUND:                -1.221
REMARK  Name = 
REMARK  7 active torsions:
REMARK  status: ('A' for Active; 'I' for Inactive)
REMARK    1  A    between atoms: C_2  and  C_3
REMARK    2  A    between atoms: C_8  and  C_9
REMARK    3  A    between atoms: N_11  and  C_12
REMARK    4  A    between atoms: C_12  and  C_13
REMARK    5  A    between atoms: C_16  and  C_17
REMARK    6  A    between atoms: C_17  and  N_18
REMARK    7  A    between atoms: C_19  and  C_21
REMARK                            x       y       z     vdW  Elec       q    Type
REMARK                         _______ _______ _______ _____ _____    ______ ____
ROOT
ATOM      1  C   UNL     1      50.408   8.876  11.610  0.00  0.00    +0.000 A 
ATOM      2  C   UNL     1      49.948   7.567  11.814  0.00  0.00    +0.000 A 
ATOM      3  C   UNL     1      48.609   7.321  12.136  0.00  0.00    +0.000 A 
ATOM      4  C   UNL     1      47.691   8.375  12.234  0.00  0.00    +0.000 A 
ATOM      5  C   UNL     1      48.151   9.684  12.034  0.00  0.00    +0.000 A 
ATOM      6  C   UNL     1      49.493   9.932  11.718  0.00  0.00    +0.000 A 
ENDROOT
BRANCH   1   7
ATOM      7  C   UNL     1      51.859   9.135  11.284  0.00  0.00    +0.000 C 
BRANCH   7  10
ATOM      8  C   UNL     1      53.195   9.021   9.216  0.00  0.00    +0.000 C 
ATOM      9  O   UNL     1      54.076   8.353   9.751  0.00  0.00    +0.000 OA
ATOM     10  N   UNL     1      52.061   9.431   9.879  0.00  0.00    +0.000 N 
ATOM     11  H   UNL     1      51.291   9.866   9.393  0.00  0.00    +0.000 HD
BRANCH   8  17
ATOM     12  C   UNL     1      53.050   8.522   6.696  0.00  0.00    +0.000 A 
ATOM     13  C   UNL     1      53.147   9.008   5.379  0.00  0.00    +0.000 A 
ATOM     14  C   UNL     1      53.540  10.322   5.128  0.00  0.00    +0.000 A 
ATOM     15  C   UNL     1      53.843  11.167   6.191  0.00  0.00    +0.000 A 
ATOM     16  C   UNL     1      53.740  10.698   7.502  0.00  0.00    +0.000 A 
ATOM     17  C   UNL     1      53.350   9.376   7.774  0.00  0.00    +0.000 A 
BRANCH  12  19
ATOM     18  N   UNL     1      52.288   6.060   6.953  0.00  0.00    +0.000 NA
ATOM     19  C   UNL     1      52.629   7.166   6.871  0.00  0.00    +0.000 C 
ENDBRANCH  12  19
ENDBRANCH   8  17
ENDBRANCH   7  10
ENDBRANCH   1   7
BRANCH   4  20
ATOM     20  C   UNL     1      46.245   8.112  12.573  0.00  0.00    +0.000 C 
BRANCH  20  21
ATOM     21  N   UNL     1      45.858   6.759  12.256  0.00  0.00    +0.000 N 
ATOM     22  C   UNL     1      44.688   6.489  11.592  0.00  0.00    +0.000 C 
ATOM     23  O   UNL     1      43.942   7.382  11.199  0.00  0.00    +0.000 OA
ATOM     24  H   UNL     1      46.333   6.015  12.757  0.00  0.00    +0.000 HD
BRANCH  22  25
ATOM     25  C   UNL     1      44.398   5.075  11.315  0.00  0.00    +0.000 A 
ATOM     26  C   UNL     1      43.652   4.333  12.222  0.00  0.00    +0.000 A 
ATOM     27  S   UNL     1      43.368   2.726  11.725  0.00  0.00    +0.000 S 
ATOM     28  C   UNL     1      44.276   2.948  10.304  0.00  0.00    +0.000 A 
ATOM     29  N   UNL     1      44.456   1.928   9.422  0.00  0.00    +0.000 NA
ATOM     30  C   UNL     1      45.190   2.226   8.403  0.00  0.00    +0.000 A 
ATOM     31  N   UNL     1      45.755   3.456   8.182  0.00  0.00    +0.000 N 
ATOM     32  C   UNL     1      45.578   4.521   9.029  0.00  0.00    +0.000 A 
ATOM     33  O   UNL     1      46.070   5.620   8.783  0.00  0.00    +0.000 OA
ATOM     34  C   UNL     1      44.772   4.237  10.201  0.00  0.00    +0.000 A 
ATOM     35  H   UNL     1      46.313   3.627   7.360  0.00  0.00    +0.000 HD
ENDBRANCH  22  25
ENDBRANCH  20  21
ENDBRANCH   4  20
TORSDOF 7
ENDMDL
MODEL 9
REMARK VINA RESULT:    -6.048      2.022      2.817
REMARK INTER + INTRA:          -9.743
REMARK INTER:                  -8.906
REMARK INTRA:                  -0.837
REMARK UNBOUND:                -1.221
REMARK  Name = 
REMARK  7 active torsions:
REMARK  status: ('A' for Active; 'I' for Inactive)
REMARK    1  A    between atoms: C_2  and  C_3
REMARK    2  A    between atoms: C_8  and  C_9
REMARK    3  A    between atoms: N_11  and  C_12
REMARK    4  A    between atoms: C_12  and  C_13
REMARK    5  A    between atoms: C_16  and  C_17
REMARK    6  A    between atoms: C_17  and  N_18
REMARK    7  A    between atoms: C_19  and  C_21
REMARK                            x       y       z     vdW  Elec       q    Type
REMARK                         _______ _______ _______ _____ _____    ______ ____
ROOT
ATOM      1  C   UNL     1      49.547   8.742  12.884  0.00  0.00    +0.000 A 
ATOM      2  C   UNL     1      49.098   7.713  12.044  0.00  0.00    +0.000 A 
ATOM      3  C   UNL     1      47.746   7.612  11.697  0.00  0.00    +0.000 A 
ATOM      4  C   UNL     1      46.816   8.552  12.159  0.00  0.00    +0.000 A 
ATOM      5  C   UNL     1      47.264   9.578  13.002  0.00  0.00    +0.000 A 
ATOM      6  C   UNL     1      48.616   9.677  13.355  0.00  0.00    +0.000 A 
ENDROOT
BRANCH   1   7
ATOM      7  C   UNL     1      51.004   8.833  13.270  0.00  0.00    +0.000 C 
BRANCH   7  10
ATOM      8  C   UNL     1      51.370   7.863  15.506  0.00  0.00    +0.000 C 
ATOM      9  O   UNL     1      50.953   8.868  16.076  0.00  0.00    +0.000 OA
ATOM     10  N   UNL     1      51.411   7.744  14.136  0.00  0.00    +0.000 N 
ATOM     11  H   UNL     1      51.634   6.867  13.686  0.00  0.00    +0.000 HD
BRANCH   8  17
ATOM     12  C   UNL     1      50.970   5.757  16.929  0.00  0.00    +0.000 A 
ATOM     13  C   UNL     1      51.525   4.659  17.613  0.00  0.00    +0.000 A 
ATOM     14  C   UNL     1      52.908   4.506  17.718  0.00  0.00    +0.000 A 
ATOM     15  C   UNL     1      53.752   5.449  17.142  0.00  0.00    +0.000 A 
ATOM     16  C   UNL     1      53.212   6.536  16.451  0.00  0.00    +0.000 A 
ATOM     17  C   UNL     1      51.822   6.709  16.340  0.00  0.00    +0.000 A 
BRANCH  12  19
ATOM     18  N   UNL     1      48.385   5.843  16.803  0.00  0.00    +0.000 NA
ATOM     19  C   UNL     1      49.543   5.837  16.856  0.00  0.00    +0.000 C 
ENDBRANCH  12  19
ENDBRANCH   8  17
ENDBRANCH   7  10
ENDBRANCH   1   7
BRANCH   4  20
ATOM     20  C   UNL     1      45.359   8.449  11.780  0.00  0.00    +0.000 C 
BRANCH  20  21
ATOM     21  N   UNL     1      45.013   7.119  11.343  0.00  0.00    +0.000 N 
ATOM     22  C   UNL     1      44.850   6.092  12.239  0.00  0.00    +0.000 C 
ATOM     23  O   UNL     1      44.946   6.266  13.451  0.00  0.00    +0.000 OA
ATOM     24  H   UNL     1      45.149   6.908  10.359  0.00  0.00    +0.000 HD
BRANCH  22  25
ATOM     25  C   UNL     1      44.491   4.781  11.681  0.00  0.00    +0.000 A 
ATOM     26  C   UNL     1      43.741   3.891  12.439  0.00  0.00    +0.000 A 
ATOM     27  S   UNL     1      43.373   2.438  11.625  0.00  0.00    +0.000 S 
ATOM     28  C   UNL     1      44.247   2.923  10.249  0.00  0.00    +0.000 A 
ATOM     29  N   UNL     1      44.356   2.107   9.166  0.00  0.00    +0.000 NA
ATOM     30  C   UNL     1      45.071   2.588   8.205  0.00  0.00    +0.000 A 
ATOM     31  N   UNL     1      45.682   3.816   8.228  0.00  0.00    +0.000 N 
ATOM     32  C   UNL     1      45.577   4.683   9.286  0.00  0.00    +0.000 A 
ATOM     33  O   UNL     1      46.108   5.790   9.259  0.00  0.00    +0.000 OA
ATOM     34  C   UNL     1      44.795   4.186  10.401  0.00  0.00    +0.000 A 
ATOM     35  H   UNL     1      46.223   4.138   7.439  0.00  0.00    +0.000 HD
ENDBRANCH  22  25
ENDBRANCH  20  21
ENDBRANCH   4  20
TORSDOF 7
ENDMDL
