MODEL 1
REMARK VINA RESULT:    -7.248      0.000      0.000
REMARK INTER + INTRA:         -10.228
REMARK INTER:                  -9.579
REMARK INTRA:                  -0.649
REMARK UNBOUND:                -0.649
REMARK  Name = 
REMARK  6 active torsions:
REMARK  status: ('A' for Active; 'I' for Inactive)
REMARK    1  A    between atoms: C_2  and  C_18
REMARK    2  A    between atoms: N_3  and  C_4
REMARK    3  A    between atoms: C_4  and  C_5
REMARK    4  A    between atoms: C_8  and  C_9
REMARK    5  A    between atoms: C_9  and  N_10
REMARK    6  A    between atoms: C_13  and  O_14
REMARK                            x       y       z     vdW  Elec       q    Type
REMARK                         _______ _______ _______ _____ _____    ______ ____
ROOT
ATOM      1  O   UNL     1      48.072   6.795  12.738  0.00  0.00    +0.000 OA
ATOM      2  C   UNL     1      47.530   6.531  13.808  0.00  0.00    +0.000 C 
ATOM      3  N   UNL     1      46.172   6.397  13.941  0.00  0.00    +0.000 N 
ATOM      4  H   UNL     1      45.774   6.372  14.872  0.00  0.00    +0.000 HD
ENDROOT
BRANCH   2   5
ATOM      5  C   UNL     1      48.308   6.302  15.028  0.00  0.00    +0.000 A 
ATOM      6  C   UNL     1      49.229   7.242  15.459  0.00  0.00    +0.000 A 
ATOM      7  S   UNL     1      50.047   6.781  16.887  0.00  0.00    +0.000 S 
ATOM      8  C   UNL     1      49.166   5.330  16.990  0.00  0.00    +0.000 A 
ATOM      9  N   UNL     1      49.366   4.454  18.012  0.00  0.00    +0.000 NA
ATOM     10  C   UNL     1      48.604   3.413  17.978  0.00  0.00    +0.000 A 
ATOM     11  N   UNL     1      47.661   3.161  17.019  0.00  0.00    +0.000 N 
ATOM     12  C   UNL     1      47.476   3.977  15.930  0.00  0.00    +0.000 A 
ATOM     13  O   UNL     1      46.728   3.648  15.012  0.00  0.00    +0.000 OA
ATOM     14  C   UNL     1      48.276   5.186  15.940  0.00  0.00    +0.000 A 
ATOM     15  H   UNL     1      47.118   2.311  17.026  0.00  0.00    +0.000 HD
ENDBRANCH   2   5
BRANCH   3  16
ATOM     16  C   UNL     1      45.250   6.703  12.880  0.00  0.00    +0.000 C 
BRANCH  16  17
ATOM     17  C   UNL     1      45.279   5.662  11.804  0.00  0.00    +0.000 A 
ATOM     18  C   UNL     1      44.968   4.332  12.082  0.00  0.00    +0.000 A 
ATOM     19  C   UNL     1      44.980   3.384  11.060  0.00  0.00    +0.000 A 
ATOM     20  C   UNL     1      45.314   3.786   9.768  0.00  0.00    +0.000 A 
ATOM     21  N   UNL     1      45.647   5.074   9.485  0.00  0.00    +0.000 NA
ATOM     22  C   UNL     1      45.633   5.970  10.500  0.00  0.00    +0.000 A 
BRANCH  20  23
ATOM     23  C   UNL     1      45.317   2.738   8.649  0.00  0.00    +0.000 C 
BRANCH  23  24
ATOM     24  N   UNL     1      46.470   2.676   7.728  0.00  0.00    +0.000 NA
ATOM     25  C   UNL     1      46.356   3.585   6.585  0.00  0.00    +0.000 C 
ATOM     26  C   UNL     1      46.738   2.799   5.337  0.00  0.00    +0.000 C 
ATOM     27  C   UNL     1      47.341   1.505   5.849  0.00  0.00    +0.000 C 
ATOM     28  C   UNL     1      46.745   1.317   7.240  0.00  0.00    +0.000 C 
BRANCH  27  29
ATOM     29  O   UNL     1      48.762   1.632   5.913  0.00  0.00    +0.000 OA
ATOM     30  H   UNL     1      49.120   0.987   5.269  0.00  0.00    +0.000 HD
ENDBRANCH  27  29
ENDBRANCH  23  24
ENDBRANCH  20  23
ENDBRANCH  16  17
ENDBRANCH   3  16
TORSDOF 6
ENDMDL
MODEL 2
REMARK VINA RESULT:    -7.224      4.172      9.212
REMARK INTER + INTRA:         -10.196
REMARK INTER:                  -9.675
REMARK INTRA:                  -0.521
REMARK UNBOUND:                -0.649
REMARK  Name = 
REMARK  6 active torsions:
REMARK  status: ('A' for Active; 'I' for Inactive)
REMARK    1  A    between atoms: C_2  and  C_18
REMARK    2  A    between atoms: N_3  and  C_4
REMARK    3  A    between atoms: C_4  and  C_5
REMARK    4  A    between atoms: C_8  and  C_9
REMARK    5  A    between atoms: C_9  and  N_10
REMARK    6  A    between atoms: C_13  and  O_14
REMARK                            x       y       z     vdW  Elec       q    Type
REMARK                         _______ _______ _______ _____ _____    ______ ____
ROOT
ATOM      1  O   UNL     1      47.172   3.018  14.044  0.00  0.00    +0.000 OA
ATOM      2  C   UNL     1      46.834   4.116  14.479  0.00  0.00    +0.000 C 
ATOM      3  N   UNL     1      46.857   4.426  15.815  0.00  0.00    +0.000 N 
ATOM      4  H   UNL     1      46.389   5.269  16.126  0.00  0.00    +0.000 HD
ENDROOT
BRANCH   2   5
ATOM      5  C   UNL     1      46.412   5.199  13.588  0.00  0.00    +0.000 A 
ATOM      6  C   UNL     1      47.271   6.246  13.300  0.00  0.00    +0.000 A 
ATOM      7  S   UNL     1      46.585   7.417  12.261  0.00  0.00    +0.000 S 
ATOM      8  C   UNL     1      45.134   6.538  12.136  0.00  0.00    +0.000 A 
ATOM      9  N   UNL     1      44.104   6.981  11.366  0.00  0.00    +0.000 NA
ATOM     10  C   UNL     1      43.081   6.196  11.341  0.00  0.00    +0.000 A 
ATOM     11  N   UNL     1      42.986   5.007  12.013  0.00  0.00    +0.000 N 
ATOM     12  C   UNL     1      43.969   4.556  12.860  0.00  0.00    +0.000 A 
ATOM     13  O   UNL     1      43.792   3.562  13.562  0.00  0.00    +0.000 OA
ATOM     14  C   UNL     1      45.162   5.379  12.893  0.00  0.00    +0.000 A 
ATOM     15  H   UNL     1      42.146   4.452  11.983  0.00  0.00    +0.000 HD
ENDBRANCH   2   5
BRANCH   3  16
ATOM     16  C   UNL     1      47.128   3.452  16.837  0.00  0.00    +0.000 C 
BRANCH  16  17
ATOM     17  C   UNL     1      48.589   3.382  17.161  0.00  0.00    +0.000 A 
ATOM     18  C   UNL     1      49.309   2.201  16.984  0.00  0.00    +0.000 A 
ATOM     19  C   UNL     1      50.672   2.166  17.270  0.00  0.00    +0.000 A 
ATOM     20  C   UNL     1      51.296   3.321  17.740  0.00  0.00    +0.000 A 
ATOM     21  N   UNL     1      50.602   4.473  17.944  0.00  0.00    +0.000 NA
ATOM     22  C   UNL     1      49.277   4.474  17.664  0.00  0.00    +0.000 A 
BRANCH  20  23
ATOM     23  C   UNL     1      52.797   3.275  18.045  0.00  0.00    +0.000 C 
BRANCH  23  24
ATOM     24  N   UNL     1      53.337   2.136  18.815  0.00  0.00    +0.000 NA
ATOM     25  C   UNL     1      54.431   2.506  19.717  0.00  0.00    +0.000 C 
ATOM     26  C   UNL     1      55.537   1.472  19.541  0.00  0.00    +0.000 C 
ATOM     27  C   UNL     1      54.915   0.357  18.724  0.00  0.00    +0.000 C 
ATOM     28  C   UNL     1      53.769   1.018  17.965  0.00  0.00    +0.000 C 
BRANCH  27  29
ATOM     29  O   UNL     1      54.430  -0.663  19.598  0.00  0.00    +0.000 OA
ATOM     30  H   UNL     1      54.003  -1.330  19.023  0.00  0.00    +0.000 HD
ENDBRANCH  27  29
ENDBRANCH  23  24
ENDBRANCH  20  23
ENDBRANCH  16  17
ENDBRANCH   3  16
TORSDOF 6
ENDMDL
MODEL 3
REMARK VINA RESULT:    -7.137      1.563      2.163
REMARK INTER + INTRA:         -10.081
REMARK INTER:                  -9.459
REMARK INTRA:                  -0.621
REMARK UNBOUND:                -0.649
REMARK  Name = 
REMARK  6 active torsions:
REMARK  status: ('A' for Active; 'I' for Inactive)
REMARK    1  A    between atoms: C_2  and  C_18
REMARK    2  A    between atoms: N_3  and  C_4
REMARK    3  A    between atoms: C_4  and  C_5
REMARK    4  A    between atoms: C_8  and  C_9
REMARK    5  A    between atoms: C_9  and  N_10
REMARK    6  A    between atoms: C_13  and  O_14
REMARK                            x       y       z     vdW  Elec       q    Type
REMARK                         _______ _______ _______ _____ _____    ______ ____
ROOT
ATOM      1  O   UNL     1      49.683   7.007  13.841  0.00  0.00    +0.000 OA
ATOM      2  C   UNL     1      48.836   6.938  14.728  0.00  0.00    +0.000 C 
ATOM      3  N   UNL     1      47.515   7.243  14.521  0.00  0.00    +0.000 N 
ATOM      4  H   UNL     1      46.910   7.353  15.326  0.00  0.00    +0.000 HD
ENDROOT
BRANCH   2   5
ATOM      5  C   UNL     1      49.174   6.485  16.079  0.00  0.00    +0.000 A 
ATOM      6  C   UNL     1      49.967   7.267  16.903  0.00  0.00    +0.000 A 
ATOM      7  S   UNL     1      50.263   6.555  18.428  0.00  0.00    +0.000 S 
ATOM      8  C   UNL     1      49.310   5.200  18.044  0.00  0.00    +0.000 A 
ATOM      9  N   UNL     1      49.124   4.190  18.938  0.00  0.00    +0.000 NA
ATOM     10  C   UNL     1      48.351   3.246  18.521  0.00  0.00    +0.000 A 
ATOM     11  N   UNL     1      47.745   3.209  17.295  0.00  0.00    +0.000 N 
ATOM     12  C   UNL     1      47.963   4.166  16.333  0.00  0.00    +0.000 A 
ATOM     13  O   UNL     1      47.524   4.029  15.193  0.00  0.00    +0.000 OA
ATOM     14  C   UNL     1      48.790   5.276  16.764  0.00  0.00    +0.000 A 
ATOM     15  H   UNL     1      47.178   2.425  17.011  0.00  0.00    +0.000 HD
ENDBRANCH   2   5
BRANCH   3  16
ATOM     16  C   UNL     1      47.029   7.817  13.295  0.00  0.00    +0.000 C 
BRANCH  16  17
ATOM     17  C   UNL     1      46.187   6.846  12.526  0.00  0.00    +0.000 A 
ATOM     18  C   UNL     1      45.181   7.288  11.669  0.00  0.00    +0.000 A 
ATOM     19  C   UNL     1      44.424   6.367  10.946  0.00  0.00    +0.000 A 
ATOM     20  C   UNL     1      44.686   5.006  11.101  0.00  0.00    +0.000 A 
ATOM     21  N   UNL     1      45.646   4.557  11.954  0.00  0.00    +0.000 NA
ATOM     22  C   UNL     1      46.359   5.476  12.647  0.00  0.00    +0.000 A 
BRANCH  20  23
ATOM     23  C   UNL     1      43.855   4.001  10.296  0.00  0.00    +0.000 C 
BRANCH  23  24
ATOM     24  N   UNL     1      44.382   3.501   9.011  0.00  0.00    +0.000 NA
ATOM     25  C   UNL     1      44.688   2.068   9.021  0.00  0.00    +0.000 C 
ATOM     26  C   UNL     1      46.058   1.888   8.379  0.00  0.00    +0.000 C 
ATOM     27  C   UNL     1      46.385   3.231   7.754  0.00  0.00    +0.000 C 
ATOM     28  C   UNL     1      45.562   4.243   8.545  0.00  0.00    +0.000 C 
BRANCH  27  29
ATOM     29  O   UNL     1      46.004   3.224   6.378  0.00  0.00    +0.000 OA
ATOM     30  H   UNL     1      45.069   2.936   6.358  0.00  0.00    +0.000 HD
ENDBRANCH  27  29
ENDBRANCH  23  24
ENDBRANCH  20  23
ENDBRANCH  16  17
ENDBRANCH   3  16
TORSDOF 6
ENDMDL
MODEL 4
REMARK VINA RESULT:    -7.000      3.357      4.271
REMARK INTER + INTRA:          -9.899
REMARK INTER:                  -8.768
REMARK INTRA:                  -1.131
REMARK UNBOUND:                -0.649
REMARK  Name = 
REMARK  6 active torsions:
REMARK  status: ('A' for Active; 'I' for Inactive)
REMARK    1  A    between atoms: C_2  and  C_18
REMARK    2  A    between atoms: N_3  and  C_4
REMARK    3  A    between atoms: C_4  and  C_5
REMARK    4  A    between atoms: C_8  and  C_9
REMARK    5  A    between atoms: C_9  and  N_10
REMARK    6  A    between atoms: C_13  and  O_14
REMARK                            x       y       z     vdW  Elec       q    Type
REMARK                         _______ _______ _______ _____ _____    ______ ____
ROOT
ATOM      1  O   UNL     1      48.389   8.714  16.305  0.00  0.00    +0.000 OA
ATOM      2  C   UNL     1      48.841   7.613  15.999  0.00  0.00    +0.000 C 
ATOM      3  N   UNL     1      49.192   7.284  14.715  0.00  0.00    +0.000 N 
ATOM      4  H   UNL     1      49.373   6.312  14.495  0.00  0.00    +0.000 HD
ENDROOT
BRANCH   2   5
ATOM      5  C   UNL     1      49.075   6.573  17.003  0.00  0.00    +0.000 A 
ATOM      6  C   UNL     1      49.918   6.810  18.076  0.00  0.00    +0.000 A 
ATOM      7  S   UNL     1      50.075   5.467  19.121  0.00  0.00    +0.000 S 
ATOM      8  C   UNL     1      48.993   4.543  18.189  0.00  0.00    +0.000 A 
ATOM      9  N   UNL     1      48.662   3.272  18.544  0.00  0.00    +0.000 NA
ATOM     10  C   UNL     1      47.806   2.707  17.763  0.00  0.00    +0.000 A 
ATOM     11  N   UNL     1      47.247   3.288  16.657  0.00  0.00    +0.000 N 
ATOM     12  C   UNL     1      47.606   4.539  16.218  0.00  0.00    +0.000 A 
ATOM     13  O   UNL     1      47.198   4.973  15.143  0.00  0.00    +0.000 OA
ATOM     14  C   UNL     1      48.534   5.239  17.084  0.00  0.00    +0.000 A 
ATOM     15  H   UNL     1      46.608   2.782  16.064  0.00  0.00    +0.000 HD
ENDBRANCH   2   5
BRANCH   3  16
ATOM     16  C   UNL     1      48.919   8.136  13.589  0.00  0.00    +0.000 C 
BRANCH  16  17
ATOM     17  C   UNL     1      47.624   7.779  12.927  0.00  0.00    +0.000 A 
ATOM     18  C   UNL     1      47.570   6.805  11.931  0.00  0.00    +0.000 A 
ATOM     19  C   UNL     1      46.349   6.474  11.344  0.00  0.00    +0.000 A 
ATOM     20  C   UNL     1      45.195   7.134  11.764  0.00  0.00    +0.000 A 
ATOM     21  N   UNL     1      45.235   8.105  12.715  0.00  0.00    +0.000 NA
ATOM     22  C   UNL     1      46.436   8.410  13.261  0.00  0.00    +0.000 A 
BRANCH  20  23
ATOM     23  C   UNL     1      43.857   6.757  11.119  0.00  0.00    +0.000 C 
BRANCH  23  24
ATOM     24  N   UNL     1      43.257   5.443  11.428  0.00  0.00    +0.000 NA
ATOM     25  C   UNL     1      43.114   5.188  12.864  0.00  0.00    +0.000 C 
ATOM     26  C   UNL     1      43.616   3.774  13.128  0.00  0.00    +0.000 C 
ATOM     27  C   UNL     1      43.780   3.145  11.758  0.00  0.00    +0.000 C 
ATOM     28  C   UNL     1      43.976   4.322  10.807  0.00  0.00    +0.000 C 
BRANCH  27  29
ATOM     29  O   UNL     1      42.603   2.408  11.426  0.00  0.00    +0.000 OA
ATOM     30  H   UNL     1      42.388   2.645  10.502  0.00  0.00    +0.000 HD
ENDBRANCH  27  29
ENDBRANCH  23  24
ENDBRANCH  20  23
ENDBRANCH  16  17
ENDBRANCH   3  16
TORSDOF 6
ENDMDL
MODEL 5
REMARK VINA RESULT:    -6.905      3.757      8.834
REMARK INTER + INTRA:          -9.774
REMARK INTER:                  -9.011
REMARK INTRA:                  -0.764
REMARK UNBOUND:                -0.649
REMARK  Name = 
REMARK  6 active torsions:
REMARK  status: ('A' for Active; 'I' for Inactive)
REMARK    1  A    between atoms: C_2  and  C_18
REMARK    2  A    between atoms: N_3  and  C_4
REMARK    3  A    between atoms: C_4  and  C_5
REMARK    4  A    between atoms: C_8  and  C_9
REMARK    5  A    between atoms: C_9  and  N_10
REMARK    6  A    between atoms: C_13  and  O_14
REMARK                            x       y       z     vdW  Elec       q    Type
REMARK                         _______ _______ _______ _____ _____    ______ ____
ROOT
ATOM      1  O   UNL     1      45.218   7.894  11.677  0.00  0.00    +0.000 OA
ATOM      2  C   UNL     1      45.955   6.933  11.471  0.00  0.00    +0.000 C 
ATOM      3  N   UNL     1      47.266   6.900  11.874  0.00  0.00    +0.000 N 
ATOM      4  H   UNL     1      47.868   6.172  11.509  0.00  0.00    +0.000 HD
ENDROOT
BRANCH   2   5
ATOM      5  C   UNL     1      45.472   5.723  10.802  0.00  0.00    +0.000 A 
ATOM      6  C   UNL     1      45.755   5.499   9.465  0.00  0.00    +0.000 A 
ATOM      7  S   UNL     1      45.085   4.045   8.867  0.00  0.00    +0.000 S 
ATOM      8  C   UNL     1      44.430   3.655  10.387  0.00  0.00    +0.000 A 
ATOM      9  N   UNL     1      43.730   2.504  10.581  0.00  0.00    +0.000 NA
ATOM     10  C   UNL     1      43.322   2.326  11.791  0.00  0.00    +0.000 A 
ATOM     11  N   UNL     1      43.543   3.189  12.831  0.00  0.00    +0.000 N 
ATOM     12  C   UNL     1      44.178   4.396  12.667  0.00  0.00    +0.000 A 
ATOM     13  O   UNL     1      44.230   5.212  13.584  0.00  0.00    +0.000 OA
ATOM     14  C   UNL     1      44.697   4.629  11.334  0.00  0.00    +0.000 A 
ATOM     15  H   UNL     1      43.168   3.012  13.749  0.00  0.00    +0.000 HD
ENDBRANCH   2   5
BRANCH   3  16
ATOM     16  C   UNL     1      47.938   8.041  12.434  0.00  0.00    +0.000 C 
BRANCH  16  17
ATOM     17  C   UNL     1      48.311   7.815  13.867  0.00  0.00    +0.000 A 
ATOM     18  C   UNL     1      48.335   8.869  14.779  0.00  0.00    +0.000 A 
ATOM     19  C   UNL     1      48.663   8.630  16.113  0.00  0.00    +0.000 A 
ATOM     20  C   UNL     1      48.970   7.330  16.513  0.00  0.00    +0.000 A 
ATOM     21  N   UNL     1      48.976   6.295  15.630  0.00  0.00    +0.000 NA
ATOM     22  C   UNL     1      48.661   6.559  14.340  0.00  0.00    +0.000 A 
BRANCH  20  23
ATOM     23  C   UNL     1      49.321   7.076  17.983  0.00  0.00    +0.000 C 
BRANCH  23  24
ATOM     24  N   UNL     1      48.694   5.936  18.683  0.00  0.00    +0.000 NA
ATOM     25  C   UNL     1      47.453   6.287  19.377  0.00  0.00    +0.000 C 
ATOM     26  C   UNL     1      47.517   5.669  20.768  0.00  0.00    +0.000 C 
ATOM     27  C   UNL     1      48.704   4.726  20.732  0.00  0.00    +0.000 C 
ATOM     28  C   UNL     1      49.603   5.270  19.626  0.00  0.00    +0.000 C 
BRANCH  27  29
ATOM     29  O   UNL     1      48.258   3.405  20.427  0.00  0.00    +0.000 OA
ATOM     30  H   UNL     1      48.576   3.215  19.522  0.00  0.00    +0.000 HD
ENDBRANCH  27  29
ENDBRANCH  23  24
ENDBRANCH  20  23
ENDBRANCH  16  17
ENDBRANCH   3  16
TORSDOF 6
ENDMDL
MODEL 6
REMARK VINA RESULT:    -6.813      4.017      6.000
REMARK INTER + INTRA:          -9.652
REMARK INTER:                  -8.815
REMARK INTRA:                  -0.837
REMARK UNBOUND:                -0.649
REMARK  Name = 
REMARK  6 active torsions:
REMARK  status: ('A' for Active; 'I' for Inactive)
REMARK    1  A    between atoms: C_2  and  C_18
REMARK    2  A    between atoms: N_3  and  C_4
REMARK    3  A    between atoms: C_4  and  C_5
REMARK    4  A    between atoms: C_8  and  C_9
REMARK    5  A    between atoms: C_9  and  N_10
REMARK    6  A    between atoms: C_13  and  O_14
REMARK                            x       y       z     vdW  Elec       q    Type
REMARK                         _______ _______ _______ _____ _____    ______ ____
ROOT
ATOM      1  O   UNL     1      51.940   6.272  17.060  0.00  0.00    +0.000 OA
ATOM      2  C   UNL     1      51.591   5.257  17.657  0.00  0.00    +0.000 C 
ATOM      3  N   UNL     1      50.279   4.973  17.936  0.00  0.00    +0.000 N 
ATOM      4  H   UNL     1      50.072   4.229  18.592  0.00  0.00    +0.000 HD
ENDROOT
BRANCH   2   5
ATOM      5  C   UNL     1      52.559   4.247  18.087  0.00  0.00    +0.000 A 
ATOM      6  C   UNL     1      53.731   4.623  18.723  0.00  0.00    +0.000 A 
ATOM      7  S   UNL     1      54.737   3.302  19.125  0.00  0.00    +0.000 S 
ATOM      8  C   UNL     1      53.618   2.186  18.495  0.00  0.00    +0.000 A 
ATOM      9  N   UNL     1      53.857   0.847  18.536  0.00  0.00    +0.000 NA
ATOM     10  C   UNL     1      52.907   0.122  18.051  0.00  0.00    +0.000 A 
ATOM     11  N   UNL     1      51.739   0.604  17.526  0.00  0.00    +0.000 N 
ATOM     12  C   UNL     1      51.487   1.948  17.395  0.00  0.00    +0.000 A 
ATOM     13  O   UNL     1      50.497   2.350  16.786  0.00  0.00    +0.000 OA
ATOM     14  C   UNL     1      52.503   2.811  17.964  0.00  0.00    +0.000 A 
ATOM     15  H   UNL     1      51.047  -0.012  17.130  0.00  0.00    +0.000 HD
ENDBRANCH   2   5
BRANCH   3  16
ATOM     16  C   UNL     1      49.210   5.905  17.696  0.00  0.00    +0.000 C 
BRANCH  16  17
ATOM     17  C   UNL     1      48.388   5.509  16.507  0.00  0.00    +0.000 A 
ATOM     18  C   UNL     1      48.386   6.280  15.346  0.00  0.00    +0.000 A 
ATOM     19  C   UNL     1      47.631   5.880  14.245  0.00  0.00    +0.000 A 
ATOM     20  C   UNL     1      46.880   4.709  14.328  0.00  0.00    +0.000 A 
ATOM     21  N   UNL     1      46.851   3.959  15.463  0.00  0.00    +0.000 NA
ATOM     22  C   UNL     1      47.588   4.377  16.518  0.00  0.00    +0.000 A 
BRANCH  20  23
ATOM     23  C   UNL     1      46.059   4.273  13.108  0.00  0.00    +0.000 C 
BRANCH  23  24
ATOM     24  N   UNL     1      44.876   5.067  12.720  0.00  0.00    +0.000 NA
ATOM     25  C   UNL     1      43.605   4.386  12.973  0.00  0.00    +0.000 C 
ATOM     26  C   UNL     1      42.740   4.553  11.729  0.00  0.00    +0.000 C 
ATOM     27  C   UNL     1      43.456   5.587  10.882  0.00  0.00    +0.000 C 
ATOM     28  C   UNL     1      44.916   5.511  11.319  0.00  0.00    +0.000 C 
BRANCH  27  29
ATOM     29  O   UNL     1      42.910   6.880  11.143  0.00  0.00    +0.000 OA
ATOM     30  H   UNL     1      42.876   6.967  12.117  0.00  0.00    +0.000 HD
ENDBRANCH  27  29
ENDBRANCH  23  24
ENDBRANCH  20  23
ENDBRANCH  16  17
ENDBRANCH   3  16
TORSDOF 6
ENDMDL
MODEL 7
REMARK VINA RESULT:    -6.555      3.148      8.684
REMARK INTER + INTRA:          -9.311
REMARK INTER:                  -8.662
REMARK INTRA:                  -0.650
REMARK UNBOUND:                -0.649
REMARK  Name = 
REMARK  6 active torsions:
REMARK  status: ('A' for Active; 'I' for Inactive)
REMARK    1  A    between atoms: C_2  and  C_18
REMARK    2  A    between atoms: N_3  and  C_4
REMARK    3  A    between atoms: C_4  and  C_5
REMARK    4  A    between atoms: C_8  and  C_9
REMARK    5  A    between atoms: C_9  and  N_10
REMARK    6  A    between atoms: C_13  and  O_14
REMARK                            x       y       z     vdW  Elec       q    Type
REMARK                         _______ _______ _______ _____ _____    ______ ____
ROOT
ATOM      1  O   UNL     1      44.328   7.602  11.352  0.00  0.00    +0.000 OA
ATOM      2  C   UNL     1      44.966   6.637  11.767  0.00  0.00    +0.000 C 
ATOM      3  N   UNL     1      46.076   6.765  12.561  0.00  0.00    +0.000 N 
ATOM      4  H   UNL     1      46.665   5.953  12.708  0.00  0.00    +0.000 HD
ENDROOT
BRANCH   2   5
ATOM      5  C   UNL     1      44.560   5.262  11.468  0.00  0.00    +0.000 A 
ATOM      6  C   UNL     1      43.770   4.554  12.359  0.00  0.00    +0.000 A 
ATOM      7  S   UNL     1      43.423   2.964  11.839  0.00  0.00    +0.000 S 
ATOM      8  C   UNL     1      44.287   3.188  10.392  0.00  0.00    +0.000 A 
ATOM      9  N   UNL     1      44.377   2.198   9.462  0.00  0.00    +0.000 NA
ATOM     10  C   UNL     1      45.035   2.523   8.401  0.00  0.00    +0.000 A 
ATOM     11  N   UNL     1      45.616   3.742   8.178  0.00  0.00    +0.000 N 
ATOM     12  C   UNL     1      45.616   4.744   9.117  0.00  0.00    +0.000 A 
ATOM     13  O   UNL     1      46.271   5.770   8.947  0.00  0.00    +0.000 OA
ATOM     14  C   UNL     1      44.852   4.449  10.314  0.00  0.00    +0.000 A 
ATOM     15  H   UNL     1      46.148   3.925   7.342  0.00  0.00    +0.000 HD
ENDBRANCH   2   5
BRANCH   3  16
ATOM     16  C   UNL     1      46.685   8.035  12.853  0.00  0.00    +0.000 C 
BRANCH  16  17
ATOM     17  C   UNL     1      47.755   7.909  13.893  0.00  0.00    +0.000 A 
ATOM     18  C   UNL     1      47.924   8.886  14.873  0.00  0.00    +0.000 A 
ATOM     19  C   UNL     1      48.912   8.736  15.845  0.00  0.00    +0.000 A 
ATOM     20  C   UNL     1      49.725   7.604  15.815  0.00  0.00    +0.000 A 
ATOM     21  N   UNL     1      49.590   6.654  14.851  0.00  0.00    +0.000 NA
ATOM     22  C   UNL     1      48.627   6.831  13.916  0.00  0.00    +0.000 A 
BRANCH  20  23
ATOM     23  C   UNL     1      50.803   7.444  16.893  0.00  0.00    +0.000 C 
BRANCH  23  24
ATOM     24  N   UNL     1      50.706   6.317  17.842  0.00  0.00    +0.000 NA
ATOM     25  C   UNL     1      51.386   5.103  17.381  0.00  0.00    +0.000 C 
ATOM     26  C   UNL     1      50.441   3.932  17.619  0.00  0.00    +0.000 C 
ATOM     27  C   UNL     1      49.327   4.487  18.486  0.00  0.00    +0.000 C 
ATOM     28  C   UNL     1      49.321   5.986  18.204  0.00  0.00    +0.000 C 
BRANCH  27  29
ATOM     29  O   UNL     1      49.613   4.225  19.859  0.00  0.00    +0.000 OA
ATOM     30  H   UNL     1      49.116   4.894  20.372  0.00  0.00    +0.000 HD
ENDBRANCH  27  29
ENDBRANCH  23  24
ENDBRANCH  20  23
ENDBRANCH  16  17
ENDBRANCH   3  16
TORSDOF 6
ENDMDL
MODEL 8
REMARK VINA RESULT:    -6.516      4.475      7.321
REMARK INTER + INTRA:          -9.260
REMARK INTER:                  -8.482
REMARK INTRA:                  -0.778
REMARK UNBOUND:                -0.649
REMARK  Name = 
REMARK  6 active torsions:
REMARK  status: ('A' for Active; 'I' for Inactive)
REMARK    1  A    between atoms: C_2  and  C_18
REMARK    2  A    between atoms: N_3  and  C_4
REMARK    3  A    between atoms: C_4  and  C_5
REMARK    4  A    between atoms: C_8  and  C_9
REMARK    5  A    between atoms: C_9  and  N_10
REMARK    6  A    between atoms: C_13  and  O_14
REMARK                            x       y       z     vdW  Elec       q    Type
REMARK                         _______ _______ _______ _____ _____    ______ ____
ROOT
ATOM      1  O   UNL     1      43.901   7.372  11.340  0.00  0.00    +0.000 OA
ATOM      2  C   UNL     1      44.601   6.461  11.773  0.00  0.00    +0.000 C 
ATOM      3  N   UNL     1      45.663   6.673  12.614  0.00  0.00    +0.000 N 
ATOM      4  H   UNL     1      46.312   5.913  12.780  0.00  0.00    +0.000 HD
ENDROOT
BRANCH   2   5
ATOM      5  C   UNL     1      44.326   5.060  11.447  0.00  0.00    +0.000 A 
ATOM      6  C   UNL     1      43.551   4.281  12.292  0.00  0.00    +0.000 A 
ATOM      7  S   UNL     1      43.365   2.673  11.747  0.00  0.00    +0.000 S 
ATOM      8  C   UNL     1      44.282   2.980  10.348  0.00  0.00    +0.000 A 
ATOM      9  N   UNL     1      44.502   2.010   9.420  0.00  0.00    +0.000 NA
ATOM     10  C   UNL     1      45.185   2.396   8.397  0.00  0.00    +0.000 A 
ATOM     11  N   UNL     1      45.674   3.661   8.210  0.00  0.00    +0.000 N 
ATOM     12  C   UNL     1      45.543   4.651   9.153  0.00  0.00    +0.000 A 
ATOM     13  O   UNL     1      46.119   5.729   9.023  0.00  0.00    +0.000 OA
ATOM     14  C   UNL     1      44.744   4.284  10.306  0.00  0.00    +0.000 A 
ATOM     15  H   UNL     1      46.233   3.895   7.405  0.00  0.00    +0.000 HD
ENDBRANCH   2   5
BRANCH   3  16
ATOM     16  C   UNL     1      46.149   7.987  12.941  0.00  0.00    +0.000 C 
BRANCH  16  17
ATOM     17  C   UNL     1      47.553   8.192  12.460  0.00  0.00    +0.000 A 
ATOM     18  C   UNL     1      47.977   9.433  11.989  0.00  0.00    +0.000 A 
ATOM     19  C   UNL     1      49.295   9.606  11.567  0.00  0.00    +0.000 A 
ATOM     20  C   UNL     1      50.170   8.523  11.619  0.00  0.00    +0.000 A 
ATOM     21  N   UNL     1      49.764   7.298  12.050  0.00  0.00    +0.000 NA
ATOM     22  C   UNL     1      48.477   7.159  12.446  0.00  0.00    +0.000 A 
BRANCH  20  23
ATOM     23  C   UNL     1      51.619   8.725  11.161  0.00  0.00    +0.000 C 
BRANCH  23  24
ATOM     24  N   UNL     1      52.454   7.539  10.882  0.00  0.00    +0.000 NA
ATOM     25  C   UNL     1      53.868   7.726  11.218  0.00  0.00    +0.000 C 
ATOM     26  C   UNL     1      54.690   7.198  10.048  0.00  0.00    +0.000 C 
ATOM     27  C   UNL     1      53.702   6.453   9.171  0.00  0.00    +0.000 C 
ATOM     28  C   UNL     1      52.346   7.072   9.492  0.00  0.00    +0.000 C 
BRANCH  27  29
ATOM     29  O   UNL     1      53.723   5.064   9.501  0.00  0.00    +0.000 OA
ATOM     30  H   UNL     1      53.256   4.606   8.773  0.00  0.00    +0.000 HD
ENDBRANCH  27  29
ENDBRANCH  23  24
ENDBRANCH  20  23
ENDBRANCH  16  17
ENDBRANCH   3  16
TORSDOF 6
ENDMDL
MODEL 9
REMARK VINA RESULT:    -6.213      2.367      3.420
REMARK INTER + INTRA:          -8.860
REMARK INTER:                  -8.136
REMARK INTRA:                  -0.724
REMARK UNBOUND:                -0.649
REMARK  Name = 
REMARK  6 active torsions:
REMARK  status: ('A' for Active; 'I' for Inactive)
REMARK    1  A    between atoms: C_2  and  C_18
REMARK    2  A    between atoms: N_3  and  C_4
REMARK    3  A    between atoms: C_4  and  C_5
REMARK    4  A    between atoms: C_8  and  C_9
REMARK    5  A    between atoms: C_9  and  N_10
REMARK    6  A    between atoms: C_13  and  O_14
REMARK                            x       y       z     vdW  Elec       q    Type
REMARK                         _______ _______ _______ _____ _____    ______ ____
ROOT
ATOM      1  O   UNL     1      49.589   9.464  16.351  0.00  0.00    +0.000 OA
ATOM      2  C   UNL     1      48.896   8.472  16.564  0.00  0.00    +0.000 C 
ATOM      3  N   UNL     1      48.279   7.767  15.563  0.00  0.00    +0.000 N 
ATOM      4  H   UNL     1      47.573   7.085  15.813  0.00  0.00    +0.000 HD
ENDROOT
BRANCH   2   5
ATOM      5  C   UNL     1      48.708   7.942  17.916  0.00  0.00    +0.000 A 
ATOM      6  C   UNL     1      48.417   8.794  18.969  0.00  0.00    +0.000 A 
ATOM      7  S   UNL     1      48.255   7.986  20.467  0.00  0.00    +0.000 S 
ATOM      8  C   UNL     1      48.532   6.472  19.744  0.00  0.00    +0.000 A 
ATOM      9  N   UNL     1      48.514   5.325  20.477  0.00  0.00    +0.000 NA
ATOM     10  C   UNL     1      48.706   4.251  19.790  0.00  0.00    +0.000 A 
ATOM     11  N   UNL     1      48.918   4.209  18.439  0.00  0.00    +0.000 N 
ATOM     12  C   UNL     1      49.019   5.343  17.671  0.00  0.00    +0.000 A 
ATOM     13  O   UNL     1      49.355   5.280  16.490  0.00  0.00    +0.000 OA
ATOM     14  C   UNL     1      48.767   6.580  18.384  0.00  0.00    +0.000 A 
ATOM     15  H   UNL     1      49.097   3.340  17.961  0.00  0.00    +0.000 HD
ENDBRANCH   2   5
BRANCH   3  16
ATOM     16  C   UNL     1      48.256   8.211  14.195  0.00  0.00    +0.000 C 
BRANCH  16  17
ATOM     17  C   UNL     1      47.299   7.407  13.369  0.00  0.00    +0.000 A 
ATOM     18  C   UNL     1      46.619   7.980  12.296  0.00  0.00    +0.000 A 
ATOM     19  C   UNL     1      45.750   7.206  11.528  0.00  0.00    +0.000 A 
ATOM     20  C   UNL     1      45.571   5.863  11.854  0.00  0.00    +0.000 A 
ATOM     21  N   UNL     1      46.206   5.296  12.915  0.00  0.00    +0.000 NA
ATOM     22  C   UNL     1      47.038   6.075  13.647  0.00  0.00    +0.000 A 
BRANCH  20  23
ATOM     23  C   UNL     1      44.620   5.019  10.999  0.00  0.00    +0.000 C 
BRANCH  23  24
ATOM     24  N   UNL     1      45.178   3.939  10.160  0.00  0.00    +0.000 NA
ATOM     25  C   UNL     1      45.458   4.352   8.783  0.00  0.00    +0.000 C 
ATOM     26  C   UNL     1      44.912   3.269   7.860  0.00  0.00    +0.000 C 
ATOM     27  C   UNL     1      44.571   2.105   8.770  0.00  0.00    +0.000 C 
ATOM     28  C   UNL     1      44.338   2.733  10.141  0.00  0.00    +0.000 C 
BRANCH  27  29
ATOM     29  O   UNL     1      45.664   1.188   8.804  0.00  0.00    +0.000 OA
ATOM     30  H   UNL     1      45.350   0.412   9.311  0.00  0.00    +0.000 HD
ENDBRANCH  27  29
ENDBRANCH  23  24
ENDBRANCH  20  23
ENDBRANCH  16  17
ENDBRANCH   3  16
TORSDOF 6
ENDMDL
