MODEL 1
REMARK VINA RESULT:    -8.257      0.000      0.000
REMARK INTER + INTRA:         -11.603
REMARK INTER:                 -10.671
REMARK INTRA:                  -0.932
REMARK UNBOUND:                -0.932
REMARK  Name = 
REMARK  5 active torsions:
REMARK  status: ('A' for Active; 'I' for Inactive)
REMARK    1  A    between atoms: C_2  and  C_5
REMARK    2  A    between atoms: C_7  and  C_8
REMARK    3  A    between atoms: C_12  and  C_13
REMARK    4  A    between atoms: C_13  and  N_14
REMARK    5  A    between atoms: C_19  and  C_20
REMARK                            x       y       z     vdW  Elec       q    Type
REMARK                         _______ _______ _______ _____ _____    ______ ____
ROOT
ATOM      1  C   UNL     1      45.738   6.214  12.344  0.00  0.00    +0.000 A 
ATOM      2  C   UNL     1      45.149   7.491  12.342  0.00  0.00    +0.000 A 
ATOM      3  C   UNL     1      45.850   8.622  12.770  0.00  0.00    +0.000 A 
ATOM      4  C   UNL     1      47.150   8.502  13.253  0.00  0.00    +0.000 A 
ATOM      5  C   UNL     1      47.761   7.246  13.304  0.00  0.00    +0.000 A 
ATOM      6  C   UNL     1      47.066   6.128  12.809  0.00  0.00    +0.000 A 
ENDROOT
BRANCH   1   9
ATOM      7  C   UNL     1      44.566   3.230  10.291  0.00  0.00    +0.000 A 
ATOM      8  C   UNL     1      45.296   4.351  10.701  0.00  0.00    +0.000 A 
ATOM      9  C   UNL     1      44.991   5.007  11.906  0.00  0.00    +0.000 A 
ATOM     10  C   UNL     1      43.952   4.461  12.670  0.00  0.00    +0.000 A 
ATOM     11  C   UNL     1      43.288   3.331  12.218  0.00  0.00    +0.000 A 
ATOM     12  N   UNL     1      43.565   2.712  11.054  0.00  0.00    +0.000 NA
BRANCH   7  14
ATOM     13  F   UNL     1      46.213   2.584   8.644  0.00  0.00    +0.000 F 
ATOM     14  C   UNL     1      44.879   2.577   8.949  0.00  0.00    +0.000 C 
ATOM     15  F   UNL     1      44.269   3.196   7.898  0.00  0.00    +0.000 F 
ATOM     16  F   UNL     1      44.504   1.267   8.886  0.00  0.00    +0.000 F 
ENDBRANCH   7  14
ENDBRANCH   1   9
BRANCH   5  17
ATOM     17  C   UNL     1      49.121   7.075  13.941  0.00  0.00    +0.000 C 
BRANCH  17  18
ATOM     18  N   UNL     1      49.143   7.643  15.282  0.00  0.00    +0.000 N 
ATOM     19  C   UNL     1      48.841   6.695  16.277  0.00  0.00    +0.000 A 
ATOM     20  C   UNL     1      48.798   7.071  17.621  0.00  0.00    +0.000 A 
ATOM     21  N   UNL     1      48.531   6.210  18.635  0.00  0.00    +0.000 NA
ATOM     22  C   UNL     1      48.319   4.927  18.268  0.00  0.00    +0.000 A 
ATOM     23  C   UNL     1      48.365   4.513  16.945  0.00  0.00    +0.000 A 
ATOM     24  N   UNL     1      48.633   5.404  15.941  0.00  0.00    +0.000 NA
ATOM     25  H   UNL     1      48.520   8.442  15.364  0.00  0.00    +0.000 HD
BRANCH  23  26
ATOM     26  C   UNL     1      48.103   3.066  16.601  0.00  0.00    +0.000 C 
ATOM     27  F   UNL     1      49.217   2.279  16.676  0.00  0.00    +0.000 F 
ATOM     28  F   UNL     1      47.193   2.481  17.432  0.00  0.00    +0.000 F 
ATOM     29  F   UNL     1      47.621   2.893  15.338  0.00  0.00    +0.000 F 
ENDBRANCH  23  26
ENDBRANCH  17  18
ENDBRANCH   5  17
TORSDOF 5
ENDMDL
MODEL 2
REMARK VINA RESULT:    -7.718      1.378      7.436
REMARK INTER + INTRA:         -10.906
REMARK INTER:                  -9.966
REMARK INTRA:                  -0.940
REMARK UNBOUND:                -0.932
REMARK  Name = 
REMARK  5 active torsions:
REMARK  status: ('A' for Active; 'I' for Inactive)
REMARK    1  A    between atoms: C_2  and  C_5
REMARK    2  A    between atoms: C_7  and  C_8
REMARK    3  A    between atoms: C_12  and  C_13
REMARK    4  A    between atoms: C_13  and  N_14
REMARK    5  A    between atoms: C_19  and  C_20
REMARK                            x       y       z     vdW  Elec       q    Type
REMARK                         _______ _______ _______ _____ _____    ______ ____
ROOT
ATOM      1  C   UNL     1      48.441   6.874  14.273  0.00  0.00    +0.000 A 
ATOM      2  C   UNL     1      49.555   7.343  13.555  0.00  0.00    +0.000 A 
ATOM      3  C   UNL     1      49.436   7.818  12.245  0.00  0.00    +0.000 A 
ATOM      4  C   UNL     1      48.203   7.800  11.601  0.00  0.00    +0.000 A 
ATOM      5  C   UNL     1      47.076   7.310  12.266  0.00  0.00    +0.000 A 
ATOM      6  C   UNL     1      47.200   6.897  13.605  0.00  0.00    +0.000 A 
ENDROOT
BRANCH   1   9
ATOM      7  C   UNL     1      48.337   4.554  17.290  0.00  0.00    +0.000 A 
ATOM      8  C   UNL     1      48.237   5.024  15.975  0.00  0.00    +0.000 A 
ATOM      9  C   UNL     1      48.566   6.353  15.658  0.00  0.00    +0.000 A 
ATOM     10  C   UNL     1      49.018   7.154  16.713  0.00  0.00    +0.000 A 
ATOM     11  C   UNL     1      49.120   6.618  17.988  0.00  0.00    +0.000 A 
ATOM     12  N   UNL     1      48.787   5.350  18.298  0.00  0.00    +0.000 NA
BRANCH   7  14
ATOM     13  F   UNL     1      48.225   2.749  18.894  0.00  0.00    +0.000 F 
ATOM     14  C   UNL     1      47.915   3.126  17.614  0.00  0.00    +0.000 C 
ATOM     15  F   UNL     1      48.514   2.197  16.814  0.00  0.00    +0.000 F 
ATOM     16  F   UNL     1      46.573   2.920  17.495  0.00  0.00    +0.000 F 
ENDBRANCH   7  14
ENDBRANCH   1   9
BRANCH   5  17
ATOM     17  C   UNL     1      45.756   7.163  11.545  0.00  0.00    +0.000 C 
BRANCH  17  18
ATOM     18  N   UNL     1      44.881   6.232  12.245  0.00  0.00    +0.000 N 
ATOM     19  C   UNL     1      44.623   5.066  11.499  0.00  0.00    +0.000 A 
ATOM     20  C   UNL     1      43.787   4.073  12.010  0.00  0.00    +0.000 A 
ATOM     21  N   UNL     1      43.507   2.916  11.358  0.00  0.00    +0.000 NA
ATOM     22  C   UNL     1      44.111   2.765  10.158  0.00  0.00    +0.000 A 
ATOM     23  C   UNL     1      44.957   3.724   9.624  0.00  0.00    +0.000 A 
ATOM     24  N   UNL     1      45.220   4.884  10.302  0.00  0.00    +0.000 NA
ATOM     25  H   UNL     1      44.005   6.670  12.518  0.00  0.00    +0.000 HD
BRANCH  23  26
ATOM     26  C   UNL     1      45.588   3.498   8.269  0.00  0.00    +0.000 C 
ATOM     27  F   UNL     1      44.677   3.394   7.257  0.00  0.00    +0.000 F 
ATOM     28  F   UNL     1      46.424   4.511   7.900  0.00  0.00    +0.000 F 
ATOM     29  F   UNL     1      46.332   2.357   8.207  0.00  0.00    +0.000 F 
ENDBRANCH  23  26
ENDBRANCH  17  18
ENDBRANCH   5  17
TORSDOF 5
ENDMDL
MODEL 3
REMARK VINA RESULT:    -7.248      1.649      2.558
REMARK INTER + INTRA:         -10.299
REMARK INTER:                  -9.238
REMARK INTRA:                  -1.061
REMARK UNBOUND:                -0.932
REMARK  Name = 
REMARK  5 active torsions:
REMARK  status: ('A' for Active; 'I' for Inactive)
REMARK    1  A    between atoms: C_2  and  C_5
REMARK    2  A    between atoms: C_7  and  C_8
REMARK    3  A    between atoms: C_12  and  C_13
REMARK    4  A    between atoms: C_13  and  N_14
REMARK    5  A    between atoms: C_19  and  C_20
REMARK                            x       y       z     vdW  Elec       q    Type
REMARK                         _______ _______ _______ _____ _____    ______ ____
ROOT
ATOM      1  C   UNL     1      47.877   7.491  12.529  0.00  0.00    +0.000 A 
ATOM      2  C   UNL     1      48.387   8.597  11.826  0.00  0.00    +0.000 A 
ATOM      3  C   UNL     1      49.607   9.185  12.170  0.00  0.00    +0.000 A 
ATOM      4  C   UNL     1      50.334   8.710  13.257  0.00  0.00    +0.000 A 
ATOM      5  C   UNL     1      49.847   7.634  14.005  0.00  0.00    +0.000 A 
ATOM      6  C   UNL     1      48.651   7.012  13.606  0.00  0.00    +0.000 A 
ENDROOT
BRANCH   1   9
ATOM      7  C   UNL     1      45.135   4.919  11.925  0.00  0.00    +0.000 A 
ATOM      8  C   UNL     1      46.363   5.488  12.284  0.00  0.00    +0.000 A 
ATOM      9  C   UNL     1      46.572   6.874  12.178  0.00  0.00    +0.000 A 
ATOM     10  C   UNL     1      45.489   7.638  11.727  0.00  0.00    +0.000 A 
ATOM     11  C   UNL     1      44.291   7.013  11.414  0.00  0.00    +0.000 A 
ATOM     12  N   UNL     1      44.094   5.683  11.497  0.00  0.00    +0.000 NA
BRANCH   7  14
ATOM     13  F   UNL     1      45.919   2.784  12.743  0.00  0.00    +0.000 F 
ATOM     14  C   UNL     1      44.958   3.407  11.993  0.00  0.00    +0.000 C 
ATOM     15  F   UNL     1      45.016   2.806  10.769  0.00  0.00    +0.000 F 
ATOM     16  F   UNL     1      43.770   3.027  12.544  0.00  0.00    +0.000 F 
ENDBRANCH   7  14
ENDBRANCH   1   9
BRANCH   5  17
ATOM     17  C   UNL     1      50.555   7.184  15.262  0.00  0.00    +0.000 C 
BRANCH  17  18
ATOM     18  N   UNL     1      49.895   7.713  16.449  0.00  0.00    +0.000 N 
ATOM     19  C   UNL     1      49.071   6.763  17.079  0.00  0.00    +0.000 A 
ATOM     20  C   UNL     1      48.345   7.104  18.221  0.00  0.00    +0.000 A 
ATOM     21  N   UNL     1      47.545   6.238  18.892  0.00  0.00    +0.000 NA
ATOM     22  C   UNL     1      47.497   4.984  18.390  0.00  0.00    +0.000 A 
ATOM     23  C   UNL     1      48.212   4.604  17.265  0.00  0.00    +0.000 A 
ATOM     24  N   UNL     1      49.010   5.500  16.606  0.00  0.00    +0.000 NA
ATOM     25  H   UNL     1      49.361   8.552  16.241  0.00  0.00    +0.000 HD
BRANCH  23  26
ATOM     26  C   UNL     1      48.101   3.189  16.747  0.00  0.00    +0.000 C 
ATOM     27  F   UNL     1      47.240   2.412  17.469  0.00  0.00    +0.000 F 
ATOM     28  F   UNL     1      47.649   3.130  15.462  0.00  0.00    +0.000 F 
ATOM     29  F   UNL     1      49.289   2.519  16.758  0.00  0.00    +0.000 F 
ENDBRANCH  23  26
ENDBRANCH  17  18
ENDBRANCH   5  17
TORSDOF 5
ENDMDL
MODEL 4
REMARK VINA RESULT:    -6.957      2.386      2.911
REMARK INTER + INTRA:          -9.922
REMARK INTER:                  -9.227
REMARK INTRA:                  -0.695
REMARK UNBOUND:                -0.932
REMARK  Name = 
REMARK  5 active torsions:
REMARK  status: ('A' for Active; 'I' for Inactive)
REMARK    1  A    between atoms: C_2  and  C_5
REMARK    2  A    between atoms: C_7  and  C_8
REMARK    3  A    between atoms: C_12  and  C_13
REMARK    4  A    between atoms: C_13  and  N_14
REMARK    5  A    between atoms: C_19  and  C_20
REMARK                            x       y       z     vdW  Elec       q    Type
REMARK                         _______ _______ _______ _____ _____    ______ ____
ROOT
ATOM      1  C   UNL     1      45.692   6.629  11.944  0.00  0.00    +0.000 A 
ATOM      2  C   UNL     1      45.208   7.939  11.776  0.00  0.00    +0.000 A 
ATOM      3  C   UNL     1      45.768   9.021  12.460  0.00  0.00    +0.000 A 
ATOM      4  C   UNL     1      46.805   8.819  13.366  0.00  0.00    +0.000 A 
ATOM      5  C   UNL     1      47.294   7.529  13.589  0.00  0.00    +0.000 A 
ATOM      6  C   UNL     1      46.763   6.460  12.845  0.00  0.00    +0.000 A 
ENDROOT
BRANCH   1   9
ATOM      7  C   UNL     1      45.043   3.903   9.367  0.00  0.00    +0.000 A 
ATOM      8  C   UNL     1      45.638   4.977  10.039  0.00  0.00    +0.000 A 
ATOM      9  C   UNL     1      45.088   5.474  11.232  0.00  0.00    +0.000 A 
ATOM     10  C   UNL     1      43.946   4.822  11.714  0.00  0.00    +0.000 A 
ATOM     11  C   UNL     1      43.423   3.746  11.014  0.00  0.00    +0.000 A 
ATOM     12  N   UNL     1      43.938   3.279   9.859  0.00  0.00    +0.000 NA
BRANCH   7  14
ATOM     13  F   UNL     1      44.694   3.321   7.048  0.00  0.00    +0.000 F 
ATOM     14  C   UNL     1      45.628   3.425   8.043  0.00  0.00    +0.000 C 
ATOM     15  F   UNL     1      46.199   2.189   8.126  0.00  0.00    +0.000 F 
ATOM     16  F   UNL     1      46.590   4.254   7.548  0.00  0.00    +0.000 F 
ENDBRANCH   7  14
ENDBRANCH   1   9
BRANCH   5  17
ATOM     17  C   UNL     1      48.330   7.270  14.658  0.00  0.00    +0.000 C 
BRANCH  17  18
ATOM     18  N   UNL     1      47.892   6.215  15.563  0.00  0.00    +0.000 N 
ATOM     19  C   UNL     1      48.948   5.681  16.325  0.00  0.00    +0.000 A 
ATOM     20  C   UNL     1      48.712   4.646  17.231  0.00  0.00    +0.000 A 
ATOM     21  N   UNL     1      49.675   4.095  18.012  0.00  0.00    +0.000 NA
ATOM     22  C   UNL     1      50.910   4.627  17.874  0.00  0.00    +0.000 A 
ATOM     23  C   UNL     1      51.180   5.664  16.994  0.00  0.00    +0.000 A 
ATOM     24  N   UNL     1      50.190   6.199  16.215  0.00  0.00    +0.000 NA
ATOM     25  H   UNL     1      47.410   5.469  15.068  0.00  0.00    +0.000 HD
BRANCH  23  26
ATOM     26  C   UNL     1      52.587   6.202  16.877  0.00  0.00    +0.000 C 
ATOM     27  F   UNL     1      53.549   5.278  17.175  0.00  0.00    +0.000 F 
ATOM     28  F   UNL     1      52.884   6.639  15.620  0.00  0.00    +0.000 F 
ATOM     29  F   UNL     1      52.828   7.257  17.707  0.00  0.00    +0.000 F 
ENDBRANCH  23  26
ENDBRANCH  17  18
ENDBRANCH   5  17
TORSDOF 5
ENDMDL
MODEL 5
REMARK VINA RESULT:    -6.878      3.691      4.820
REMARK INTER + INTRA:          -9.820
REMARK INTER:                  -9.015
REMARK INTRA:                  -0.806
REMARK UNBOUND:                -0.932
REMARK  Name = 
REMARK  5 active torsions:
REMARK  status: ('A' for Active; 'I' for Inactive)
REMARK    1  A    between atoms: C_2  and  C_5
REMARK    2  A    between atoms: C_7  and  C_8
REMARK    3  A    between atoms: C_12  and  C_13
REMARK    4  A    between atoms: C_13  and  N_14
REMARK    5  A    between atoms: C_19  and  C_20
REMARK                            x       y       z     vdW  Elec       q    Type
REMARK                         _______ _______ _______ _____ _____    ______ ____
ROOT
ATOM      1  C   UNL     1      44.647   4.686  10.136  0.00  0.00    +0.000 A 
ATOM      2  C   UNL     1      43.341   4.700  10.656  0.00  0.00    +0.000 A 
ATOM      3  C   UNL     1      42.894   5.730  11.489  0.00  0.00    +0.000 A 
ATOM      4  C   UNL     1      43.757   6.756  11.861  0.00  0.00    +0.000 A 
ATOM      5  C   UNL     1      45.075   6.763  11.395  0.00  0.00    +0.000 A 
ATOM      6  C   UNL     1      45.489   5.755  10.505  0.00  0.00    +0.000 A 
ENDROOT
BRANCH   1   9
ATOM      7  C   UNL     1      46.268   2.795   7.256  0.00  0.00    +0.000 A 
ATOM      8  C   UNL     1      45.840   3.843   8.080  0.00  0.00    +0.000 A 
ATOM      9  C   UNL     1      45.131   3.585   9.264  0.00  0.00    +0.000 A 
ATOM     10  C   UNL     1      44.908   2.238   9.579  0.00  0.00    +0.000 A 
ATOM     11  C   UNL     1      45.383   1.248   8.734  0.00  0.00    +0.000 A 
ATOM     12  N   UNL     1      46.047   1.493   7.587  0.00  0.00    +0.000 NA
BRANCH   7  14
ATOM     13  F   UNL     1      46.989   4.443   5.642  0.00  0.00    +0.000 F 
ATOM     14  C   UNL     1      46.981   3.108   5.946  0.00  0.00    +0.000 C 
ATOM     15  F   UNL     1      46.410   2.500   4.867  0.00  0.00    +0.000 F 
ATOM     16  F   UNL     1      48.292   2.732   5.943  0.00  0.00    +0.000 F 
ENDBRANCH   7  14
ENDBRANCH   1   9
BRANCH   5  17
ATOM     17  C   UNL     1      46.063   7.795  11.886  0.00  0.00    +0.000 C 
BRANCH  17  18
ATOM     18  N   UNL     1      46.424   7.550  13.276  0.00  0.00    +0.000 N 
ATOM     19  C   UNL     1      47.814   7.590  13.490  0.00  0.00    +0.000 A 
ATOM     20  C   UNL     1      48.340   7.357  14.761  0.00  0.00    +0.000 A 
ATOM     21  N   UNL     1      49.666   7.396  15.047  0.00  0.00    +0.000 NA
ATOM     22  C   UNL     1      50.475   7.697  14.007  0.00  0.00    +0.000 A 
ATOM     23  C   UNL     1      49.990   7.946  12.732  0.00  0.00    +0.000 A 
ATOM     24  N   UNL     1      48.647   7.897  12.472  0.00  0.00    +0.000 NA
ATOM     25  H   UNL     1      46.046   6.670  13.615  0.00  0.00    +0.000 HD
BRANCH  23  26
ATOM     26  C   UNL     1      50.951   8.262  11.610  0.00  0.00    +0.000 C 
ATOM     27  F   UNL     1      52.263   8.213  11.989  0.00  0.00    +0.000 F 
ATOM     28  F   UNL     1      50.846   7.394  10.563  0.00  0.00    +0.000 F 
ATOM     29  F   UNL     1      50.772   9.507  11.084  0.00  0.00    +0.000 F 
ENDBRANCH  23  26
ENDBRANCH  17  18
ENDBRANCH   5  17
TORSDOF 5
ENDMDL
MODEL 6
REMARK VINA RESULT:    -6.790      2.500      3.085
REMARK INTER + INTRA:          -9.706
REMARK INTER:                  -9.038
REMARK INTRA:                  -0.668
REMARK UNBOUND:                -0.932
REMARK  Name = 
REMARK  5 active torsions:
REMARK  status: ('A' for Active; 'I' for Inactive)
REMARK    1  A    between atoms: C_2  and  C_5
REMARK    2  A    between atoms: C_7  and  C_8
REMARK    3  A    between atoms: C_12  and  C_13
REMARK    4  A    between atoms: C_13  and  N_14
REMARK    5  A    between atoms: C_19  and  C_20
REMARK                            x       y       z     vdW  Elec       q    Type
REMARK                         _______ _______ _______ _____ _____    ______ ____
ROOT
ATOM      1  C   UNL     1      45.287   5.005  10.950  0.00  0.00    +0.000 A 
ATOM      2  C   UNL     1      44.418   6.110  10.902  0.00  0.00    +0.000 A 
ATOM      3  C   UNL     1      44.466   7.123  11.863  0.00  0.00    +0.000 A 
ATOM      4  C   UNL     1      45.359   7.039  12.927  0.00  0.00    +0.000 A 
ATOM      5  C   UNL     1      46.218   5.941  13.032  0.00  0.00    +0.000 A 
ATOM      6  C   UNL     1      46.201   4.964  12.022  0.00  0.00    +0.000 A 
ENDROOT
BRANCH   1   9
ATOM      7  C   UNL     1      45.925   2.934   7.820  0.00  0.00    +0.000 A 
ATOM      8  C   UNL     1      46.011   3.954   8.774  0.00  0.00    +0.000 A 
ATOM      9  C   UNL     1      45.227   3.918   9.940  0.00  0.00    +0.000 A 
ATOM     10  C   UNL     1      44.393   2.804  10.098  0.00  0.00    +0.000 A 
ATOM     11  C   UNL     1      44.377   1.815   9.127  0.00  0.00    +0.000 A 
ATOM     12  N   UNL     1      45.113   1.857   7.999  0.00  0.00    +0.000 NA
BRANCH   7  14
ATOM     13  F   UNL     1      48.061   2.712   6.711  0.00  0.00    +0.000 F 
ATOM     14  C   UNL     1      46.742   3.031   6.536  0.00  0.00    +0.000 C 
ATOM     15  F   UNL     1      46.746   4.285   6.000  0.00  0.00    +0.000 F 
ATOM     16  F   UNL     1      46.299   2.200   5.551  0.00  0.00    +0.000 F 
ENDBRANCH   7  14
ENDBRANCH   1   9
BRANCH   5  17
ATOM     17  C   UNL     1      47.104   5.768  14.244  0.00  0.00    +0.000 C 
BRANCH  17  18
ATOM     18  N   UNL     1      46.594   4.718  15.116  0.00  0.00    +0.000 N 
ATOM     19  C   UNL     1      47.509   4.358  16.123  0.00  0.00    +0.000 A 
ATOM     20  C   UNL     1      47.192   3.353  17.038  0.00  0.00    +0.000 A 
ATOM     21  N   UNL     1      48.015   2.965  18.045  0.00  0.00    +0.000 NA
ATOM     22  C   UNL     1      49.186   3.633  18.128  0.00  0.00    +0.000 A 
ATOM     23  C   UNL     1      49.531   4.646  17.246  0.00  0.00    +0.000 A 
ATOM     24  N   UNL     1      48.683   5.015  16.236  0.00  0.00    +0.000 NA
ATOM     25  H   UNL     1      46.314   3.894  14.592  0.00  0.00    +0.000 HD
BRANCH  23  26
ATOM     26  C   UNL     1      50.864   5.342  17.385  0.00  0.00    +0.000 C 
ATOM     27  F   UNL     1      51.094   5.829  18.641  0.00  0.00    +0.000 F 
ATOM     28  F   UNL     1      51.921   4.522  17.119  0.00  0.00    +0.000 F 
ATOM     29  F   UNL     1      51.001   6.412  16.551  0.00  0.00    +0.000 F 
ENDBRANCH  23  26
ENDBRANCH  17  18
ENDBRANCH   5  17
TORSDOF 5
ENDMDL
MODEL 7
REMARK VINA RESULT:    -6.769      4.029      5.620
REMARK INTER + INTRA:          -9.679
REMARK INTER:                  -8.931
REMARK INTRA:                  -0.748
REMARK UNBOUND:                -0.932
REMARK  Name = 
REMARK  5 active torsions:
REMARK  status: ('A' for Active; 'I' for Inactive)
REMARK    1  A    between atoms: C_2  and  C_5
REMARK    2  A    between atoms: C_7  and  C_8
REMARK    3  A    between atoms: C_12  and  C_13
REMARK    4  A    between atoms: C_13  and  N_14
REMARK    5  A    between atoms: C_19  and  C_20
REMARK                            x       y       z     vdW  Elec       q    Type
REMARK                         _______ _______ _______ _____ _____    ______ ____
ROOT
ATOM      1  C   UNL     1      45.737   6.667  11.726  0.00  0.00    +0.000 A 
ATOM      2  C   UNL     1      45.124   7.905  11.990  0.00  0.00    +0.000 A 
ATOM      3  C   UNL     1      45.877   9.053  12.254  0.00  0.00    +0.000 A 
ATOM      4  C   UNL     1      47.266   8.987  12.303  0.00  0.00    +0.000 A 
ATOM      5  C   UNL     1      47.914   7.768  12.080  0.00  0.00    +0.000 A 
ATOM      6  C   UNL     1      47.146   6.637  11.752  0.00  0.00    +0.000 A 
ENDROOT
BRANCH   1   9
ATOM      7  C   UNL     1      44.480   3.437  10.149  0.00  0.00    +0.000 A 
ATOM      8  C   UNL     1      45.255   4.575  10.400  0.00  0.00    +0.000 A 
ATOM      9  C   UNL     1      44.941   5.441  11.462  0.00  0.00    +0.000 A 
ATOM     10  C   UNL     1      43.843   5.085  12.255  0.00  0.00    +0.000 A 
ATOM     11  C   UNL     1      43.135   3.928  11.968  0.00  0.00    +0.000 A 
ATOM     12  N   UNL     1      43.422   3.107  10.939  0.00  0.00    +0.000 NA
BRANCH   7  14
ATOM     13  F   UNL     1      44.201   1.325   9.008  0.00  0.00    +0.000 F 
ATOM     14  C   UNL     1      44.809   2.550   8.954  0.00  0.00    +0.000 C 
ATOM     15  F   UNL     1      46.141   2.283   8.837  0.00  0.00    +0.000 F 
ATOM     16  F   UNL     1      44.425   3.089   7.761  0.00  0.00    +0.000 F 
ENDBRANCH   7  14
ENDBRANCH   1   9
BRANCH   5  17
ATOM     17  C   UNL     1      49.410   7.647  12.253  0.00  0.00    +0.000 C 
BRANCH  17  18
ATOM     18  N   UNL     1      50.044   8.959  12.236  0.00  0.00    +0.000 N 
ATOM     19  C   UNL     1      51.167   9.007  11.389  0.00  0.00    +0.000 A 
ATOM     20  C   UNL     1      51.909  10.183  11.266  0.00  0.00    +0.000 A 
ATOM     21  N   UNL     1      52.990  10.310  10.457  0.00  0.00    +0.000 NA
ATOM     22  C   UNL     1      53.313   9.209   9.741  0.00  0.00    +0.000 A 
ATOM     23  C   UNL     1      52.593   8.027   9.827  0.00  0.00    +0.000 A 
ATOM     24  N   UNL     1      51.508   7.926  10.655  0.00  0.00    +0.000 NA
ATOM     25  H   UNL     1      50.302   9.266  13.170  0.00  0.00    +0.000 HD
BRANCH  23  26
ATOM     26  C   UNL     1      53.017   6.828   9.011  0.00  0.00    +0.000 C 
ATOM     27  F   UNL     1      53.132   5.684   9.748  0.00  0.00    +0.000 F 
ATOM     28  F   UNL     1      52.136   6.529   8.014  0.00  0.00    +0.000 F 
ATOM     29  F   UNL     1      54.227   6.993   8.404  0.00  0.00    +0.000 F 
ENDBRANCH  23  26
ENDBRANCH  17  18
ENDBRANCH   5  17
TORSDOF 5
ENDMDL
MODEL 8
REMARK VINA RESULT:    -6.711      2.477      8.209
REMARK INTER + INTRA:          -9.604
REMARK INTER:                  -8.766
REMARK INTRA:                  -0.838
REMARK UNBOUND:                -0.932
REMARK  Name = 
REMARK  5 active torsions:
REMARK  status: ('A' for Active; 'I' for Inactive)
REMARK    1  A    between atoms: C_2  and  C_5
REMARK    2  A    between atoms: C_7  and  C_8
REMARK    3  A    between atoms: C_12  and  C_13
REMARK    4  A    between atoms: C_13  and  N_14
REMARK    5  A    between atoms: C_19  and  C_20
REMARK                            x       y       z     vdW  Elec       q    Type
REMARK                         _______ _______ _______ _____ _____    ______ ____
ROOT
ATOM      1  C   UNL     1      48.485   6.830  14.416  0.00  0.00    +0.000 A 
ATOM      2  C   UNL     1      49.644   7.278  13.757  0.00  0.00    +0.000 A 
ATOM      3  C   UNL     1      49.611   7.707  12.427  0.00  0.00    +0.000 A 
ATOM      4  C   UNL     1      48.424   7.662  11.703  0.00  0.00    +0.000 A 
ATOM      5  C   UNL     1      47.255   7.192  12.309  0.00  0.00    +0.000 A 
ATOM      6  C   UNL     1      47.291   6.825  13.666  0.00  0.00    +0.000 A 
ENDROOT
BRANCH   1   9
ATOM      7  C   UNL     1      49.046   6.703  18.179  0.00  0.00    +0.000 A 
ATOM      8  C   UNL     1      48.999   7.173  16.862  0.00  0.00    +0.000 A 
ATOM      9  C   UNL     1      48.518   6.357  15.823  0.00  0.00    +0.000 A 
ATOM     10  C   UNL     1      48.071   5.080  16.187  0.00  0.00    +0.000 A 
ATOM     11  C   UNL     1      48.120   4.688  17.515  0.00  0.00    +0.000 A 
ATOM     12  N   UNL     1      48.599   5.461  18.510  0.00  0.00    +0.000 NA
BRANCH   7  14
ATOM     13  F   UNL     1      48.898   8.723  19.498  0.00  0.00    +0.000 F 
ATOM     14  C   UNL     1      49.630   7.588  19.274  0.00  0.00    +0.000 C 
ATOM     15  F   UNL     1      50.891   8.027  18.992  0.00  0.00    +0.000 F 
ATOM     16  F   UNL     1      49.708   6.967  20.486  0.00  0.00    +0.000 F 
ENDBRANCH   7  14
ENDBRANCH   1   9
BRANCH   5  17
ATOM     17  C   UNL     1      45.987   7.015  11.507  0.00  0.00    +0.000 C 
BRANCH  17  18
ATOM     18  N   UNL     1      45.035   6.171  12.218  0.00  0.00    +0.000 N 
ATOM     19  C   UNL     1      44.686   5.017  11.492  0.00  0.00    +0.000 A 
ATOM     20  C   UNL     1      43.768   4.105  12.015  0.00  0.00    +0.000 A 
ATOM     21  N   UNL     1      43.397   2.964  11.382  0.00  0.00    +0.000 NA
ATOM     22  C   UNL     1      43.992   2.741  10.190  0.00  0.00    +0.000 A 
ATOM     23  C   UNL     1      44.918   3.617   9.643  0.00  0.00    +0.000 A 
ATOM     24  N   UNL     1      45.271   4.764  10.302  0.00  0.00    +0.000 NA
ATOM     25  H   UNL     1      44.196   6.684  12.478  0.00  0.00    +0.000 HD
BRANCH  23  26
ATOM     26  C   UNL     1      45.535   3.315   8.298  0.00  0.00    +0.000 C 
ATOM     27  F   UNL     1      44.622   3.256   7.283  0.00  0.00    +0.000 F 
ATOM     28  F   UNL     1      46.444   4.255   7.909  0.00  0.00    +0.000 F 
ATOM     29  F   UNL     1      46.193   2.122   8.264  0.00  0.00    +0.000 F 
ENDBRANCH  23  26
ENDBRANCH  17  18
ENDBRANCH   5  17
TORSDOF 5
ENDMDL
MODEL 9
REMARK VINA RESULT:    -6.690      2.772      3.307
REMARK INTER + INTRA:          -9.577
REMARK INTER:                  -8.739
REMARK INTRA:                  -0.839
REMARK UNBOUND:                -0.932
REMARK  Name = 
REMARK  5 active torsions:
REMARK  status: ('A' for Active; 'I' for Inactive)
REMARK    1  A    between atoms: C_2  and  C_5
REMARK    2  A    between atoms: C_7  and  C_8
REMARK    3  A    between atoms: C_12  and  C_13
REMARK    4  A    between atoms: C_13  and  N_14
REMARK    5  A    between atoms: C_19  and  C_20
REMARK                            x       y       z     vdW  Elec       q    Type
REMARK                         _______ _______ _______ _____ _____    ______ ____
ROOT
ATOM      1  C   UNL     1      45.611   6.969  11.697  0.00  0.00    +0.000 A 
ATOM      2  C   UNL     1      44.909   8.187  11.705  0.00  0.00    +0.000 A 
ATOM      3  C   UNL     1      45.447   9.340  12.283  0.00  0.00    +0.000 A 
ATOM      4  C   UNL     1      46.690   9.298  12.908  0.00  0.00    +0.000 A 
ATOM      5  C   UNL     1      47.408   8.099  12.953  0.00  0.00    +0.000 A 
ATOM      6  C   UNL     1      46.881   6.965  12.310  0.00  0.00    +0.000 A 
ENDROOT
BRANCH   1   9
ATOM      7  C   UNL     1      45.020   4.004   9.383  0.00  0.00    +0.000 A 
ATOM      8  C   UNL     1      45.589   5.151   9.948  0.00  0.00    +0.000 A 
ATOM      9  C   UNL     1      45.035   5.737  11.099  0.00  0.00    +0.000 A 
ATOM     10  C   UNL     1      43.918   5.099  11.651  0.00  0.00    +0.000 A 
ATOM     11  C   UNL     1      43.421   3.949  11.056  0.00  0.00    +0.000 A 
ATOM     12  N   UNL     1      43.938   3.396   9.942  0.00  0.00    +0.000 NA
BRANCH   7  14
ATOM     13  F   UNL     1      44.685   3.306   7.093  0.00  0.00    +0.000 F 
ATOM     14  C   UNL     1      45.605   3.426   8.100  0.00  0.00    +0.000 C 
ATOM     15  F   UNL     1      46.120   2.173   8.264  0.00  0.00    +0.000 F 
ATOM     16  F   UNL     1      46.612   4.183   7.578  0.00  0.00    +0.000 F 
ENDBRANCH   7  14
ENDBRANCH   1   9
BRANCH   5  17
ATOM     17  C   UNL     1      48.697   8.000  13.734  0.00  0.00    +0.000 C 
BRANCH  17  18
ATOM     18  N   UNL     1      48.793   6.718  14.420  0.00  0.00    +0.000 N 
ATOM     19  C   UNL     1      48.734   6.848  15.820  0.00  0.00    +0.000 A 
ATOM     20  C   UNL     1      48.831   5.721  16.639  0.00  0.00    +0.000 A 
ATOM     21  N   UNL     1      48.765   5.766  17.993  0.00  0.00    +0.000 NA
ATOM     22  C   UNL     1      48.579   6.995  18.525  0.00  0.00    +0.000 A 
ATOM     23  C   UNL     1      48.467   8.136  17.744  0.00  0.00    +0.000 A 
ATOM     24  N   UNL     1      48.541   8.061  16.380  0.00  0.00    +0.000 NA
ATOM     25  H   UNL     1      49.631   6.208  14.154  0.00  0.00    +0.000 HD
BRANCH  23  26
ATOM     26  C   UNL     1      48.276   9.481  18.404  0.00  0.00    +0.000 C 
ATOM     27  F   UNL     1      47.526  10.349  17.662  0.00  0.00    +0.000 F 
ATOM     28  F   UNL     1      47.641   9.395  19.608  0.00  0.00    +0.000 F 
ATOM     29  F   UNL     1      49.450  10.132  18.646  0.00  0.00    +0.000 F 
ENDBRANCH  23  26
ENDBRANCH  17  18
ENDBRANCH   5  17
TORSDOF 5
ENDMDL
