MODEL 1
REMARK VINA RESULT:    -7.986      0.000      0.000
REMARK INTER + INTRA:          -9.941
REMARK INTER:                  -9.386
REMARK INTRA:                  -0.554
REMARK UNBOUND:                -0.554
REMARK  Name = 
REMARK  3 active torsions:
REMARK  status: ('A' for Active; 'I' for Inactive)
REMARK    1  A    between atoms: C_2  and  C_4
REMARK    2  A    between atoms: N_10  and  C_11
REMARK    3  A    between atoms: C_11  and  C_12
REMARK                            x       y       z     vdW  Elec       q    Type
REMARK                         _______ _______ _______ _____ _____    ______ ____
ROOT
ATOM      1  C   UNL     1      46.783   5.937  12.413  0.00  0.00    +0.000 A 
ATOM      2  C   UNL     1      46.445   5.325  13.613  0.00  0.00    +0.000 A 
ATOM      3  N   UNL     1      45.497   4.373  13.767  0.00  0.00    +0.000 NA
ATOM      4  C   UNL     1      44.854   4.018  12.627  0.00  0.00    +0.000 A 
ATOM      5  C   UNL     1      43.827   3.064  12.461  0.00  0.00    +0.000 A 
ATOM      6  C   UNL     1      43.508   3.031  11.121  0.00  0.00    +0.000 A 
ATOM      7  N   UNL     1      44.310   3.939  10.468  0.00  0.00    +0.000 N 
ATOM      8  C   UNL     1      45.129   4.578  11.377  0.00  0.00    +0.000 A 
ATOM      9  C   UNL     1      46.098   5.581  11.247  0.00  0.00    +0.000 A 
ENDROOT
BRANCH   1  11
ATOM     10  N   UNL     1      49.076   6.644  12.828  0.00  0.00    +0.000 N 
ATOM     11  C   UNL     1      47.841   6.968  12.336  0.00  0.00    +0.000 C 
ATOM     12  O   UNL     1      47.635   8.052  11.808  0.00  0.00    +0.000 OA
ATOM     13  H   UNL     1      49.811   7.322  12.661  0.00  0.00    +0.000 HD
ATOM     14  H   UNL     1      49.361   5.692  13.014  0.00  0.00    +0.000 HD
ENDBRANCH   1  11
BRANCH   7  15
ATOM     15  C   UNL     1      44.342   4.103   9.016  0.00  0.00    +0.000 C 
BRANCH  15  16
ATOM     16  C   UNL     1      45.443   3.295   8.394  0.00  0.00    +0.000 A 
ATOM     17  C   UNL     1      46.415   3.900   7.598  0.00  0.00    +0.000 A 
ATOM     18  N   UNL     1      47.405   3.228   6.966  0.00  0.00    +0.000 NA
ATOM     19  C   UNL     1      47.423   1.884   7.123  0.00  0.00    +0.000 A 
ATOM     20  C   UNL     1      46.513   1.196   7.904  0.00  0.00    +0.000 A 
ATOM     21  F   UNL     1      46.584  -0.134   8.029  0.00  0.00    +0.000 F 
ATOM     22  C   UNL     1      45.515   1.906   8.554  0.00  0.00    +0.000 A 
ENDBRANCH  15  16
ENDBRANCH   7  15
TORSDOF 3
ENDMDL
MODEL 2
REMARK VINA RESULT:    -7.611      2.065      2.500
REMARK INTER + INTRA:          -9.501
REMARK INTER:                  -8.939
REMARK INTRA:                  -0.562
REMARK UNBOUND:                -0.554
REMARK  Name = 
REMARK  3 active torsions:
REMARK  status: ('A' for Active; 'I' for Inactive)
REMARK    1  A    between atoms: C_2  and  C_4
REMARK    2  A    between atoms: N_10  and  C_11
REMARK    3  A    between atoms: C_11  and  C_12
REMARK                            x       y       z     vdW  Elec       q    Type
REMARK                         _______ _______ _______ _____ _____    ______ ____
ROOT
ATOM      1  C   UNL     1      44.839   7.692  11.781  0.00  0.00    +0.000 A 
ATOM      2  C   UNL     1      45.709   7.681  12.863  0.00  0.00    +0.000 A 
ATOM      3  N   UNL     1      46.225   6.574  13.442  0.00  0.00    +0.000 NA
ATOM      4  C   UNL     1      45.835   5.402  12.882  0.00  0.00    +0.000 A 
ATOM      5  C   UNL     1      46.197   4.089  13.254  0.00  0.00    +0.000 A 
ATOM      6  C   UNL     1      45.575   3.227  12.379  0.00  0.00    +0.000 A 
ATOM      7  N   UNL     1      44.843   3.977  11.486  0.00  0.00    +0.000 N 
ATOM      8  C   UNL     1      44.966   5.317  11.791  0.00  0.00    +0.000 A 
ATOM      9  C   UNL     1      44.424   6.478  11.225  0.00  0.00    +0.000 A 
ENDROOT
BRANCH   1  11
ATOM     10  N   UNL     1      43.056   8.950  10.701  0.00  0.00    +0.000 N 
ATOM     11  C   UNL     1      44.327   8.955  11.206  0.00  0.00    +0.000 C 
ATOM     12  O   UNL     1      44.995   9.980  11.228  0.00  0.00    +0.000 OA
ATOM     13  H   UNL     1      42.688   9.851  10.419  0.00  0.00    +0.000 HD
ATOM     14  H   UNL     1      42.385   8.223  10.907  0.00  0.00    +0.000 HD
ENDBRANCH   1  11
BRANCH   7  15
ATOM     15  C   UNL     1      44.139   3.416  10.336  0.00  0.00    +0.000 C 
BRANCH  15  16
ATOM     16  C   UNL     1      45.071   3.166   9.187  0.00  0.00    +0.000 A 
ATOM     17  C   UNL     1      45.458   4.201   8.337  0.00  0.00    +0.000 A 
ATOM     18  N   UNL     1      46.253   4.038   7.255  0.00  0.00    +0.000 NA
ATOM     19  C   UNL     1      46.676   2.779   6.996  0.00  0.00    +0.000 A 
ATOM     20  C   UNL     1      46.359   1.691   7.788  0.00  0.00    +0.000 A 
ATOM     21  F   UNL     1      46.812   0.469   7.487  0.00  0.00    +0.000 F 
ATOM     22  C   UNL     1      45.554   1.883   8.900  0.00  0.00    +0.000 A 
ENDBRANCH  15  16
ENDBRANCH   7  15
TORSDOF 3
ENDMDL
MODEL 3
REMARK VINA RESULT:    -6.972      2.860      5.738
REMARK INTER + INTRA:          -8.749
REMARK INTER:                  -8.198
REMARK INTRA:                  -0.551
REMARK UNBOUND:                -0.554
REMARK  Name = 
REMARK  3 active torsions:
REMARK  status: ('A' for Active; 'I' for Inactive)
REMARK    1  A    between atoms: C_2  and  C_4
REMARK    2  A    between atoms: N_10  and  C_11
REMARK    3  A    between atoms: C_11  and  C_12
REMARK                            x       y       z     vdW  Elec       q    Type
REMARK                         _______ _______ _______ _____ _____    ______ ____
ROOT
ATOM      1  C   UNL     1      45.357   3.521   8.840  0.00  0.00    +0.000 A 
ATOM      2  C   UNL     1      44.578   2.486   9.342  0.00  0.00    +0.000 A 
ATOM      3  N   UNL     1      43.801   2.556  10.445  0.00  0.00    +0.000 NA
ATOM      4  C   UNL     1      43.813   3.756  11.078  0.00  0.00    +0.000 A 
ATOM      5  C   UNL     1      43.114   4.140  12.242  0.00  0.00    +0.000 A 
ATOM      6  C   UNL     1      43.419   5.460  12.489  0.00  0.00    +0.000 A 
ATOM      7  N   UNL     1      44.286   5.890  11.509  0.00  0.00    +0.000 N 
ATOM      8  C   UNL     1      44.563   4.851  10.643  0.00  0.00    +0.000 A 
ATOM      9  C   UNL     1      45.382   4.746   9.511  0.00  0.00    +0.000 A 
ENDROOT
BRANCH   1  11
ATOM     10  N   UNL     1      46.649   2.104   7.339  0.00  0.00    +0.000 N 
ATOM     11  C   UNL     1      46.175   3.357   7.618  0.00  0.00    +0.000 C 
ATOM     12  O   UNL     1      46.378   4.294   6.858  0.00  0.00    +0.000 OA
ATOM     13  H   UNL     1      47.108   1.994   6.442  0.00  0.00    +0.000 HD
ATOM     14  H   UNL     1      46.285   1.269   7.775  0.00  0.00    +0.000 HD
ENDBRANCH   1  11
BRANCH   7  15
ATOM     15  C   UNL     1      44.741   7.271  11.372  0.00  0.00    +0.000 C 
BRANCH  15  16
ATOM     16  C   UNL     1      45.980   7.527  12.178  0.00  0.00    +0.000 A 
ATOM     17  C   UNL     1      46.010   8.525  13.151  0.00  0.00    +0.000 A 
ATOM     18  N   UNL     1      47.106   8.843  13.879  0.00  0.00    +0.000 NA
ATOM     19  C   UNL     1      48.233   8.141  13.618  0.00  0.00    +0.000 A 
ATOM     20  C   UNL     1      48.297   7.123  12.684  0.00  0.00    +0.000 A 
ATOM     21  F   UNL     1      49.439   6.458  12.474  0.00  0.00    +0.000 F 
ATOM     22  C   UNL     1      47.160   6.804  11.960  0.00  0.00    +0.000 A 
ENDBRANCH  15  16
ENDBRANCH   7  15
TORSDOF 3
ENDMDL
MODEL 4
REMARK VINA RESULT:    -6.947      2.570      3.862
REMARK INTER + INTRA:          -8.720
REMARK INTER:                  -8.152
REMARK INTRA:                  -0.567
REMARK UNBOUND:                -0.554
REMARK  Name = 
REMARK  3 active torsions:
REMARK  status: ('A' for Active; 'I' for Inactive)
REMARK    1  A    between atoms: C_2  and  C_4
REMARK    2  A    between atoms: N_10  and  C_11
REMARK    3  A    between atoms: C_11  and  C_12
REMARK                            x       y       z     vdW  Elec       q    Type
REMARK                         _______ _______ _______ _____ _____    ______ ____
ROOT
ATOM      1  C   UNL     1      46.886   5.141  14.205  0.00  0.00    +0.000 A 
ATOM      2  C   UNL     1      47.637   6.304  14.317  0.00  0.00    +0.000 A 
ATOM      3  N   UNL     1      47.401   7.456  13.650  0.00  0.00    +0.000 NA
ATOM      4  C   UNL     1      46.331   7.425  12.818  0.00  0.00    +0.000 A 
ATOM      5  C   UNL     1      45.832   8.456  11.993  0.00  0.00    +0.000 A 
ATOM      6  C   UNL     1      44.715   7.968  11.352  0.00  0.00    +0.000 A 
ATOM      7  N   UNL     1      44.522   6.667  11.761  0.00  0.00    +0.000 N 
ATOM      8  C   UNL     1      45.519   6.302  12.644  0.00  0.00    +0.000 A 
ATOM      9  C   UNL     1      45.799   5.111  13.327  0.00  0.00    +0.000 A 
ENDROOT
BRANCH   1  11
ATOM     10  N   UNL     1      47.042   3.975  16.336  0.00  0.00    +0.000 N 
ATOM     11  C   UNL     1      47.214   3.925  14.980  0.00  0.00    +0.000 C 
ATOM     12  O   UNL     1      47.578   2.896  14.426  0.00  0.00    +0.000 OA
ATOM     13  H   UNL     1      47.163   3.098  16.831  0.00  0.00    +0.000 HD
ATOM     14  H   UNL     1      46.495   4.690  16.795  0.00  0.00    +0.000 HD
ENDBRANCH   1  11
BRANCH   7  15
ATOM     15  C   UNL     1      43.367   5.857  11.383  0.00  0.00    +0.000 C 
BRANCH  15  16
ATOM     16  C   UNL     1      43.771   4.667  10.562  0.00  0.00    +0.000 A 
ATOM     17  C   UNL     1      43.523   3.370  11.008  0.00  0.00    +0.000 A 
ATOM     18  N   UNL     1      43.904   2.254  10.345  0.00  0.00    +0.000 NA
ATOM     19  C   UNL     1      44.575   2.436   9.184  0.00  0.00    +0.000 A 
ATOM     20  C   UNL     1      44.853   3.682   8.653  0.00  0.00    +0.000 A 
ATOM     21  F   UNL     1      45.515   3.801   7.496  0.00  0.00    +0.000 F 
ATOM     22  C   UNL     1      44.443   4.813   9.342  0.00  0.00    +0.000 A 
ENDBRANCH  15  16
ENDBRANCH   7  15
TORSDOF 3
ENDMDL
MODEL 5
REMARK VINA RESULT:    -6.442      3.831      6.805
REMARK INTER + INTRA:          -8.126
REMARK INTER:                  -7.527
REMARK INTRA:                  -0.599
REMARK UNBOUND:                -0.554
REMARK  Name = 
REMARK  3 active torsions:
REMARK  status: ('A' for Active; 'I' for Inactive)
REMARK    1  A    between atoms: C_2  and  C_4
REMARK    2  A    between atoms: N_10  and  C_11
REMARK    3  A    between atoms: C_11  and  C_12
REMARK                            x       y       z     vdW  Elec       q    Type
REMARK                         _______ _______ _______ _____ _____    ______ ____
ROOT
ATOM      1  C   UNL     1      44.165   4.241  11.406  0.00  0.00    +0.000 A 
ATOM      2  C   UNL     1      43.358   5.317  11.061  0.00  0.00    +0.000 A 
ATOM      3  N   UNL     1      43.610   6.611  11.356  0.00  0.00    +0.000 NA
ATOM      4  C   UNL     1      44.760   6.827  12.042  0.00  0.00    +0.000 A 
ATOM      5  C   UNL     1      45.296   8.053  12.491  0.00  0.00    +0.000 A 
ATOM      6  C   UNL     1      46.492   7.777  13.116  0.00  0.00    +0.000 A 
ATOM      7  N   UNL     1      46.698   6.416  13.062  0.00  0.00    +0.000 N 
ATOM      8  C   UNL     1      45.633   5.807  12.428  0.00  0.00    +0.000 A 
ATOM      9  C   UNL     1      45.336   4.470  12.134  0.00  0.00    +0.000 A 
ENDROOT
BRANCH   1  11
ATOM     10  N   UNL     1      44.526   2.268  10.026  0.00  0.00    +0.000 N 
ATOM     11  C   UNL     1      43.812   2.853  11.035  0.00  0.00    +0.000 C 
ATOM     12  O   UNL     1      42.949   2.233  11.642  0.00  0.00    +0.000 OA
ATOM     13  H   UNL     1      44.344   1.283   9.868  0.00  0.00    +0.000 HD
ATOM     14  H   UNL     1      45.408   2.632   9.693  0.00  0.00    +0.000 HD
ENDBRANCH   1  11
BRANCH   7  15
ATOM     15  C   UNL     1      47.919   5.758  13.519  0.00  0.00    +0.000 C 
BRANCH  15  16
ATOM     16  C   UNL     1      47.883   5.490  14.995  0.00  0.00    +0.000 A 
ATOM     17  C   UNL     1      48.551   6.322  15.892  0.00  0.00    +0.000 A 
ATOM     18  N   UNL     1      48.602   6.112  17.228  0.00  0.00    +0.000 NA
ATOM     19  C   UNL     1      47.967   5.012  17.695  0.00  0.00    +0.000 A 
ATOM     20  C   UNL     1      47.265   4.138  16.886  0.00  0.00    +0.000 A 
ATOM     21  F   UNL     1      46.650   3.069  17.406  0.00  0.00    +0.000 F 
ATOM     22  C   UNL     1      47.214   4.378  15.522  0.00  0.00    +0.000 A 
ENDBRANCH  15  16
ENDBRANCH   7  15
TORSDOF 3
ENDMDL
MODEL 6
REMARK VINA RESULT:    -6.058      3.455      6.143
REMARK INTER + INTRA:          -7.675
REMARK INTER:                  -7.317
REMARK INTRA:                  -0.358
REMARK UNBOUND:                -0.554
REMARK  Name = 
REMARK  3 active torsions:
REMARK  status: ('A' for Active; 'I' for Inactive)
REMARK    1  A    between atoms: C_2  and  C_4
REMARK    2  A    between atoms: N_10  and  C_11
REMARK    3  A    between atoms: C_11  and  C_12
REMARK                            x       y       z     vdW  Elec       q    Type
REMARK                         _______ _______ _______ _____ _____    ______ ____
ROOT
ATOM      1  C   UNL     1      46.630   2.420   7.426  0.00  0.00    +0.000 A 
ATOM      2  C   UNL     1      46.097   1.226   7.896  0.00  0.00    +0.000 A 
ATOM      3  N   UNL     1      45.232   1.107   8.927  0.00  0.00    +0.000 NA
ATOM      4  C   UNL     1      44.883   2.276   9.518  0.00  0.00    +0.000 A 
ATOM      5  C   UNL     1      44.009   2.482  10.607  0.00  0.00    +0.000 A 
ATOM      6  C   UNL     1      43.945   3.839  10.835  0.00  0.00    +0.000 A 
ATOM      7  N   UNL     1      44.758   4.465   9.917  0.00  0.00    +0.000 N 
ATOM      8  C   UNL     1      45.366   3.523   9.112  0.00  0.00    +0.000 A 
ATOM      9  C   UNL     1      46.282   3.618   8.056  0.00  0.00    +0.000 A 
ENDROOT
BRANCH   1  11
ATOM     10  N   UNL     1      47.300   3.340   5.274  0.00  0.00    +0.000 N 
ATOM     11  C   UNL     1      47.568   2.457   6.283  0.00  0.00    +0.000 C 
ATOM     12  O   UNL     1      48.575   1.761   6.264  0.00  0.00    +0.000 OA
ATOM     13  H   UNL     1      48.014   3.429   4.561  0.00  0.00    +0.000 HD
ATOM     14  H   UNL     1      46.652   4.110   5.374  0.00  0.00    +0.000 HD
ENDBRANCH   1  11
BRANCH   7  15
ATOM     15  C   UNL     1      44.857   5.915   9.772  0.00  0.00    +0.000 C 
BRANCH  15  16
ATOM     16  C   UNL     1      45.456   6.552  10.991  0.00  0.00    +0.000 A 
ATOM     17  C   UNL     1      46.498   5.937  11.685  0.00  0.00    +0.000 A 
ATOM     18  N   UNL     1      47.051   6.429  12.818  0.00  0.00    +0.000 NA
ATOM     19  C   UNL     1      46.534   7.586  13.293  0.00  0.00    +0.000 A 
ATOM     20  C   UNL     1      45.513   8.277  12.667  0.00  0.00    +0.000 A 
ATOM     21  F   UNL     1      45.047   9.422  13.180  0.00  0.00    +0.000 F 
ATOM     22  C   UNL     1      44.970   7.763  11.500  0.00  0.00    +0.000 A 
ENDBRANCH  15  16
ENDBRANCH   7  15
TORSDOF 3
ENDMDL
MODEL 7
REMARK VINA RESULT:    -5.504      4.104      6.507
REMARK INTER + INTRA:          -7.023
REMARK INTER:                  -6.387
REMARK INTRA:                  -0.637
REMARK UNBOUND:                -0.554
REMARK  Name = 
REMARK  3 active torsions:
REMARK  status: ('A' for Active; 'I' for Inactive)
REMARK    1  A    between atoms: C_2  and  C_4
REMARK    2  A    between atoms: N_10  and  C_11
REMARK    3  A    between atoms: C_11  and  C_12
REMARK                            x       y       z     vdW  Elec       q    Type
REMARK                         _______ _______ _______ _____ _____    ______ ____
ROOT
ATOM      1  C   UNL     1      45.933   4.999  12.796  0.00  0.00    +0.000 A 
ATOM      2  C   UNL     1      44.844   5.364  12.015  0.00  0.00    +0.000 A 
ATOM      3  N   UNL     1      44.527   6.628  11.655  0.00  0.00    +0.000 NA
ATOM      4  C   UNL     1      45.374   7.582  12.116  0.00  0.00    +0.000 A 
ATOM      5  C   UNL     1      45.315   8.978  11.914  0.00  0.00    +0.000 A 
ATOM      6  C   UNL     1      46.402   9.533  12.551  0.00  0.00    +0.000 A 
ATOM      7  N   UNL     1      47.121   8.515  13.137  0.00  0.00    +0.000 N 
ATOM      8  C   UNL     1      46.494   7.307  12.905  0.00  0.00    +0.000 A 
ATOM      9  C   UNL     1      46.786   5.992  13.286  0.00  0.00    +0.000 A 
ENDROOT
BRANCH   1  11
ATOM     10  N   UNL     1      45.388   2.635  12.594  0.00  0.00    +0.000 N 
ATOM     11  C   UNL     1      46.207   3.586  13.137  0.00  0.00    +0.000 C 
ATOM     12  O   UNL     1      47.161   3.274  13.836  0.00  0.00    +0.000 OA
ATOM     13  H   UNL     1      45.663   1.672  12.748  0.00  0.00    +0.000 HD
ATOM     14  H   UNL     1      44.776   2.818  11.810  0.00  0.00    +0.000 HD
ENDBRANCH   1  11
BRANCH   7  15
ATOM     15  C   UNL     1      48.406   8.704  13.805  0.00  0.00    +0.000 C 
BRANCH  15  16
ATOM     16  C   UNL     1      49.522   8.875  12.817  0.00  0.00    +0.000 A 
ATOM     17  C   UNL     1      50.093  10.126  12.588  0.00  0.00    +0.000 A 
ATOM     18  N   UNL     1      51.066  10.361  11.677  0.00  0.00    +0.000 NA
ATOM     19  C   UNL     1      51.485   9.301  10.949  0.00  0.00    +0.000 A 
ATOM     20  C   UNL     1      50.992   8.020  11.115  0.00  0.00    +0.000 A 
ATOM     21  F   UNL     1      51.451   7.008  10.369  0.00  0.00    +0.000 F 
ATOM     22  C   UNL     1      50.005   7.798  12.062  0.00  0.00    +0.000 A 
ENDBRANCH  15  16
ENDBRANCH   7  15
TORSDOF 3
ENDMDL
MODEL 8
REMARK VINA RESULT:    -5.410      4.468      6.714
REMARK INTER + INTRA:          -6.913
REMARK INTER:                  -6.352
REMARK INTRA:                  -0.561
REMARK UNBOUND:                -0.554
REMARK  Name = 
REMARK  3 active torsions:
REMARK  status: ('A' for Active; 'I' for Inactive)
REMARK    1  A    between atoms: C_2  and  C_4
REMARK    2  A    between atoms: N_10  and  C_11
REMARK    3  A    between atoms: C_11  and  C_12
REMARK                            x       y       z     vdW  Elec       q    Type
REMARK                         _______ _______ _______ _____ _____    ______ ____
ROOT
ATOM      1  C   UNL     1      48.068   4.860  17.600  0.00  0.00    +0.000 A 
ATOM      2  C   UNL     1      48.299   5.884  18.509  0.00  0.00    +0.000 A 
ATOM      3  N   UNL     1      48.679   7.142  18.192  0.00  0.00    +0.000 NA
ATOM      4  C   UNL     1      48.831   7.375  16.864  0.00  0.00    +0.000 A 
ATOM      5  C   UNL     1      49.214   8.572  16.222  0.00  0.00    +0.000 A 
ATOM      6  C   UNL     1      49.204   8.334  14.866  0.00  0.00    +0.000 A 
ATOM      7  N   UNL     1      48.828   7.025  14.664  0.00  0.00    +0.000 N 
ATOM      8  C   UNL     1      48.618   6.406  15.880  0.00  0.00    +0.000 A 
ATOM      9  C   UNL     1      48.250   5.103  16.236  0.00  0.00    +0.000 A 
ENDROOT
BRANCH   1  11
ATOM     10  N   UNL     1      48.273   2.979  19.133  0.00  0.00    +0.000 N 
ATOM     11  C   UNL     1      47.648   3.511  18.039  0.00  0.00    +0.000 C 
ATOM     12  O   UNL     1      46.741   2.914  17.476  0.00  0.00    +0.000 OA
ATOM     13  H   UNL     1      47.891   2.107  19.481  0.00  0.00    +0.000 HD
ATOM     14  H   UNL     1      48.817   3.534  19.779  0.00  0.00    +0.000 HD
ENDBRANCH   1  11
BRANCH   7  15
ATOM     15  C   UNL     1      48.593   6.439  13.347  0.00  0.00    +0.000 C 
BRANCH  15  16
ATOM     16  C   UNL     1      47.127   6.276  13.069  0.00  0.00    +0.000 A 
ATOM     17  C   UNL     1      46.323   7.380  12.788  0.00  0.00    +0.000 A 
ATOM     18  N   UNL     1      44.988   7.313  12.579  0.00  0.00    +0.000 NA
ATOM     19  C   UNL     1      44.420   6.087  12.663  0.00  0.00    +0.000 A 
ATOM     20  C   UNL     1      45.137   4.933  12.920  0.00  0.00    +0.000 A 
ATOM     21  F   UNL     1      44.522   3.746  12.985  0.00  0.00    +0.000 F 
ATOM     22  C   UNL     1      46.505   5.022  13.119  0.00  0.00    +0.000 A 
ENDBRANCH  15  16
ENDBRANCH   7  15
TORSDOF 3
ENDMDL
MODEL 9
REMARK VINA RESULT:    -5.352      4.787      7.748
REMARK INTER + INTRA:          -6.845
REMARK INTER:                  -6.249
REMARK INTRA:                  -0.595
REMARK UNBOUND:                -0.554
REMARK  Name = 
REMARK  3 active torsions:
REMARK  status: ('A' for Active; 'I' for Inactive)
REMARK    1  A    between atoms: C_2  and  C_4
REMARK    2  A    between atoms: N_10  and  C_11
REMARK    3  A    between atoms: C_11  and  C_12
REMARK                            x       y       z     vdW  Elec       q    Type
REMARK                         _______ _______ _______ _____ _____    ______ ____
ROOT
ATOM      1  C   UNL     1      45.943   5.032  12.822  0.00  0.00    +0.000 A 
ATOM      2  C   UNL     1      44.781   5.488  12.214  0.00  0.00    +0.000 A 
ATOM      3  N   UNL     1      44.496   6.780  11.939  0.00  0.00    +0.000 NA
ATOM      4  C   UNL     1      45.456   7.667  12.302  0.00  0.00    +0.000 A 
ATOM      5  C   UNL     1      45.457   9.070  12.151  0.00  0.00    +0.000 A 
ATOM      6  C   UNL     1      46.655   9.538  12.642  0.00  0.00    +0.000 A 
ATOM      7  N   UNL     1      47.384   8.459  13.091  0.00  0.00    +0.000 N 
ATOM      8  C   UNL     1      46.656   7.299  12.916  0.00  0.00    +0.000 A 
ATOM      9  C   UNL     1      46.917   5.955  13.214  0.00  0.00    +0.000 A 
ENDROOT
BRANCH   1  11
ATOM     10  N   UNL     1      45.345   2.700  12.461  0.00  0.00    +0.000 N 
ATOM     11  C   UNL     1      46.174   3.594  13.080  0.00  0.00    +0.000 C 
ATOM     12  O   UNL     1      47.103   3.215  13.781  0.00  0.00    +0.000 OA
ATOM     13  H   UNL     1      45.592   1.723  12.561  0.00  0.00    +0.000 HD
ATOM     14  H   UNL     1      44.757   2.948  11.677  0.00  0.00    +0.000 HD
ENDBRANCH   1  11
BRANCH   7  15
ATOM     15  C   UNL     1      48.759   8.549  13.574  0.00  0.00    +0.000 C 
BRANCH  15  16
ATOM     16  C   UNL     1      48.844   8.290  15.050  0.00  0.00    +0.000 A 
ATOM     17  C   UNL     1      49.546   7.193  15.548  0.00  0.00    +0.000 A 
ATOM     18  N   UNL     1      49.621   6.871  16.860  0.00  0.00    +0.000 NA
ATOM     19  C   UNL     1      48.955   7.675  17.721  0.00  0.00    +0.000 A 
ATOM     20  C   UNL     1      48.246   8.793  17.325  0.00  0.00    +0.000 A 
ATOM     21  F   UNL     1      47.612   9.555  18.224  0.00  0.00    +0.000 F 
ATOM     22  C   UNL     1      48.192   9.112  15.978  0.00  0.00    +0.000 A 
ENDBRANCH  15  16
ENDBRANCH   7  15
TORSDOF 3
ENDMDL
