MODEL 1
REMARK VINA RESULT:    -7.741      0.000      0.000
REMARK INTER + INTRA:         -10.164
REMARK INTER:                  -9.777
REMARK INTRA:                  -0.387
REMARK UNBOUND:                -0.387
REMARK  Name = 
REMARK  5 active torsions:
REMARK  status: ('A' for Active; 'I' for Inactive)
REMARK    1  A    between atoms: N_1  and  C_2
REMARK    2  A    between atoms: C_2  and  C_3
REMARK    3  A    between atoms: C_3  and  C_4
REMARK    4  A    between atoms: N_10  and  C_11
REMARK    5  A    between atoms: C_11  and  C_12
REMARK                            x       y       z     vdW  Elec       q    Type
REMARK                         _______ _______ _______ _____ _____    ______ ____
ROOT
ATOM      1  C   UNL     1      46.550   5.983  12.443  0.00  0.00    +0.000 A 
ATOM      2  C   UNL     1      46.222   5.275  13.594  0.00  0.00    +0.000 A 
ATOM      3  N   UNL     1      45.313   4.276  13.682  0.00  0.00    +0.000 NA
ATOM      4  C   UNL     1      44.718   3.960  12.508  0.00  0.00    +0.000 A 
ATOM      5  C   UNL     1      43.768   2.970  12.199  0.00  0.00    +0.000 A 
ATOM      6  N   UNL     1      43.453   2.947  10.898  0.00  0.00    +0.000 NA
ATOM      7  N   UNL     1      44.216   3.938  10.370  0.00  0.00    +0.000 N 
ATOM      8  C   UNL     1      44.983   4.598  11.300  0.00  0.00    +0.000 A 
ATOM      9  C   UNL     1      45.887   5.668  11.244  0.00  0.00    +0.000 A 
ENDROOT
BRANCH   1  10
ATOM     10  C   UNL     1      47.610   7.063  12.475  0.00  0.00    +0.000 C 
BRANCH  10  11
ATOM     11  C   UNL     1      47.009   8.467  12.595  0.00  0.00    +0.000 C 
BRANCH  11  12
ATOM     12  N   UNL     1      46.739   8.806  13.993  0.00  0.00    +0.000 NA
ATOM     13  H   UNL     1      47.191   8.119  14.598  0.00  0.00    +0.000 HD
ATOM     14  H   UNL     1      45.740   8.725  14.181  0.00  0.00    +0.000 HD
ENDBRANCH  11  12
ENDBRANCH  10  11
ENDBRANCH   1  10
BRANCH   7  15
ATOM     15  C   UNL     1      44.241   4.103   8.921  0.00  0.00    +0.000 C 
BRANCH  15  16
ATOM     16  C   UNL     1      45.391   3.352   8.307  0.00  0.00    +0.000 A 
ATOM     17  C   UNL     1      45.580   1.993   8.566  0.00  0.00    +0.000 A 
ATOM     18  C   UNL     1      46.577   1.306   7.880  0.00  0.00    +0.000 A 
ATOM     19  C   UNL     1      47.385   1.997   6.986  0.00  0.00    +0.000 A 
ATOM     20  C   UNL     1      47.181   3.357   6.839  0.00  0.00    +0.000 A 
ATOM     21  N   UNL     1      46.206   4.046   7.471  0.00  0.00    +0.000 NA
ENDBRANCH  15  16
ENDBRANCH   7  15
TORSDOF 5
ENDMDL
MODEL 2
REMARK VINA RESULT:    -6.991      1.503      5.793
REMARK INTER + INTRA:          -9.216
REMARK INTER:                  -8.890
REMARK INTRA:                  -0.326
REMARK UNBOUND:                -0.387
REMARK  Name = 
REMARK  5 active torsions:
REMARK  status: ('A' for Active; 'I' for Inactive)
REMARK    1  A    between atoms: N_1  and  C_2
REMARK    2  A    between atoms: C_2  and  C_3
REMARK    3  A    between atoms: C_3  and  C_4
REMARK    4  A    between atoms: N_10  and  C_11
REMARK    5  A    between atoms: C_11  and  C_12
REMARK                            x       y       z     vdW  Elec       q    Type
REMARK                         _______ _______ _______ _____ _____    ______ ____
ROOT
ATOM      1  C   UNL     1      45.710   3.471   8.158  0.00  0.00    +0.000 A 
ATOM      2  C   UNL     1      45.195   2.211   8.441  0.00  0.00    +0.000 A 
ATOM      3  N   UNL     1      44.433   1.885   9.510  0.00  0.00    +0.000 NA
ATOM      4  C   UNL     1      44.153   2.923  10.333  0.00  0.00    +0.000 A 
ATOM      5  C   UNL     1      43.373   2.983  11.501  0.00  0.00    +0.000 A 
ATOM      6  N   UNL     1      43.306   4.218  12.012  0.00  0.00    +0.000 NA
ATOM      7  N   UNL     1      44.055   4.957  11.154  0.00  0.00    +0.000 N 
ATOM      8  C   UNL     1      44.609   4.223  10.134  0.00  0.00    +0.000 A 
ATOM      9  C   UNL     1      45.445   4.525   9.049  0.00  0.00    +0.000 A 
ENDROOT
BRANCH   1  10
ATOM     10  C   UNL     1      46.529   3.709   6.907  0.00  0.00    +0.000 C 
BRANCH  10  11
ATOM     11  C   UNL     1      47.176   2.425   6.380  0.00  0.00    +0.000 C 
BRANCH  11  12
ATOM     12  N   UNL     1      48.632   2.558   6.314  0.00  0.00    +0.000 NA
ATOM     13  H   UNL     1      48.910   2.730   5.347  0.00  0.00    +0.000 HD
ATOM     14  H   UNL     1      49.071   1.675   6.575  0.00  0.00    +0.000 HD
ENDBRANCH  11  12
ENDBRANCH  10  11
ENDBRANCH   1  10
BRANCH   7  15
ATOM     15  C   UNL     1      44.082   6.406  11.321  0.00  0.00    +0.000 C 
BRANCH  15  16
ATOM     16  C   UNL     1      45.255   6.837  12.158  0.00  0.00    +0.000 A 
ATOM     17  C   UNL     1      46.297   5.952  12.443  0.00  0.00    +0.000 A 
ATOM     18  C   UNL     1      47.422   6.424  13.111  0.00  0.00    +0.000 A 
ATOM     19  C   UNL     1      47.465   7.753  13.514  0.00  0.00    +0.000 A 
ATOM     20  C   UNL     1      46.361   8.548  13.258  0.00  0.00    +0.000 A 
ATOM     21  N   UNL     1      45.266   8.125  12.589  0.00  0.00    +0.000 NA
ENDBRANCH  15  16
ENDBRANCH   7  15
TORSDOF 5
ENDMDL
MODEL 3
REMARK VINA RESULT:    -6.682      1.720      2.040
REMARK INTER + INTRA:          -8.827
REMARK INTER:                  -8.442
REMARK INTRA:                  -0.385
REMARK UNBOUND:                -0.387
REMARK  Name = 
REMARK  5 active torsions:
REMARK  status: ('A' for Active; 'I' for Inactive)
REMARK    1  A    between atoms: N_1  and  C_2
REMARK    2  A    between atoms: C_2  and  C_3
REMARK    3  A    between atoms: C_3  and  C_4
REMARK    4  A    between atoms: N_10  and  C_11
REMARK    5  A    between atoms: C_11  and  C_12
REMARK                            x       y       z     vdW  Elec       q    Type
REMARK                         _______ _______ _______ _____ _____    ______ ____
ROOT
ATOM      1  C   UNL     1      45.716   7.903  12.046  0.00  0.00    +0.000 A 
ATOM      2  C   UNL     1      46.459   7.554  13.169  0.00  0.00    +0.000 A 
ATOM      3  N   UNL     1      46.632   6.301  13.650  0.00  0.00    +0.000 NA
ATOM      4  C   UNL     1      46.028   5.335  12.919  0.00  0.00    +0.000 A 
ATOM      5  C   UNL     1      46.015   3.938  13.078  0.00  0.00    +0.000 A 
ATOM      6  N   UNL     1      45.329   3.316  12.111  0.00  0.00    +0.000 NA
ATOM      7  N   UNL     1      44.899   4.335  11.323  0.00  0.00    +0.000 N 
ATOM      8  C   UNL     1      45.274   5.577  11.774  0.00  0.00    +0.000 A 
ATOM      9  C   UNL     1      45.061   6.888  11.327  0.00  0.00    +0.000 A 
ENDROOT
BRANCH   1  10
ATOM     10  C   UNL     1      45.626   9.346  11.597  0.00  0.00    +0.000 C 
BRANCH  10  11
ATOM     11  C   UNL     1      44.225   9.716  11.102  0.00  0.00    +0.000 C 
BRANCH  11  12
ATOM     12  N   UNL     1      43.469  10.420  12.140  0.00  0.00    +0.000 NA
ATOM     13  H   UNL     1      42.492  10.491  11.853  0.00  0.00    +0.000 HD
ATOM     14  H   UNL     1      43.805  11.380  12.219  0.00  0.00    +0.000 HD
ENDBRANCH  11  12
ENDBRANCH  10  11
ENDBRANCH   1  10
BRANCH   7  15
ATOM     15  C   UNL     1      44.232   4.011  10.066  0.00  0.00    +0.000 C 
BRANCH  15  16
ATOM     16  C   UNL     1      45.199   3.437   9.067  0.00  0.00    +0.000 A 
ATOM     17  C   UNL     1      45.406   2.059   8.979  0.00  0.00    +0.000 A 
ATOM     18  C   UNL     1      46.209   1.559   7.960  0.00  0.00    +0.000 A 
ATOM     19  C   UNL     1      46.818   2.445   7.080  0.00  0.00    +0.000 A 
ATOM     20  C   UNL     1      46.622   3.800   7.278  0.00  0.00    +0.000 A 
ATOM     21  N   UNL     1      45.827   4.314   8.242  0.00  0.00    +0.000 NA
ENDBRANCH  15  16
ENDBRANCH   7  15
TORSDOF 5
ENDMDL
MODEL 4
REMARK VINA RESULT:    -6.624      2.006      2.612
REMARK INTER + INTRA:          -8.753
REMARK INTER:                  -8.263
REMARK INTRA:                  -0.490
REMARK UNBOUND:                -0.387
REMARK  Name = 
REMARK  5 active torsions:
REMARK  status: ('A' for Active; 'I' for Inactive)
REMARK    1  A    between atoms: N_1  and  C_2
REMARK    2  A    between atoms: C_2  and  C_3
REMARK    3  A    between atoms: C_3  and  C_4
REMARK    4  A    between atoms: N_10  and  C_11
REMARK    5  A    between atoms: C_11  and  C_12
REMARK                            x       y       z     vdW  Elec       q    Type
REMARK                         _______ _______ _______ _____ _____    ______ ____
ROOT
ATOM      1  C   UNL     1      48.253   7.305  12.159  0.00  0.00    +0.000 A 
ATOM      2  C   UNL     1      48.646   6.754  13.374  0.00  0.00    +0.000 A 
ATOM      3  N   UNL     1      47.978   5.805  14.070  0.00  0.00    +0.000 NA
ATOM      4  C   UNL     1      46.846   5.368  13.471  0.00  0.00    +0.000 A 
ATOM      5  C   UNL     1      45.924   4.381  13.862  0.00  0.00    +0.000 A 
ATOM      6  N   UNL     1      44.943   4.209  12.967  0.00  0.00    +0.000 NA
ATOM      7  N   UNL     1      45.246   5.102  11.990  0.00  0.00    +0.000 N 
ATOM      8  C   UNL     1      46.372   5.844  12.252  0.00  0.00    +0.000 A 
ATOM      9  C   UNL     1      47.051   6.868  11.577  0.00  0.00    +0.000 A 
ENDROOT
BRANCH   1  10
ATOM     10  C   UNL     1      49.110   8.344  11.468  0.00  0.00    +0.000 C 
BRANCH  10  11
ATOM     11  C   UNL     1      50.586   8.240  11.862  0.00  0.00    +0.000 C 
BRANCH  11  12
ATOM     12  N   UNL     1      51.300   7.313  10.983  0.00  0.00    +0.000 NA
ATOM     13  H   UNL     1      52.133   6.969  11.463  0.00  0.00    +0.000 HD
ATOM     14  H   UNL     1      51.640   7.811  10.160  0.00  0.00    +0.000 HD
ENDBRANCH  11  12
ENDBRANCH  10  11
ENDBRANCH   1  10
BRANCH   7  15
ATOM     15  C   UNL     1      44.458   5.087  10.762  0.00  0.00    +0.000 C 
BRANCH  15  16
ATOM     16  C   UNL     1      45.077   4.186   9.728  0.00  0.00    +0.000 A 
ATOM     17  C   UNL     1      44.954   2.798   9.821  0.00  0.00    +0.000 A 
ATOM     18  C   UNL     1      45.429   2.007   8.780  0.00  0.00    +0.000 A 
ATOM     19  C   UNL     1      46.050   2.613   7.695  0.00  0.00    +0.000 A 
ATOM     20  C   UNL     1      46.197   3.989   7.712  0.00  0.00    +0.000 A 
ATOM     21  N   UNL     1      45.724   4.786   8.695  0.00  0.00    +0.000 NA
ENDBRANCH  15  16
ENDBRANCH   7  15
TORSDOF 5
ENDMDL
MODEL 5
REMARK VINA RESULT:    -6.570      2.010      3.700
REMARK INTER + INTRA:          -8.685
REMARK INTER:                  -8.238
REMARK INTRA:                  -0.447
REMARK UNBOUND:                -0.387
REMARK  Name = 
REMARK  5 active torsions:
REMARK  status: ('A' for Active; 'I' for Inactive)
REMARK    1  A    between atoms: N_1  and  C_2
REMARK    2  A    between atoms: C_2  and  C_3
REMARK    3  A    between atoms: C_3  and  C_4
REMARK    4  A    between atoms: N_10  and  C_11
REMARK    5  A    between atoms: C_11  and  C_12
REMARK                            x       y       z     vdW  Elec       q    Type
REMARK                         _______ _______ _______ _____ _____    ______ ____
ROOT
ATOM      1  C   UNL     1      47.040   4.705  14.324  0.00  0.00    +0.000 A 
ATOM      2  C   UNL     1      47.624   5.951  14.522  0.00  0.00    +0.000 A 
ATOM      3  N   UNL     1      47.350   7.078  13.824  0.00  0.00    +0.000 NA
ATOM      4  C   UNL     1      46.393   6.929  12.878  0.00  0.00    +0.000 A 
ATOM      5  C   UNL     1      45.821   7.863  11.997  0.00  0.00    +0.000 A 
ATOM      6  N   UNL     1      44.862   7.329  11.231  0.00  0.00    +0.000 NA
ATOM      7  N   UNL     1      44.822   6.033  11.633  0.00  0.00    +0.000 N 
ATOM      8  C   UNL     1      45.739   5.730  12.610  0.00  0.00    +0.000 A 
ATOM      9  C   UNL     1      46.080   4.562  13.306  0.00  0.00    +0.000 A 
ENDROOT
BRANCH   1  10
ATOM     10  C   UNL     1      47.418   3.527  15.196  0.00  0.00    +0.000 C 
BRANCH  10  11
ATOM     11  C   UNL     1      47.508   3.902  16.678  0.00  0.00    +0.000 C 
BRANCH  11  12
ATOM     12  N   UNL     1      46.597   3.088  17.483  0.00  0.00    +0.000 NA
ATOM     13  H   UNL     1      46.766   2.101  17.287  0.00  0.00    +0.000 HD
ATOM     14  H   UNL     1      45.634   3.266  17.199  0.00  0.00    +0.000 HD
ENDBRANCH  11  12
ENDBRANCH  10  11
ENDBRANCH   1  10
BRANCH   7  15
ATOM     15  C   UNL     1      43.769   5.171  11.106  0.00  0.00    +0.000 C 
BRANCH  15  16
ATOM     16  C   UNL     1      44.306   4.224  10.069  0.00  0.00    +0.000 A 
ATOM     17  C   UNL     1      45.140   4.679   9.045  0.00  0.00    +0.000 A 
ATOM     18  C   UNL     1      45.719   3.753   8.183  0.00  0.00    +0.000 A 
ATOM     19  C   UNL     1      45.421   2.405   8.335  0.00  0.00    +0.000 A 
ATOM     20  C   UNL     1      44.528   2.042   9.328  0.00  0.00    +0.000 A 
ATOM     21  N   UNL     1      43.971   2.914  10.197  0.00  0.00    +0.000 NA
ENDBRANCH  15  16
ENDBRANCH   7  15
TORSDOF 5
ENDMDL
MODEL 6
REMARK VINA RESULT:    -6.556      1.761      2.343
REMARK INTER + INTRA:          -8.667
REMARK INTER:                  -8.298
REMARK INTRA:                  -0.369
REMARK UNBOUND:                -0.387
REMARK  Name = 
REMARK  5 active torsions:
REMARK  status: ('A' for Active; 'I' for Inactive)
REMARK    1  A    between atoms: N_1  and  C_2
REMARK    2  A    between atoms: C_2  and  C_3
REMARK    3  A    between atoms: C_3  and  C_4
REMARK    4  A    between atoms: N_10  and  C_11
REMARK    5  A    between atoms: C_11  and  C_12
REMARK                            x       y       z     vdW  Elec       q    Type
REMARK                         _______ _______ _______ _____ _____    ______ ____
ROOT
ATOM      1  C   UNL     1      46.937   6.398  12.614  0.00  0.00    +0.000 A 
ATOM      2  C   UNL     1      46.149   7.527  12.810  0.00  0.00    +0.000 A 
ATOM      3  N   UNL     1      44.868   7.684  12.400  0.00  0.00    +0.000 NA
ATOM      4  C   UNL     1      44.348   6.604  11.771  0.00  0.00    +0.000 A 
ATOM      5  C   UNL     1      43.063   6.378  11.248  0.00  0.00    +0.000 A 
ATOM      6  N   UNL     1      42.925   5.150  10.733  0.00  0.00    +0.000 NA
ATOM      7  N   UNL     1      44.143   4.584  10.932  0.00  0.00    +0.000 N 
ATOM      8  C   UNL     1      45.048   5.424  11.535  0.00  0.00    +0.000 A 
ATOM      9  C   UNL     1      46.391   5.305  11.919  0.00  0.00    +0.000 A 
ENDROOT
BRANCH   1  10
ATOM     10  C   UNL     1      48.352   6.341  13.150  0.00  0.00    +0.000 C 
BRANCH  10  11
ATOM     11  C   UNL     1      48.415   6.598  14.658  0.00  0.00    +0.000 C 
BRANCH  11  12
ATOM     12  N   UNL     1      47.883   5.460  15.408  0.00  0.00    +0.000 NA
ATOM     13  H   UNL     1      48.440   4.630  15.199  0.00  0.00    +0.000 HD
ATOM     14  H   UNL     1      46.938   5.247  15.087  0.00  0.00    +0.000 HD
ENDBRANCH  11  12
ENDBRANCH  10  11
ENDBRANCH   1  10
BRANCH   7  15
ATOM     15  C   UNL     1      44.315   3.169  10.622  0.00  0.00    +0.000 C 
BRANCH  15  16
ATOM     16  C   UNL     1      45.089   2.980   9.346  0.00  0.00    +0.000 A 
ATOM     17  C   UNL     1      45.344   4.057   8.496  0.00  0.00    +0.000 A 
ATOM     18  C   UNL     1      46.170   3.867   7.393  0.00  0.00    +0.000 A 
ATOM     19  C   UNL     1      46.687   2.602   7.142  0.00  0.00    +0.000 A 
ATOM     20  C   UNL     1      46.329   1.570   7.991  0.00  0.00    +0.000 A 
ATOM     21  N   UNL     1      45.550   1.729   9.084  0.00  0.00    +0.000 NA
ENDBRANCH  15  16
ENDBRANCH   7  15
TORSDOF 5
ENDMDL
MODEL 7
REMARK VINA RESULT:    -5.891      3.318      7.394
REMARK INTER + INTRA:          -7.828
REMARK INTER:                  -7.683
REMARK INTRA:                  -0.144
REMARK UNBOUND:                -0.387
REMARK  Name = 
REMARK  5 active torsions:
REMARK  status: ('A' for Active; 'I' for Inactive)
REMARK    1  A    between atoms: N_1  and  C_2
REMARK    2  A    between atoms: C_2  and  C_3
REMARK    3  A    between atoms: C_3  and  C_4
REMARK    4  A    between atoms: N_10  and  C_11
REMARK    5  A    between atoms: C_11  and  C_12
REMARK                            x       y       z     vdW  Elec       q    Type
REMARK                         _______ _______ _______ _____ _____    ______ ____
ROOT
ATOM      1  C   UNL     1      44.878   5.070  11.675  0.00  0.00    +0.000 A 
ATOM      2  C   UNL     1      45.567   6.118  11.076  0.00  0.00    +0.000 A 
ATOM      3  N   UNL     1      46.649   6.753  11.584  0.00  0.00    +0.000 NA
ATOM      4  C   UNL     1      47.073   6.265  12.773  0.00  0.00    +0.000 A 
ATOM      5  C   UNL     1      48.167   6.631  13.577  0.00  0.00    +0.000 A 
ATOM      6  N   UNL     1      48.277   5.873  14.674  0.00  0.00    +0.000 NA
ATOM      7  N   UNL     1      47.235   5.009  14.567  0.00  0.00    +0.000 N 
ATOM      8  C   UNL     1      46.462   5.213  13.450  0.00  0.00    +0.000 A 
ATOM      9  C   UNL     1      45.308   4.609  12.931  0.00  0.00    +0.000 A 
ENDROOT
BRANCH   1  10
ATOM     10  C   UNL     1      43.694   4.428  10.984  0.00  0.00    +0.000 C 
BRANCH  10  11
ATOM     11  C   UNL     1      43.893   2.926  10.761  0.00  0.00    +0.000 C 
BRANCH  11  12
ATOM     12  N   UNL     1      43.027   2.144  11.646  0.00  0.00    +0.000 NA
ATOM     13  H   UNL     1      42.413   2.777  12.160  0.00  0.00    +0.000 HD
ATOM     14  H   UNL     1      43.593   1.673  12.352  0.00  0.00    +0.000 HD
ENDBRANCH  11  12
ENDBRANCH  10  11
ENDBRANCH   1  10
BRANCH   7  15
ATOM     15  C   UNL     1      47.129   3.920  15.532  0.00  0.00    +0.000 C 
BRANCH  15  16
ATOM     16  C   UNL     1      47.947   4.201  16.763  0.00  0.00    +0.000 A 
ATOM     17  C   UNL     1      47.406   4.910  17.838  0.00  0.00    +0.000 A 
ATOM     18  C   UNL     1      48.150   5.038  19.006  0.00  0.00    +0.000 A 
ATOM     19  C   UNL     1      49.427   4.494  19.061  0.00  0.00    +0.000 A 
ATOM     20  C   UNL     1      49.920   3.869  17.929  0.00  0.00    +0.000 A 
ATOM     21  N   UNL     1      49.212   3.706  16.789  0.00  0.00    +0.000 NA
ENDBRANCH  15  16
ENDBRANCH   7  15
TORSDOF 5
ENDMDL
MODEL 8
REMARK VINA RESULT:    -5.813      2.069      6.029
REMARK INTER + INTRA:          -7.729
REMARK INTER:                  -7.235
REMARK INTRA:                  -0.494
REMARK UNBOUND:                -0.387
REMARK  Name = 
REMARK  5 active torsions:
REMARK  status: ('A' for Active; 'I' for Inactive)
REMARK    1  A    between atoms: N_1  and  C_2
REMARK    2  A    between atoms: C_2  and  C_3
REMARK    3  A    between atoms: C_3  and  C_4
REMARK    4  A    between atoms: N_10  and  C_11
REMARK    5  A    between atoms: C_11  and  C_12
REMARK                            x       y       z     vdW  Elec       q    Type
REMARK                         _______ _______ _______ _____ _____    ______ ____
ROOT
ATOM      1  C   UNL     1      44.836   4.503  11.127  0.00  0.00    +0.000 A 
ATOM      2  C   UNL     1      44.887   3.291  11.805  0.00  0.00    +0.000 A 
ATOM      3  N   UNL     1      45.628   3.027  12.907  0.00  0.00    +0.000 NA
ATOM      4  C   UNL     1      46.344   4.081  13.363  0.00  0.00    +0.000 A 
ATOM      5  C   UNL     1      47.185   4.203  14.484  0.00  0.00    +0.000 A 
ATOM      6  N   UNL     1      47.685   5.437  14.621  0.00  0.00    +0.000 NA
ATOM      7  N   UNL     1      47.153   6.112  13.570  0.00  0.00    +0.000 N 
ATOM      8  C   UNL     1      46.352   5.338  12.765  0.00  0.00    +0.000 A 
ATOM      9  C   UNL     1      45.622   5.572  11.592  0.00  0.00    +0.000 A 
ENDROOT
BRANCH   1  10
ATOM     10  C   UNL     1      43.940   4.675   9.919  0.00  0.00    +0.000 C 
BRANCH  10  11
ATOM     11  C   UNL     1      44.538   4.049   8.655  0.00  0.00    +0.000 C 
BRANCH  11  12
ATOM     12  N   UNL     1      45.696   4.813   8.187  0.00  0.00    +0.000 NA
ATOM     13  H   UNL     1      46.276   4.216   7.597  0.00  0.00    +0.000 HD
ATOM     14  H   UNL     1      46.282   5.071   8.981  0.00  0.00    +0.000 HD
ENDBRANCH  11  12
ENDBRANCH  10  11
ENDBRANCH   1  10
BRANCH   7  15
ATOM     15  C   UNL     1      47.368   7.553  13.485  0.00  0.00    +0.000 C 
BRANCH  15  16
ATOM     16  C   UNL     1      48.763   7.870  13.021  0.00  0.00    +0.000 A 
ATOM     17  C   UNL     1      49.196   7.499  11.746  0.00  0.00    +0.000 A 
ATOM     18  C   UNL     1      50.447   7.922  11.307  0.00  0.00    +0.000 A 
ATOM     19  C   UNL     1      51.250   8.666  12.162  0.00  0.00    +0.000 A 
ATOM     20  C   UNL     1      50.778   8.931  13.436  0.00  0.00    +0.000 A 
ATOM     21  N   UNL     1      49.559   8.557  13.881  0.00  0.00    +0.000 NA
ENDBRANCH  15  16
ENDBRANCH   7  15
TORSDOF 5
ENDMDL
MODEL 9
REMARK VINA RESULT:    -5.538      2.959      7.283
REMARK INTER + INTRA:          -7.382
REMARK INTER:                  -6.904
REMARK INTRA:                  -0.478
REMARK UNBOUND:                -0.387
REMARK  Name = 
REMARK  5 active torsions:
REMARK  status: ('A' for Active; 'I' for Inactive)
REMARK    1  A    between atoms: N_1  and  C_2
REMARK    2  A    between atoms: C_2  and  C_3
REMARK    3  A    between atoms: C_3  and  C_4
REMARK    4  A    between atoms: N_10  and  C_11
REMARK    5  A    between atoms: C_11  and  C_12
REMARK                            x       y       z     vdW  Elec       q    Type
REMARK                         _______ _______ _______ _____ _____    ______ ____
ROOT
ATOM      1  C   UNL     1      45.325   4.866  12.055  0.00  0.00    +0.000 A 
ATOM      2  C   UNL     1      44.441   5.838  11.600  0.00  0.00    +0.000 A 
ATOM      3  N   UNL     1      44.540   7.170  11.820  0.00  0.00    +0.000 NA
ATOM      4  C   UNL     1      45.632   7.537  12.531  0.00  0.00    +0.000 A 
ATOM      5  C   UNL     1      46.089   8.809  12.918  0.00  0.00    +0.000 A 
ATOM      6  N   UNL     1      47.248   8.759  13.586  0.00  0.00    +0.000 NA
ATOM      7  N   UNL     1      47.534   7.432  13.624  0.00  0.00    +0.000 N 
ATOM      8  C   UNL     1      46.582   6.646  13.021  0.00  0.00    +0.000 A 
ATOM      9  C   UNL     1      46.429   5.266  12.829  0.00  0.00    +0.000 A 
ENDROOT
BRANCH   1  10
ATOM     10  C   UNL     1      45.113   3.407  11.713  0.00  0.00    +0.000 C 
BRANCH  10  11
ATOM     11  C   UNL     1      43.767   3.158  11.027  0.00  0.00    +0.000 C 
BRANCH  11  12
ATOM     12  N   UNL     1      43.024   2.090  11.699  0.00  0.00    +0.000 NA
ATOM     13  H   UNL     1      43.626   1.271  11.794  0.00  0.00    +0.000 HD
ATOM     14  H   UNL     1      42.243   1.793  11.113  0.00  0.00    +0.000 HD
ENDBRANCH  11  12
ENDBRANCH  10  11
ENDBRANCH   1  10
BRANCH   7  15
ATOM     15  C   UNL     1      48.826   7.012  14.156  0.00  0.00    +0.000 C 
BRANCH  15  16
ATOM     16  C   UNL     1      48.712   6.594  15.597  0.00  0.00    +0.000 A 
ATOM     17  C   UNL     1      48.847   7.527  16.627  0.00  0.00    +0.000 A 
ATOM     18  C   UNL     1      48.609   7.126  17.938  0.00  0.00    +0.000 A 
ATOM     19  C   UNL     1      48.283   5.800  18.194  0.00  0.00    +0.000 A 
ATOM     20  C   UNL     1      48.241   4.921  17.126  0.00  0.00    +0.000 A 
ATOM     21  N   UNL     1      48.441   5.285  15.841  0.00  0.00    +0.000 NA
ENDBRANCH  15  16
ENDBRANCH   7  15
TORSDOF 5
ENDMDL
