MODEL 1
REMARK VINA RESULT:    -7.895      0.000      0.000
REMARK INTER + INTRA:         -11.585
REMARK INTER:                 -10.665
REMARK INTRA:                  -0.920
REMARK UNBOUND:                -0.920
REMARK  Name = 
REMARK  7 active torsions:
REMARK  status: ('A' for Active; 'I' for Inactive)
REMARK    1  A    between atoms: C_1  and  N_2
REMARK    2  A    between atoms: C_4  and  C_5
REMARK    3  A    between atoms: N_7  and  C_8
REMARK    4  A    between atoms: C_8  and  C_9
REMARK    5  A    between atoms: C_12  and  C_13
REMARK    6  A    between atoms: C_13  and  N_14
REMARK    7  A    between atoms: C_15  and  C_17
REMARK                            x       y       z     vdW  Elec       q    Type
REMARK                         _______ _______ _______ _____ _____    ______ ____
ROOT
ATOM      1  C   UNL     1      44.892   5.993  11.069  0.00  0.00    +0.000 A 
ATOM      2  C   UNL     1      44.528   7.302  11.412  0.00  0.00    +0.000 A 
ATOM      3  C   UNL     1      45.308   8.050  12.303  0.00  0.00    +0.000 A 
ATOM      4  C   UNL     1      46.479   7.511  12.852  0.00  0.00    +0.000 A 
ATOM      5  C   UNL     1      46.837   6.199  12.515  0.00  0.00    +0.000 A 
ATOM      6  C   UNL     1      46.059   5.452  11.625  0.00  0.00    +0.000 A 
ENDROOT
BRANCH   1   7
ATOM      7  C   UNL     1      44.049   5.185  10.117  0.00  0.00    +0.000 C 
BRANCH   7  10
ATOM      8  C   UNL     1      45.064   3.172   9.181  0.00  0.00    +0.000 C 
ATOM      9  O   UNL     1      44.629   2.478  10.099  0.00  0.00    +0.000 OA
ATOM     10  N   UNL     1      44.838   4.525   9.107  0.00  0.00    +0.000 N 
ATOM     11  H   UNL     1      45.157   5.056   8.310  0.00  0.00    +0.000 HD
BRANCH   8  15
ATOM     12  C   UNL     1      47.715   2.322   5.021  0.00  0.00    +0.000 C 
ATOM     13  N   UNL     1      47.022   2.199   6.278  0.00  0.00    +0.000 N 
ATOM     14  C   UNL     1      46.346   3.180   6.947  0.00  0.00    +0.000 A 
ATOM     15  C   UNL     1      45.851   2.597   8.102  0.00  0.00    +0.000 A 
ATOM     16  C   UNL     1      46.300   1.254   8.013  0.00  0.00    +0.000 A 
ATOM     17  N   UNL     1      47.007   1.012   6.906  0.00  0.00    +0.000 NA
ENDBRANCH   8  15
ENDBRANCH   7  10
ENDBRANCH   1   7
BRANCH   4  18
ATOM     18  C   UNL     1      47.329   8.313  13.804  0.00  0.00    +0.000 C 
BRANCH  18  19
ATOM     19  N   UNL     1      47.713   7.542  14.959  0.00  0.00    +0.000 N 
ATOM     20  C   UNL     1      48.942   6.929  15.015  0.00  0.00    +0.000 C 
ATOM     21  O   UNL     1      49.768   7.051  14.115  0.00  0.00    +0.000 OA
ATOM     22  H   UNL     1      46.977   7.246  15.591  0.00  0.00    +0.000 HD
BRANCH  20  23
ATOM     23  C   UNL     1      49.252   6.176  16.238  0.00  0.00    +0.000 A 
ATOM     24  C   UNL     1      50.324   6.564  17.030  0.00  0.00    +0.000 A 
ATOM     25  S   UNL     1      50.511   5.623  18.440  0.00  0.00    +0.000 S 
ATOM     26  C   UNL     1      49.200   4.627  18.013  0.00  0.00    +0.000 A 
ATOM     27  N   UNL     1      48.831   3.582  18.803  0.00  0.00    +0.000 NA
ATOM     28  C   UNL     1      47.847   2.886  18.340  0.00  0.00    +0.000 A 
ATOM     29  N   UNL     1      47.195   3.143  17.161  0.00  0.00    +0.000 N 
ATOM     30  C   UNL     1      47.512   4.205  16.349  0.00  0.00    +0.000 A 
ATOM     31  O   UNL     1      46.881   4.434  15.322  0.00  0.00    +0.000 OA
ATOM     32  C   UNL     1      48.620   5.014  16.819  0.00  0.00    +0.000 A 
ATOM     33  H   UNL     1      46.429   2.561  16.857  0.00  0.00    +0.000 HD
ENDBRANCH  20  23
ENDBRANCH  18  19
ENDBRANCH   4  18
TORSDOF 6
ENDMDL
MODEL 2
REMARK VINA RESULT:    -7.073      3.676      8.406
REMARK INTER + INTRA:         -10.473
REMARK INTER:                  -9.605
REMARK INTRA:                  -0.868
REMARK UNBOUND:                -0.920
REMARK  Name = 
REMARK  7 active torsions:
REMARK  status: ('A' for Active; 'I' for Inactive)
REMARK    1  A    between atoms: C_1  and  N_2
REMARK    2  A    between atoms: C_4  and  C_5
REMARK    3  A    between atoms: N_7  and  C_8
REMARK    4  A    between atoms: C_8  and  C_9
REMARK    5  A    between atoms: C_12  and  C_13
REMARK    6  A    between atoms: C_13  and  N_14
REMARK    7  A    between atoms: C_15  and  C_17
REMARK                            x       y       z     vdW  Elec       q    Type
REMARK                         _______ _______ _______ _____ _____    ______ ____
ROOT
ATOM      1  C   UNL     1      50.055   7.122  15.788  0.00  0.00    +0.000 A 
ATOM      2  C   UNL     1      48.802   6.610  15.425  0.00  0.00    +0.000 A 
ATOM      3  C   UNL     1      48.235   6.922  14.184  0.00  0.00    +0.000 A 
ATOM      4  C   UNL     1      48.919   7.735  13.271  0.00  0.00    +0.000 A 
ATOM      5  C   UNL     1      50.168   8.254  13.638  0.00  0.00    +0.000 A 
ATOM      6  C   UNL     1      50.735   7.942  14.877  0.00  0.00    +0.000 A 
ENDROOT
BRANCH   1   7
ATOM      7  C   UNL     1      50.661   6.794  17.128  0.00  0.00    +0.000 C 
BRANCH   7  10
ATOM      8  C   UNL     1      50.613   4.445  17.792  0.00  0.00    +0.000 C 
ATOM      9  O   UNL     1      49.537   4.590  18.371  0.00  0.00    +0.000 OA
ATOM     10  N   UNL     1      51.254   5.480  17.156  0.00  0.00    +0.000 N 
ATOM     11  H   UNL     1      52.106   5.316  16.639  0.00  0.00    +0.000 HD
BRANCH   8  15
ATOM     12  C   UNL     1      53.837   0.629  18.102  0.00  0.00    +0.000 C 
ATOM     13  N   UNL     1      52.682   1.459  17.872  0.00  0.00    +0.000 N 
ATOM     14  C   UNL     1      52.566   2.798  18.119  0.00  0.00    +0.000 A 
ATOM     15  C   UNL     1      51.280   3.154  17.744  0.00  0.00    +0.000 A 
ATOM     16  C   UNL     1      50.720   1.935  17.284  0.00  0.00    +0.000 A 
ATOM     17  N   UNL     1      51.570   0.908  17.358  0.00  0.00    +0.000 NA
ENDBRANCH   8  15
ENDBRANCH   7  10
ENDBRANCH   1   7
BRANCH   4  18
ATOM     18  C   UNL     1      48.320   8.068  11.928  0.00  0.00    +0.000 C 
BRANCH  18  19
ATOM     19  N   UNL     1      47.615   6.947  11.363  0.00  0.00    +0.000 N 
ATOM     20  C   UNL     1      46.242   6.894  11.395  0.00  0.00    +0.000 C 
ATOM     21  O   UNL     1      45.569   7.810  11.859  0.00  0.00    +0.000 OA
ATOM     22  H   UNL     1      48.144   6.099  11.190  0.00  0.00    +0.000 HD
BRANCH  20  23
ATOM     23  C   UNL     1      45.609   5.718  10.782  0.00  0.00    +0.000 A 
ATOM     24  C   UNL     1      45.728   5.509   9.415  0.00  0.00    +0.000 A 
ATOM     25  S   UNL     1      44.988   4.070   8.873  0.00  0.00    +0.000 S 
ATOM     26  C   UNL     1      44.433   3.705  10.438  0.00  0.00    +0.000 A 
ATOM     27  N   UNL     1      43.692   2.587  10.673  0.00  0.00    +0.000 NA
ATOM     28  C   UNL     1      43.303   2.454  11.897  0.00  0.00    +0.000 A 
ATOM     29  N   UNL     1      43.591   3.333  12.909  0.00  0.00    +0.000 N 
ATOM     30  C   UNL     1      44.362   4.456  12.725  0.00  0.00    +0.000 A 
ATOM     31  O   UNL     1      44.639   5.200  13.660  0.00  0.00    +0.000 OA
ATOM     32  C   UNL     1      44.817   4.659  11.363  0.00  0.00    +0.000 A 
ATOM     33  H   UNL     1      43.260   3.168  13.847  0.00  0.00    +0.000 HD
ENDBRANCH  20  23
ENDBRANCH  18  19
ENDBRANCH   4  18
TORSDOF 6
ENDMDL
MODEL 3
REMARK VINA RESULT:    -7.063      1.332      1.695
REMARK INTER + INTRA:         -10.461
REMARK INTER:                  -9.412
REMARK INTRA:                  -1.049
REMARK UNBOUND:                -0.920
REMARK  Name = 
REMARK  7 active torsions:
REMARK  status: ('A' for Active; 'I' for Inactive)
REMARK    1  A    between atoms: C_1  and  N_2
REMARK    2  A    between atoms: C_4  and  C_5
REMARK    3  A    between atoms: N_7  and  C_8
REMARK    4  A    between atoms: C_8  and  C_9
REMARK    5  A    between atoms: C_12  and  C_13
REMARK    6  A    between atoms: C_13  and  N_14
REMARK    7  A    between atoms: C_15  and  C_17
REMARK                            x       y       z     vdW  Elec       q    Type
REMARK                         _______ _______ _______ _____ _____    ______ ____
ROOT
ATOM      1  C   UNL     1      45.412   6.488  11.663  0.00  0.00    +0.000 A 
ATOM      2  C   UNL     1      46.672   6.021  12.061  0.00  0.00    +0.000 A 
ATOM      3  C   UNL     1      47.510   6.815  12.852  0.00  0.00    +0.000 A 
ATOM      4  C   UNL     1      47.097   8.084  13.279  0.00  0.00    +0.000 A 
ATOM      5  C   UNL     1      45.841   8.554  12.874  0.00  0.00    +0.000 A 
ATOM      6  C   UNL     1      45.003   7.761  12.084  0.00  0.00    +0.000 A 
ENDROOT
BRANCH   1   7
ATOM      7  C   UNL     1      44.512   5.637  10.804  0.00  0.00    +0.000 C 
BRANCH   7  10
ATOM      8  C   UNL     1      44.844   3.633   9.451  0.00  0.00    +0.000 C 
ATOM      9  O   UNL     1      43.875   3.077   9.967  0.00  0.00    +0.000 OA
ATOM     10  N   UNL     1      45.245   4.897   9.806  0.00  0.00    +0.000 N 
ATOM     11  H   UNL     1      46.007   5.350   9.322  0.00  0.00    +0.000 HD
BRANCH   8  15
ATOM     12  C   UNL     1      47.599   2.505   5.427  0.00  0.00    +0.000 C 
ATOM     13  N   UNL     1      46.848   2.460   6.656  0.00  0.00    +0.000 N 
ATOM     14  C   UNL     1      46.215   3.501   7.274  0.00  0.00    +0.000 A 
ATOM     15  C   UNL     1      45.633   2.979   8.419  0.00  0.00    +0.000 A 
ATOM     16  C   UNL     1      45.989   1.607   8.376  0.00  0.00    +0.000 A 
ATOM     17  N   UNL     1      46.723   1.291   7.306  0.00  0.00    +0.000 NA
ENDBRANCH   8  15
ENDBRANCH   7  10
ENDBRANCH   1   7
BRANCH   4  18
ATOM     18  C   UNL     1      47.991   8.942  14.139  0.00  0.00    +0.000 C 
BRANCH  18  19
ATOM     19  N   UNL     1      48.710   8.159  15.112  0.00  0.00    +0.000 N 
ATOM     20  C   UNL     1      48.537   8.382  16.457  0.00  0.00    +0.000 C 
ATOM     21  O   UNL     1      47.738   9.214  16.878  0.00  0.00    +0.000 OA
ATOM     22  H   UNL     1      49.523   7.644  14.790  0.00  0.00    +0.000 HD
BRANCH  20  23
ATOM     23  C   UNL     1      49.303   7.527  17.374  0.00  0.00    +0.000 A 
ATOM     24  C   UNL     1      50.159   8.109  18.300  0.00  0.00    +0.000 A 
ATOM     25  S   UNL     1      50.926   6.983  19.327  0.00  0.00    +0.000 S 
ATOM     26  C   UNL     1      50.184   5.674  18.533  0.00  0.00    +0.000 A 
ATOM     27  N   UNL     1      50.437   4.393  18.914  0.00  0.00    +0.000 NA
ATOM     28  C   UNL     1      49.840   3.498  18.201  0.00  0.00    +0.000 A 
ATOM     29  N   UNL     1      49.009   3.767  17.144  0.00  0.00    +0.000 N 
ATOM     30  C   UNL     1      48.699   5.045  16.745  0.00  0.00    +0.000 A 
ATOM     31  O   UNL     1      47.918   5.254  15.823  0.00  0.00    +0.000 OA
ATOM     32  C   UNL     1      49.354   6.090  17.508  0.00  0.00    +0.000 A 
ATOM     33  H   UNL     1      48.569   3.019  16.629  0.00  0.00    +0.000 HD
ENDBRANCH  20  23
ENDBRANCH  18  19
ENDBRANCH   4  18
TORSDOF 6
ENDMDL
MODEL 4
REMARK VINA RESULT:    -7.002      4.878      7.451
REMARK INTER + INTRA:         -10.378
REMARK INTER:                  -9.449
REMARK INTRA:                  -0.930
REMARK UNBOUND:                -0.920
REMARK  Name = 
REMARK  7 active torsions:
REMARK  status: ('A' for Active; 'I' for Inactive)
REMARK    1  A    between atoms: C_1  and  N_2
REMARK    2  A    between atoms: C_4  and  C_5
REMARK    3  A    between atoms: N_7  and  C_8
REMARK    4  A    between atoms: C_8  and  C_9
REMARK    5  A    between atoms: C_12  and  C_13
REMARK    6  A    between atoms: C_13  and  N_14
REMARK    7  A    between atoms: C_15  and  C_17
REMARK                            x       y       z     vdW  Elec       q    Type
REMARK                         _______ _______ _______ _____ _____    ______ ____
ROOT
ATOM      1  C   UNL     1      50.596   8.827  11.282  0.00  0.00    +0.000 A 
ATOM      2  C   UNL     1      50.152   7.554  11.665  0.00  0.00    +0.000 A 
ATOM      3  C   UNL     1      48.854   7.369  12.157  0.00  0.00    +0.000 A 
ATOM      4  C   UNL     1      47.967   8.449  12.255  0.00  0.00    +0.000 A 
ATOM      5  C   UNL     1      48.415   9.722  11.880  0.00  0.00    +0.000 A 
ATOM      6  C   UNL     1      49.710   9.908  11.388  0.00  0.00    +0.000 A 
ENDROOT
BRANCH   1   7
ATOM      7  C   UNL     1      51.995   9.028  10.761  0.00  0.00    +0.000 C 
BRANCH   7  10
ATOM      8  C   UNL     1      53.200   7.127   9.814  0.00  0.00    +0.000 C 
ATOM      9  O   UNL     1      53.785   6.919  10.876  0.00  0.00    +0.000 OA
ATOM     10  N   UNL     1      52.302   8.154   9.655  0.00  0.00    +0.000 N 
ATOM     11  H   UNL     1      51.792   8.262   8.790  0.00  0.00    +0.000 HD
BRANCH   8  15
ATOM     12  C   UNL     1      54.746   3.670   6.541  0.00  0.00    +0.000 C 
ATOM     13  N   UNL     1      54.087   4.775   7.191  0.00  0.00    +0.000 N 
ATOM     14  C   UNL     1      54.270   5.206   8.474  0.00  0.00    +0.000 A 
ATOM     15  C   UNL     1      53.422   6.288   8.648  0.00  0.00    +0.000 A 
ATOM     16  C   UNL     1      52.779   6.410   7.389  0.00  0.00    +0.000 A 
ATOM     17  N   UNL     1      53.184   5.495   6.505  0.00  0.00    +0.000 NA
ENDBRANCH   8  15
ENDBRANCH   7  10
ENDBRANCH   1   7
BRANCH   4  18
ATOM     18  C   UNL     1      46.565   8.256  12.775  0.00  0.00    +0.000 C 
BRANCH  18  19
ATOM     19  N   UNL     1      46.075   6.927  12.514  0.00  0.00    +0.000 N 
ATOM     20  C   UNL     1      44.962   6.731  11.732  0.00  0.00    +0.000 C 
ATOM     21  O   UNL     1      44.376   7.667  11.194  0.00  0.00    +0.000 OA
ATOM     22  H   UNL     1      46.397   6.181  13.122  0.00  0.00    +0.000 HD
BRANCH  20  23
ATOM     23  C   UNL     1      44.543   5.341  11.511  0.00  0.00    +0.000 A 
ATOM     24  C   UNL     1      43.811   4.680  12.489  0.00  0.00    +0.000 A 
ATOM     25  S   UNL     1      43.354   3.096  12.051  0.00  0.00    +0.000 S 
ATOM     26  C   UNL     1      44.167   3.216  10.562  0.00  0.00    +0.000 A 
ATOM     27  N   UNL     1      44.187   2.171   9.691  0.00  0.00    +0.000 NA
ATOM     28  C   UNL     1      44.873   2.384   8.619  0.00  0.00    +0.000 A 
ATOM     29  N   UNL     1      45.537   3.550   8.335  0.00  0.00    +0.000 N 
ATOM     30  C   UNL     1      45.516   4.642   9.168  0.00  0.00    +0.000 A 
ATOM     31  O   UNL     1      46.084   5.687   8.866  0.00  0.00    +0.000 OA
ATOM     32  C   UNL     1      44.767   4.451  10.395  0.00  0.00    +0.000 A 
ATOM     33  H   UNL     1      46.052   3.654   7.474  0.00  0.00    +0.000 HD
ENDBRANCH  20  23
ENDBRANCH  18  19
ENDBRANCH   4  18
TORSDOF 6
ENDMDL
MODEL 5
REMARK VINA RESULT:    -6.767      3.955      8.701
REMARK INTER + INTRA:         -10.061
REMARK INTER:                  -9.041
REMARK INTRA:                  -1.020
REMARK UNBOUND:                -0.920
REMARK  Name = 
REMARK  7 active torsions:
REMARK  status: ('A' for Active; 'I' for Inactive)
REMARK    1  A    between atoms: C_1  and  N_2
REMARK    2  A    between atoms: C_4  and  C_5
REMARK    3  A    between atoms: N_7  and  C_8
REMARK    4  A    between atoms: C_8  and  C_9
REMARK    5  A    between atoms: C_12  and  C_13
REMARK    6  A    between atoms: C_13  and  N_14
REMARK    7  A    between atoms: C_15  and  C_17
REMARK                            x       y       z     vdW  Elec       q    Type
REMARK                         _______ _______ _______ _____ _____    ______ ____
ROOT
ATOM      1  C   UNL     1      49.749   4.948  17.668  0.00  0.00    +0.000 A 
ATOM      2  C   UNL     1      50.517   6.004  17.160  0.00  0.00    +0.000 A 
ATOM      3  C   UNL     1      50.067   6.753  16.066  0.00  0.00    +0.000 A 
ATOM      4  C   UNL     1      48.829   6.475  15.472  0.00  0.00    +0.000 A 
ATOM      5  C   UNL     1      48.066   5.413  15.975  0.00  0.00    +0.000 A 
ATOM      6  C   UNL     1      48.515   4.665  17.067  0.00  0.00    +0.000 A 
ENDROOT
BRANCH   1   7
ATOM      7  C   UNL     1      50.238   4.136  18.839  0.00  0.00    +0.000 C 
BRANCH   7  10
ATOM      8  C   UNL     1      51.589   2.364  17.841  0.00  0.00    +0.000 C 
ATOM      9  O   UNL     1      50.592   1.808  17.383  0.00  0.00    +0.000 OA
ATOM     10  N   UNL     1      51.515   3.517  18.584  0.00  0.00    +0.000 N 
ATOM     11  H   UNL     1      52.355   3.982  18.895  0.00  0.00    +0.000 HD
BRANCH   8  15
ATOM     12  C   UNL     1      55.580  -0.512  16.916  0.00  0.00    +0.000 C 
ATOM     13  N   UNL     1      54.695   0.586  17.214  0.00  0.00    +0.000 N 
ATOM     14  C   UNL     1      53.335   0.540  17.331  0.00  0.00    +0.000 A 
ATOM     15  C   UNL     1      52.924   1.832  17.620  0.00  0.00    +0.000 A 
ATOM     16  C   UNL     1      54.137   2.566  17.652  0.00  0.00    +0.000 A 
ATOM     17  N   UNL     1      55.211   1.810  17.409  0.00  0.00    +0.000 NA
ENDBRANCH   8  15
ENDBRANCH   7  10
ENDBRANCH   1   7
BRANCH   4  18
ATOM     18  C   UNL     1      48.333   7.283  14.300  0.00  0.00    +0.000 C 
BRANCH  18  19
ATOM     19  N   UNL     1      47.068   6.797  13.811  0.00  0.00    +0.000 N 
ATOM     20  C   UNL     1      46.812   6.742  12.462  0.00  0.00    +0.000 C 
ATOM     21  O   UNL     1      47.658   7.058  11.629  0.00  0.00    +0.000 OA
ATOM     22  H   UNL     1      46.296   6.754  14.469  0.00  0.00    +0.000 HD
BRANCH  20  23
ATOM     23  C   UNL     1      45.500   6.221  12.057  0.00  0.00    +0.000 A 
ATOM     24  C   UNL     1      44.546   7.088  11.541  0.00  0.00    +0.000 A 
ATOM     25  S   UNL     1      43.102   6.315  11.065  0.00  0.00    +0.000 S 
ATOM     26  C   UNL     1      43.678   4.802  11.583  0.00  0.00    +0.000 A 
ATOM     27  N   UNL     1      42.906   3.687  11.478  0.00  0.00    +0.000 NA
ATOM     28  C   UNL     1      43.451   2.614  11.946  0.00  0.00    +0.000 A 
ATOM     29  N   UNL     1      44.702   2.554  12.506  0.00  0.00    +0.000 N 
ATOM     30  C   UNL     1      45.529   3.647  12.603  0.00  0.00    +0.000 A 
ATOM     31  O   UNL     1      46.660   3.552  13.070  0.00  0.00    +0.000 OA
ATOM     32  C   UNL     1      44.959   4.882  12.101  0.00  0.00    +0.000 A 
ATOM     33  H   UNL     1      45.072   1.681  12.850  0.00  0.00    +0.000 HD
ENDBRANCH  20  23
ENDBRANCH  18  19
ENDBRANCH   4  18
TORSDOF 6
ENDMDL
MODEL 6
REMARK VINA RESULT:    -6.528      5.924      8.451
REMARK INTER + INTRA:          -9.737
REMARK INTER:                  -8.752
REMARK INTRA:                  -0.985
REMARK UNBOUND:                -0.920
REMARK  Name = 
REMARK  7 active torsions:
REMARK  status: ('A' for Active; 'I' for Inactive)
REMARK    1  A    between atoms: C_1  and  N_2
REMARK    2  A    between atoms: C_4  and  C_5
REMARK    3  A    between atoms: N_7  and  C_8
REMARK    4  A    between atoms: C_8  and  C_9
REMARK    5  A    between atoms: C_12  and  C_13
REMARK    6  A    between atoms: C_13  and  N_14
REMARK    7  A    between atoms: C_15  and  C_17
REMARK                            x       y       z     vdW  Elec       q    Type
REMARK                         _______ _______ _______ _____ _____    ______ ____
ROOT
ATOM      1  C   UNL     1      48.761   3.402  17.254  0.00  0.00    +0.000 A 
ATOM      2  C   UNL     1      49.338   2.151  16.995  0.00  0.00    +0.000 A 
ATOM      3  C   UNL     1      50.704   1.936  17.214  0.00  0.00    +0.000 A 
ATOM      4  C   UNL     1      51.516   2.961  17.716  0.00  0.00    +0.000 A 
ATOM      5  C   UNL     1      50.940   4.214  17.965  0.00  0.00    +0.000 A 
ATOM      6  C   UNL     1      49.576   4.429  17.747  0.00  0.00    +0.000 A 
ENDROOT
BRANCH   1   7
ATOM      7  C   UNL     1      47.292   3.636  17.010  0.00  0.00    +0.000 C 
BRANCH   7  10
ATOM      8  C   UNL     1      47.072   4.240  14.655  0.00  0.00    +0.000 C 
ATOM      9  O   UNL     1      47.302   3.086  14.296  0.00  0.00    +0.000 OA
ATOM     10  N   UNL     1      47.056   4.614  15.976  0.00  0.00    +0.000 N 
ATOM     11  H   UNL     1      46.805   5.555  16.241  0.00  0.00    +0.000 HD
BRANCH   8  15
ATOM     12  C   UNL     1      44.976   7.533  11.522  0.00  0.00    +0.000 C 
ATOM     13  N   UNL     1      45.898   6.753  12.307  0.00  0.00    +0.000 N 
ATOM     14  C   UNL     1      45.594   5.737  13.168  0.00  0.00    +0.000 A 
ATOM     15  C   UNL     1      46.799   5.294  13.690  0.00  0.00    +0.000 A 
ATOM     16  C   UNL     1      47.759   6.127  13.061  0.00  0.00    +0.000 A 
ATOM     17  N   UNL     1      47.214   7.009  12.220  0.00  0.00    +0.000 NA
ENDBRANCH   8  15
ENDBRANCH   7  10
ENDBRANCH   1   7
BRANCH   4  18
ATOM     18  C   UNL     1      52.986   2.735  17.963  0.00  0.00    +0.000 C 
BRANCH  18  19
ATOM     19  N   UNL     1      53.344   1.345  17.835  0.00  0.00    +0.000 N 
ATOM     20  C   UNL     1      54.467   0.972  17.137  0.00  0.00    +0.000 C 
ATOM     21  O   UNL     1      55.226   1.800  16.640  0.00  0.00    +0.000 OA
ATOM     22  H   UNL     1      52.625   0.656  18.033  0.00  0.00    +0.000 HD
BRANCH  20  23
ATOM     23  C   UNL     1      54.759  -0.466  17.070  0.00  0.00    +0.000 A 
ATOM     24  C   UNL     1      54.847  -1.092  15.834  0.00  0.00    +0.000 A 
ATOM     25  S   UNL     1      55.251  -2.747  15.930  0.00  0.00    +0.000 S 
ATOM     26  C   UNL     1      55.266  -2.699  17.630  0.00  0.00    +0.000 A 
ATOM     27  N   UNL     1      55.529  -3.818  18.358  0.00  0.00    +0.000 NA
ATOM     28  C   UNL     1      55.469  -3.648  19.636  0.00  0.00    +0.000 A 
ATOM     29  N   UNL     1      55.175  -2.460  20.254  0.00  0.00    +0.000 N 
ATOM     30  C   UNL     1      54.936  -1.297  19.561  0.00  0.00    +0.000 A 
ATOM     31  O   UNL     1      54.719  -0.240  20.143  0.00  0.00    +0.000 OA
ATOM     32  C   UNL     1      54.981  -1.436  18.118  0.00  0.00    +0.000 A 
ATOM     33  H   UNL     1      55.148  -2.393  21.260  0.00  0.00    +0.000 HD
ENDBRANCH  20  23
ENDBRANCH  18  19
ENDBRANCH   4  18
TORSDOF 6
ENDMDL
MODEL 7
REMARK VINA RESULT:    -6.441      5.994      8.543
REMARK INTER + INTRA:          -9.620
REMARK INTER:                  -8.613
REMARK INTRA:                  -1.006
REMARK UNBOUND:                -0.920
REMARK  Name = 
REMARK  7 active torsions:
REMARK  status: ('A' for Active; 'I' for Inactive)
REMARK    1  A    between atoms: C_1  and  N_2
REMARK    2  A    between atoms: C_4  and  C_5
REMARK    3  A    between atoms: N_7  and  C_8
REMARK    4  A    between atoms: C_8  and  C_9
REMARK    5  A    between atoms: C_12  and  C_13
REMARK    6  A    between atoms: C_13  and  N_14
REMARK    7  A    between atoms: C_15  and  C_17
REMARK                            x       y       z     vdW  Elec       q    Type
REMARK                         _______ _______ _______ _____ _____    ______ ____
ROOT
ATOM      1  C   UNL     1      48.710   3.322  17.123  0.00  0.00    +0.000 A 
ATOM      2  C   UNL     1      49.295   2.103  16.754  0.00  0.00    +0.000 A 
ATOM      3  C   UNL     1      50.643   1.845  17.031  0.00  0.00    +0.000 A 
ATOM      4  C   UNL     1      51.428   2.792  17.701  0.00  0.00    +0.000 A 
ATOM      5  C   UNL     1      50.845   4.015  18.061  0.00  0.00    +0.000 A 
ATOM      6  C   UNL     1      49.499   4.272  17.786  0.00  0.00    +0.000 A 
ENDROOT
BRANCH   1   7
ATOM      7  C   UNL     1      47.262   3.604  16.817  0.00  0.00    +0.000 C 
BRANCH   7  10
ATOM      8  C   UNL     1      47.019   4.390  14.518  0.00  0.00    +0.000 C 
ATOM      9  O   UNL     1      47.096   3.244  14.076  0.00  0.00    +0.000 OA
ATOM     10  N   UNL     1      47.100   4.671  15.860  0.00  0.00    +0.000 N 
ATOM     11  H   UNL     1      46.972   5.614  16.196  0.00  0.00    +0.000 HD
BRANCH   8  15
ATOM     12  C   UNL     1      45.218   7.938  11.482  0.00  0.00    +0.000 C 
ATOM     13  N   UNL     1      46.061   7.104  12.300  0.00  0.00    +0.000 N 
ATOM     14  C   UNL     1      45.688   5.996  13.006  0.00  0.00    +0.000 A 
ATOM     15  C   UNL     1      46.831   5.532  13.637  0.00  0.00    +0.000 A 
ATOM     16  C   UNL     1      47.831   6.451  13.229  0.00  0.00    +0.000 A 
ATOM     17  N   UNL     1      47.365   7.402  12.416  0.00  0.00    +0.000 NA
ENDBRANCH   8  15
ENDBRANCH   7  10
ENDBRANCH   1   7
BRANCH   4  18
ATOM     18  C   UNL     1      52.878   2.518  18.011  0.00  0.00    +0.000 C 
BRANCH  18  19
ATOM     19  N   UNL     1      53.223   1.138  17.784  0.00  0.00    +0.000 N 
ATOM     20  C   UNL     1      54.155   0.509  18.575  0.00  0.00    +0.000 C 
ATOM     21  O   UNL     1      54.688   1.078  19.524  0.00  0.00    +0.000 OA
ATOM     22  H   UNL     1      52.973   0.734  16.887  0.00  0.00    +0.000 HD
BRANCH  20  23
ATOM     23  C   UNL     1      54.433  -0.902  18.277  0.00  0.00    +0.000 A 
ATOM     24  C   UNL     1      54.243  -1.862  19.262  0.00  0.00    +0.000 A 
ATOM     25  S   UNL     1      54.554  -3.455  18.738  0.00  0.00    +0.000 S 
ATOM     26  C   UNL     1      55.009  -2.913  17.191  0.00  0.00    +0.000 A 
ATOM     27  N   UNL     1      55.419  -3.791  16.236  0.00  0.00    +0.000 NA
ATOM     28  C   UNL     1      55.774  -3.241  15.124  0.00  0.00    +0.000 A 
ATOM     29  N   UNL     1      55.751  -1.892  14.877  0.00  0.00    +0.000 N 
ATOM     30  C   UNL     1      55.313  -0.972  15.799  0.00  0.00    +0.000 A 
ATOM     31  O   UNL     1      55.264   0.225  15.533  0.00  0.00    +0.000 OA
ATOM     32  C   UNL     1      54.914  -1.538  17.073  0.00  0.00    +0.000 A 
ATOM     33  H   UNL     1      56.037  -1.526  13.981  0.00  0.00    +0.000 HD
ENDBRANCH  20  23
ENDBRANCH  18  19
ENDBRANCH   4  18
TORSDOF 6
ENDMDL
MODEL 8
REMARK VINA RESULT:    -6.260      5.611      7.753
REMARK INTER + INTRA:          -9.376
REMARK INTER:                  -8.564
REMARK INTRA:                  -0.812
REMARK UNBOUND:                -0.920
REMARK  Name = 
REMARK  7 active torsions:
REMARK  status: ('A' for Active; 'I' for Inactive)
REMARK    1  A    between atoms: C_1  and  N_2
REMARK    2  A    between atoms: C_4  and  C_5
REMARK    3  A    between atoms: N_7  and  C_8
REMARK    4  A    between atoms: C_8  and  C_9
REMARK    5  A    between atoms: C_12  and  C_13
REMARK    6  A    between atoms: C_13  and  N_14
REMARK    7  A    between atoms: C_15  and  C_17
REMARK                            x       y       z     vdW  Elec       q    Type
REMARK                         _______ _______ _______ _____ _____    ______ ____
ROOT
ATOM      1  C   UNL     1      47.461   8.388  12.483  0.00  0.00    +0.000 A 
ATOM      2  C   UNL     1      47.833   9.739  12.448  0.00  0.00    +0.000 A 
ATOM      3  C   UNL     1      49.120  10.115  12.046  0.00  0.00    +0.000 A 
ATOM      4  C   UNL     1      50.055   9.149  11.650  0.00  0.00    +0.000 A 
ATOM      5  C   UNL     1      49.685   7.798  11.694  0.00  0.00    +0.000 A 
ATOM      6  C   UNL     1      48.399   7.423  12.095  0.00  0.00    +0.000 A 
ENDROOT
BRANCH   1   7
ATOM      7  C   UNL     1      46.078   7.983  12.924  0.00  0.00    +0.000 C 
BRANCH   7  10
ATOM      8  C   UNL     1      44.628   6.546  11.586  0.00  0.00    +0.000 C 
ATOM      9  O   UNL     1      43.939   7.504  11.234  0.00  0.00    +0.000 OA
ATOM     10  N   UNL     1      45.703   6.681  12.429  0.00  0.00    +0.000 N 
ATOM     11  H   UNL     1      46.285   5.886  12.651  0.00  0.00    +0.000 HD
BRANCH   8  15
ATOM     12  C   UNL     1      44.577   2.130   9.231  0.00  0.00    +0.000 C 
ATOM     13  N   UNL     1      44.305   3.246  10.101  0.00  0.00    +0.000 N 
ATOM     14  C   UNL     1      44.948   4.450  10.123  0.00  0.00    +0.000 A 
ATOM     15  C   UNL     1      44.345   5.197  11.122  0.00  0.00    +0.000 A 
ATOM     16  C   UNL     1      43.346   4.327  11.629  0.00  0.00    +0.000 A 
ATOM     17  N   UNL     1      43.319   3.145  11.008  0.00  0.00    +0.000 NA
ENDBRANCH   8  15
ENDBRANCH   7  10
ENDBRANCH   1   7
BRANCH   4  18
ATOM     18  C   UNL     1      51.440   9.547  11.207  0.00  0.00    +0.000 C 
BRANCH  18  19
ATOM     19  N   UNL     1      51.763   9.008   9.911  0.00  0.00    +0.000 N 
ATOM     20  C   UNL     1      53.058   8.674   9.594  0.00  0.00    +0.000 C 
ATOM     21  O   UNL     1      53.972   8.777  10.408  0.00  0.00    +0.000 OA
ATOM     22  H   UNL     1      51.082   9.130   9.169  0.00  0.00    +0.000 HD
BRANCH  20  23
ATOM     23  C   UNL     1      53.291   8.119   8.253  0.00  0.00    +0.000 A 
ATOM     24  C   UNL     1      53.276   8.962   7.150  0.00  0.00    +0.000 A 
ATOM     25  S   UNL     1      53.621   8.172   5.678  0.00  0.00    +0.000 S 
ATOM     26  C   UNL     1      53.747   6.664   6.456  0.00  0.00    +0.000 A 
ATOM     27  N   UNL     1      54.012   5.533   5.748  0.00  0.00    +0.000 NA
ATOM     28  C   UNL     1      54.039   4.455   6.457  0.00  0.00    +0.000 A 
ATOM     29  N   UNL     1      53.831   4.405   7.811  0.00  0.00    +0.000 N 
ATOM     30  C   UNL     1      53.593   5.525   8.572  0.00  0.00    +0.000 A 
ATOM     31  O   UNL     1      53.454   5.453   9.788  0.00  0.00    +0.000 OA
ATOM     32  C   UNL     1      53.541   6.764   7.820  0.00  0.00    +0.000 A 
ATOM     33  H   UNL     1      53.871   3.528   8.308  0.00  0.00    +0.000 HD
ENDBRANCH  20  23
ENDBRANCH  18  19
ENDBRANCH   4  18
TORSDOF 6
ENDMDL
MODEL 9
REMARK VINA RESULT:    -6.198      2.870      3.590
REMARK INTER + INTRA:          -9.292
REMARK INTER:                  -8.526
REMARK INTRA:                  -0.766
REMARK UNBOUND:                -0.920
REMARK  Name = 
REMARK  7 active torsions:
REMARK  status: ('A' for Active; 'I' for Inactive)
REMARK    1  A    between atoms: C_1  and  N_2
REMARK    2  A    between atoms: C_4  and  C_5
REMARK    3  A    between atoms: N_7  and  C_8
REMARK    4  A    between atoms: C_8  and  C_9
REMARK    5  A    between atoms: C_12  and  C_13
REMARK    6  A    between atoms: C_13  and  N_14
REMARK    7  A    between atoms: C_15  and  C_17
REMARK                            x       y       z     vdW  Elec       q    Type
REMARK                         _______ _______ _______ _____ _____    ______ ____
ROOT
ATOM      1  C   UNL     1      45.107   6.396  11.487  0.00  0.00    +0.000 A 
ATOM      2  C   UNL     1      46.140   5.800  12.223  0.00  0.00    +0.000 A 
ATOM      3  C   UNL     1      46.947   6.568  13.071  0.00  0.00    +0.000 A 
ATOM      4  C   UNL     1      46.724   7.944  13.216  0.00  0.00    +0.000 A 
ATOM      5  C   UNL     1      45.696   8.540  12.473  0.00  0.00    +0.000 A 
ATOM      6  C   UNL     1      44.890   7.773  11.626  0.00  0.00    +0.000 A 
ENDROOT
BRANCH   1   7
ATOM      7  C   UNL     1      44.244   5.571  10.567  0.00  0.00    +0.000 C 
BRANCH   7  10
ATOM      8  C   UNL     1      44.814   3.524   9.365  0.00  0.00    +0.000 C 
ATOM      9  O   UNL     1      43.996   2.870  10.012  0.00  0.00    +0.000 OA
ATOM     10  N   UNL     1      45.016   4.866   9.574  0.00  0.00    +0.000 N 
ATOM     11  H   UNL     1      45.650   5.388   8.986  0.00  0.00    +0.000 HD
BRANCH   8  15
ATOM     12  C   UNL     1      47.619   2.542   5.338  0.00  0.00    +0.000 C 
ATOM     13  N   UNL     1      46.861   2.455   6.560  0.00  0.00    +0.000 N 
ATOM     14  C   UNL     1      46.201   3.468   7.196  0.00  0.00    +0.000 A 
ATOM     15  C   UNL     1      45.624   2.910   8.325  0.00  0.00    +0.000 A 
ATOM     16  C   UNL     1      46.012   1.548   8.257  0.00  0.00    +0.000 A 
ATOM     17  N   UNL     1      46.759   1.271   7.186  0.00  0.00    +0.000 NA
ENDBRANCH   8  15
ENDBRANCH   7  10
ENDBRANCH   1   7
BRANCH   4  18
ATOM     18  C   UNL     1      47.582   8.776  14.134  0.00  0.00    +0.000 C 
BRANCH  18  19
ATOM     19  N   UNL     1      48.982   8.475  13.978  0.00  0.00    +0.000 N 
ATOM     20  C   UNL     1      49.919   9.051  14.802  0.00  0.00    +0.000 C 
ATOM     21  O   UNL     1      49.600   9.800  15.722  0.00  0.00    +0.000 OA
ATOM     22  H   UNL     1      49.277   8.055  13.102  0.00  0.00    +0.000 HD
BRANCH  20  23
ATOM     23  C   UNL     1      51.321   8.676  14.577  0.00  0.00    +0.000 A 
ATOM     24  C   UNL     1      52.050   9.310  13.580  0.00  0.00    +0.000 A 
ATOM     25  S   UNL     1      53.676   8.801  13.488  0.00  0.00    +0.000 S 
ATOM     26  C   UNL     1      53.448   7.673  14.740  0.00  0.00    +0.000 A 
ATOM     27  N   UNL     1      54.467   6.871  15.151  0.00  0.00    +0.000 NA
ATOM     28  C   UNL     1      54.145   6.035  16.081  0.00  0.00    +0.000 A 
ATOM     29  N   UNL     1      52.898   5.930  16.640  0.00  0.00    +0.000 N 
ATOM     30  C   UNL     1      51.849   6.741  16.281  0.00  0.00    +0.000 A 
ATOM     31  O   UNL     1      50.755   6.653  16.831  0.00  0.00    +0.000 OA
ATOM     32  C   UNL     1      52.154   7.693  15.230  0.00  0.00    +0.000 A 
ATOM     33  H   UNL     1      52.713   5.257  17.368  0.00  0.00    +0.000 HD
ENDBRANCH  20  23
ENDBRANCH  18  19
ENDBRANCH   4  18
TORSDOF 6
ENDMDL
