MODEL 1
REMARK VINA RESULT:    -8.656      0.000      0.000
REMARK INTER + INTRA:         -12.252
REMARK INTER:                 -11.692
REMARK INTRA:                  -0.560
REMARK UNBOUND:                -0.560
REMARK  Name = 
REMARK  7 active torsions:
REMARK  status: ('A' for Active; 'I' for Inactive)
REMARK    1  A    between atoms: C_1  and  C_2
REMARK    2  A    between atoms: C_2  and  N_3
REMARK    3  A    between atoms: C_2  and  C_16
REMARK    4  A    between atoms: C_4  and  C_6
REMARK    5  A    between atoms: C_19  and  O_20
REMARK    6  A    between atoms: O_20  and  C_21
REMARK    7  A    between atoms: C_21  and  C_22
REMARK                            x       y       z     vdW  Elec       q    Type
REMARK                         _______ _______ _______ _____ _____    ______ ____
ROOT
ATOM      1  C   UNL     1      47.655   8.773  12.183  0.00  0.00    +0.000 C 
ATOM      2  C   UNL     1      46.615   8.016  13.016  0.00  0.00    +0.000 C 
ENDROOT
BRANCH   2   3
ATOM      3  C   UNL     1      46.001   6.836  12.283  0.00  0.00    +0.000 A 
ATOM      4  C   UNL     1      46.306   6.623  10.929  0.00  0.00    +0.000 A 
ATOM      5  C   UNL     1      45.789   5.516  10.249  0.00  0.00    +0.000 A 
ATOM      6  C   UNL     1      44.963   4.609  10.911  0.00  0.00    +0.000 A 
ATOM      7  C   UNL     1      44.577   4.868  12.225  0.00  0.00    +0.000 A 
ATOM      8  C   UNL     1      45.091   5.971  12.905  0.00  0.00    +0.000 A 
BRANCH   6   9
ATOM      9  O   UNL     1      44.595   3.501  10.197  0.00  0.00    +0.000 OA
BRANCH   9  10
ATOM     10  C   UNL     1      44.520   3.709   8.783  0.00  0.00    +0.000 C 
BRANCH  10  11
ATOM     11  C   UNL     1      45.567   2.890   8.065  0.00  0.00    +0.000 A 
ATOM     12  C   UNL     1      46.408   3.495   7.133  0.00  0.00    +0.000 A 
ATOM     13  C   UNL     1      47.419   2.739   6.550  0.00  0.00    +0.000 A 
ATOM     14  C   UNL     1      47.563   1.405   6.910  0.00  0.00    +0.000 A 
ATOM     15  C   UNL     1      46.688   0.881   7.846  0.00  0.00    +0.000 A 
ATOM     16  N   UNL     1      45.703   1.591   8.435  0.00  0.00    +0.000 NA
ENDBRANCH  10  11
ENDBRANCH   9  10
ENDBRANCH   6   9
ENDBRANCH   2   3
BRANCH   2  17
ATOM     17  N   UNL     1      47.198   7.538  14.250  0.00  0.00    +0.000 N 
ATOM     18  C   UNL     1      48.251   6.666  14.285  0.00  0.00    +0.000 C 
ATOM     19  O   UNL     1      48.824   6.271  13.274  0.00  0.00    +0.000 OA
ATOM     20  H   UNL     1      46.663   7.707  15.093  0.00  0.00    +0.000 HD
BRANCH  18  21
ATOM     21  C   UNL     1      48.709   6.283  15.629  0.00  0.00    +0.000 A 
ATOM     22  C   UNL     1      49.633   7.073  16.296  0.00  0.00    +0.000 A 
ATOM     23  S   UNL     1      49.998   6.511  17.864  0.00  0.00    +0.000 S 
ATOM     24  C   UNL     1      48.972   5.165  17.682  0.00  0.00    +0.000 A 
ATOM     25  N   UNL     1      48.833   4.248  18.676  0.00  0.00    +0.000 NA
ATOM     26  C   UNL     1      48.055   3.260  18.387  0.00  0.00    +0.000 A 
ATOM     27  N   UNL     1      47.400   3.105  17.192  0.00  0.00    +0.000 N 
ATOM     28  C   UNL     1      47.473   4.027  16.175  0.00  0.00    +0.000 A 
ATOM     29  O   UNL     1      46.819   3.895  15.145  0.00  0.00    +0.000 OA
ATOM     30  C   UNL     1      48.349   5.151  16.446  0.00  0.00    +0.000 A 
ATOM     31  H   UNL     1      46.796   2.312  17.033  0.00  0.00    +0.000 HD
ENDBRANCH  18  21
ENDBRANCH   2  17
TORSDOF 6
ENDMDL
MODEL 2
REMARK VINA RESULT:    -7.946      1.849      2.348
REMARK INTER + INTRA:         -11.293
REMARK INTER:                 -10.319
REMARK INTRA:                  -0.974
REMARK UNBOUND:                -0.560
REMARK  Name = 
REMARK  7 active torsions:
REMARK  status: ('A' for Active; 'I' for Inactive)
REMARK    1  A    between atoms: C_1  and  C_2
REMARK    2  A    between atoms: C_2  and  N_3
REMARK    3  A    between atoms: C_2  and  C_16
REMARK    4  A    between atoms: C_4  and  C_6
REMARK    5  A    between atoms: C_19  and  O_20
REMARK    6  A    between atoms: O_20  and  C_21
REMARK    7  A    between atoms: C_21  and  C_22
REMARK                            x       y       z     vdW  Elec       q    Type
REMARK                         _______ _______ _______ _____ _____    ______ ____
ROOT
ATOM      1  C   UNL     1      49.606   7.515  13.164  0.00  0.00    +0.000 C 
ATOM      2  C   UNL     1      48.164   7.657  13.665  0.00  0.00    +0.000 C 
ENDROOT
BRANCH   2   3
ATOM      3  C   UNL     1      47.189   6.735  12.955  0.00  0.00    +0.000 A 
ATOM      4  C   UNL     1      46.936   5.455  13.474  0.00  0.00    +0.000 A 
ATOM      5  C   UNL     1      46.006   4.609  12.862  0.00  0.00    +0.000 A 
ATOM      6  C   UNL     1      45.317   5.031  11.725  0.00  0.00    +0.000 A 
ATOM      7  C   UNL     1      45.634   6.258  11.148  0.00  0.00    +0.000 A 
ATOM      8  C   UNL     1      46.562   7.103  11.757  0.00  0.00    +0.000 A 
BRANCH   6   9
ATOM      9  O   UNL     1      44.350   4.181  11.261  0.00  0.00    +0.000 OA
BRANCH   9  10
ATOM     10  C   UNL     1      44.043   4.341   9.871  0.00  0.00    +0.000 C 
BRANCH  10  11
ATOM     11  C   UNL     1      45.040   3.597   9.014  0.00  0.00    +0.000 A 
ATOM     12  C   UNL     1      45.188   2.219   9.153  0.00  0.00    +0.000 A 
ATOM     13  C   UNL     1      46.049   1.546   8.293  0.00  0.00    +0.000 A 
ATOM     14  C   UNL     1      46.738   2.262   7.322  0.00  0.00    +0.000 A 
ATOM     15  C   UNL     1      46.532   3.630   7.249  0.00  0.00    +0.000 A 
ATOM     16  N   UNL     1      45.698   4.310   8.064  0.00  0.00    +0.000 NA
ENDBRANCH  10  11
ENDBRANCH   9  10
ENDBRANCH   6   9
ENDBRANCH   2   3
BRANCH   2  17
ATOM     17  N   UNL     1      48.089   7.400  15.086  0.00  0.00    +0.000 N 
ATOM     18  C   UNL     1      48.580   8.265  16.024  0.00  0.00    +0.000 C 
ATOM     19  O   UNL     1      49.062   9.356  15.737  0.00  0.00    +0.000 OA
ATOM     20  H   UNL     1      47.850   6.454  15.357  0.00  0.00    +0.000 HD
BRANCH  18  21
ATOM     21  C   UNL     1      48.423   7.837  17.422  0.00  0.00    +0.000 A 
ATOM     22  C   UNL     1      48.041   8.755  18.388  0.00  0.00    +0.000 A 
ATOM     23  S   UNL     1      47.847   8.067  19.937  0.00  0.00    +0.000 S 
ATOM     24  C   UNL     1      48.319   6.531  19.376  0.00  0.00    +0.000 A 
ATOM     25  N   UNL     1      48.385   5.466  20.218  0.00  0.00    +0.000 NA
ATOM     26  C   UNL     1      48.795   4.373  19.667  0.00  0.00    +0.000 A 
ATOM     27  N   UNL     1      49.145   4.248  18.347  0.00  0.00    +0.000 N 
ATOM     28  C   UNL     1      49.051   5.283  17.447  0.00  0.00    +0.000 A 
ATOM     29  O   UNL     1      49.303   5.120  16.257  0.00  0.00    +0.000 OA
ATOM     30  C   UNL     1      48.608   6.539  18.023  0.00  0.00    +0.000 A 
ATOM     31  H   UNL     1      49.448   3.360  17.975  0.00  0.00    +0.000 HD
ENDBRANCH  18  21
ENDBRANCH   2  17
TORSDOF 6
ENDMDL
MODEL 3
REMARK VINA RESULT:    -7.858      2.634      3.472
REMARK INTER + INTRA:         -11.175
REMARK INTER:                  -9.965
REMARK INTRA:                  -1.210
REMARK UNBOUND:                -0.560
REMARK  Name = 
REMARK  7 active torsions:
REMARK  status: ('A' for Active; 'I' for Inactive)
REMARK    1  A    between atoms: C_1  and  C_2
REMARK    2  A    between atoms: C_2  and  N_3
REMARK    3  A    between atoms: C_2  and  C_16
REMARK    4  A    between atoms: C_4  and  C_6
REMARK    5  A    between atoms: C_19  and  O_20
REMARK    6  A    between atoms: O_20  and  C_21
REMARK    7  A    between atoms: C_21  and  C_22
REMARK                            x       y       z     vdW  Elec       q    Type
REMARK                         _______ _______ _______ _____ _____    ______ ____
ROOT
ATOM      1  C   UNL     1      47.461   3.809  16.201  0.00  0.00    +0.000 C 
ATOM      2  C   UNL     1      47.841   4.824  15.116  0.00  0.00    +0.000 C 
ENDROOT
BRANCH   2   3
ATOM      3  C   UNL     1      46.902   4.807  13.923  0.00  0.00    +0.000 A 
ATOM      4  C   UNL     1      46.689   5.984  13.188  0.00  0.00    +0.000 A 
ATOM      5  C   UNL     1      45.865   5.978  12.059  0.00  0.00    +0.000 A 
ATOM      6  C   UNL     1      45.245   4.799  11.649  0.00  0.00    +0.000 A 
ATOM      7  C   UNL     1      45.373   3.651  12.429  0.00  0.00    +0.000 A 
ATOM      8  C   UNL     1      46.194   3.655  13.556  0.00  0.00    +0.000 A 
BRANCH   6   9
ATOM      9  O   UNL     1      44.548   4.864  10.473  0.00  0.00    +0.000 OA
BRANCH   9  10
ATOM     10  C   UNL     1      44.156   3.591   9.949  0.00  0.00    +0.000 C 
BRANCH  10  11
ATOM     11  C   UNL     1      45.125   3.128   8.887  0.00  0.00    +0.000 A 
ATOM     12  C   UNL     1      45.697   4.052   8.013  0.00  0.00    +0.000 A 
ATOM     13  C   UNL     1      46.650   3.612   7.102  0.00  0.00    +0.000 A 
ATOM     14  C   UNL     1      47.006   2.270   7.084  0.00  0.00    +0.000 A 
ATOM     15  C   UNL     1      46.393   1.418   7.987  0.00  0.00    +0.000 A 
ATOM     16  N   UNL     1      45.470   1.815   8.888  0.00  0.00    +0.000 NA
ENDBRANCH  10  11
ENDBRANCH   9  10
ENDBRANCH   6   9
ENDBRANCH   2   3
BRANCH   2  17
ATOM     17  N   UNL     1      47.874   6.163  15.659  0.00  0.00    +0.000 N 
ATOM     18  C   UNL     1      49.031   6.786  16.034  0.00  0.00    +0.000 C 
ATOM     19  O   UNL     1      50.140   6.281  15.880  0.00  0.00    +0.000 OA
ATOM     20  H   UNL     1      46.984   6.549  15.951  0.00  0.00    +0.000 HD
BRANCH  18  21
ATOM     21  C   UNL     1      48.873   8.145  16.572  0.00  0.00    +0.000 A 
ATOM     22  C   UNL     1      49.359   9.232  15.861  0.00  0.00    +0.000 A 
ATOM     23  S   UNL     1      49.028  10.730  16.605  0.00  0.00    +0.000 S 
ATOM     24  C   UNL     1      48.271   9.972  17.927  0.00  0.00    +0.000 A 
ATOM     25  N   UNL     1      47.763  10.699  18.958  0.00  0.00    +0.000 NA
ATOM     26  C   UNL     1      47.254   9.992  19.910  0.00  0.00    +0.000 A 
ATOM     27  N   UNL     1      47.203   8.623  19.925  0.00  0.00    +0.000 N 
ATOM     28  C   UNL     1      47.662   7.846  18.887  0.00  0.00    +0.000 A 
ATOM     29  O   UNL     1      47.537   6.625  18.900  0.00  0.00    +0.000 OA
ATOM     30  C   UNL     1      48.259   8.594  17.797  0.00  0.00    +0.000 A 
ATOM     31  H   UNL     1      46.780   8.129  20.698  0.00  0.00    +0.000 HD
ENDBRANCH  18  21
ENDBRANCH   2  17
TORSDOF 6
ENDMDL
MODEL 4
REMARK VINA RESULT:    -7.645      2.489      3.087
REMARK INTER + INTRA:         -10.887
REMARK INTER:                  -9.903
REMARK INTRA:                  -0.985
REMARK UNBOUND:                -0.560
REMARK  Name = 
REMARK  7 active torsions:
REMARK  status: ('A' for Active; 'I' for Inactive)
REMARK    1  A    between atoms: C_1  and  C_2
REMARK    2  A    between atoms: C_2  and  N_3
REMARK    3  A    between atoms: C_2  and  C_16
REMARK    4  A    between atoms: C_4  and  C_6
REMARK    5  A    between atoms: C_19  and  O_20
REMARK    6  A    between atoms: O_20  and  C_21
REMARK    7  A    between atoms: C_21  and  C_22
REMARK                            x       y       z     vdW  Elec       q    Type
REMARK                         _______ _______ _______ _____ _____    ______ ____
ROOT
ATOM      1  C   UNL     1      49.372   8.458  14.389  0.00  0.00    +0.000 C 
ATOM      2  C   UNL     1      48.763   7.270  15.143  0.00  0.00    +0.000 C 
ENDROOT
BRANCH   2   3
ATOM      3  C   UNL     1      47.852   6.415  14.281  0.00  0.00    +0.000 A 
ATOM      4  C   UNL     1      47.504   5.123  14.703  0.00  0.00    +0.000 A 
ATOM      5  C   UNL     1      46.628   4.338  13.947  0.00  0.00    +0.000 A 
ATOM      6  C   UNL     1      46.089   4.833  12.761  0.00  0.00    +0.000 A 
ATOM      7  C   UNL     1      46.507   6.075  12.285  0.00  0.00    +0.000 A 
ATOM      8  C   UNL     1      47.380   6.859  13.038  0.00  0.00    +0.000 A 
BRANCH   6   9
ATOM      9  O   UNL     1      45.159   4.039  12.146  0.00  0.00    +0.000 OA
BRANCH   9  10
ATOM     10  C   UNL     1      44.607   4.598  10.949  0.00  0.00    +0.000 C 
BRANCH  10  11
ATOM     11  C   UNL     1      45.126   3.873   9.730  0.00  0.00    +0.000 A 
ATOM     12  C   UNL     1      45.718   4.590   8.692  0.00  0.00    +0.000 A 
ATOM     13  C   UNL     1      46.266   3.892   7.621  0.00  0.00    +0.000 A 
ATOM     14  C   UNL     1      46.207   2.504   7.613  0.00  0.00    +0.000 A 
ATOM     15  C   UNL     1      45.604   1.868   8.685  0.00  0.00    +0.000 A 
ATOM     16  N   UNL     1      45.071   2.517   9.741  0.00  0.00    +0.000 NA
ENDBRANCH  10  11
ENDBRANCH   9  10
ENDBRANCH   6   9
ENDBRANCH   2   3
BRANCH   2  17
ATOM     17  N   UNL     1      49.801   6.428  15.693  0.00  0.00    +0.000 N 
ATOM     18  C   UNL     1      49.799   5.998  16.991  0.00  0.00    +0.000 C 
ATOM     19  O   UNL     1      48.884   6.240  17.772  0.00  0.00    +0.000 OA
ATOM     20  H   UNL     1      50.645   6.339  15.140  0.00  0.00    +0.000 HD
BRANCH  18  21
ATOM     21  C   UNL     1      50.939   5.154  17.378  0.00  0.00    +0.000 A 
ATOM     22  C   UNL     1      52.126   5.740  17.791  0.00  0.00    +0.000 A 
ATOM     23  S   UNL     1      53.312   4.610  18.263  0.00  0.00    +0.000 S 
ATOM     24  C   UNL     1      52.296   3.299  17.882  0.00  0.00    +0.000 A 
ATOM     25  N   UNL     1      52.715   2.015  18.041  0.00  0.00    +0.000 NA
ATOM     26  C   UNL     1      51.857   1.123  17.675  0.00  0.00    +0.000 A 
ATOM     27  N   UNL     1      50.614   1.398  17.165  0.00  0.00    +0.000 N 
ATOM     28  C   UNL     1      50.129   2.677  17.028  0.00  0.00    +0.000 A 
ATOM     29  O   UNL     1      48.985   2.887  16.636  0.00  0.00    +0.000 OA
ATOM     30  C   UNL     1      51.063   3.717  17.413  0.00  0.00    +0.000 A 
ATOM     31  H   UNL     1      49.985   0.652  16.908  0.00  0.00    +0.000 HD
ENDBRANCH  18  21
ENDBRANCH   2  17
TORSDOF 6
ENDMDL
MODEL 5
REMARK VINA RESULT:    -7.443      3.221      4.261
REMARK INTER + INTRA:         -10.615
REMARK INTER:                  -9.906
REMARK INTRA:                  -0.709
REMARK UNBOUND:                -0.560
REMARK  Name = 
REMARK  7 active torsions:
REMARK  status: ('A' for Active; 'I' for Inactive)
REMARK    1  A    between atoms: C_1  and  C_2
REMARK    2  A    between atoms: C_2  and  N_3
REMARK    3  A    between atoms: C_2  and  C_16
REMARK    4  A    between atoms: C_4  and  C_6
REMARK    5  A    between atoms: C_19  and  O_20
REMARK    6  A    between atoms: O_20  and  C_21
REMARK    7  A    between atoms: C_21  and  C_22
REMARK                            x       y       z     vdW  Elec       q    Type
REMARK                         _______ _______ _______ _____ _____    ______ ____
ROOT
ATOM      1  C   UNL     1      45.467   8.876  13.012  0.00  0.00    +0.000 C 
ATOM      2  C   UNL     1      46.326   7.606  12.985  0.00  0.00    +0.000 C 
ENDROOT
BRANCH   2   3
ATOM      3  C   UNL     1      45.794   6.542  12.042  0.00  0.00    +0.000 A 
ATOM      4  C   UNL     1      44.816   5.640  12.490  0.00  0.00    +0.000 A 
ATOM      5  C   UNL     1      44.279   4.683  11.623  0.00  0.00    +0.000 A 
ATOM      6  C   UNL     1      44.712   4.615  10.299  0.00  0.00    +0.000 A 
ATOM      7  C   UNL     1      45.752   5.440   9.875  0.00  0.00    +0.000 A 
ATOM      8  C   UNL     1      46.288   6.395  10.739  0.00  0.00    +0.000 A 
BRANCH   6   9
ATOM      9  O   UNL     1      44.053   3.722   9.498  0.00  0.00    +0.000 OA
BRANCH   9  10
ATOM     10  C   UNL     1      44.622   2.409   9.489  0.00  0.00    +0.000 C 
BRANCH  10  11
ATOM     11  C   UNL     1      45.557   2.238   8.314  0.00  0.00    +0.000 A 
ATOM     12  C   UNL     1      45.637   3.227   7.337  0.00  0.00    +0.000 A 
ATOM     13  C   UNL     1      46.567   3.086   6.313  0.00  0.00    +0.000 A 
ATOM     14  C   UNL     1      47.387   1.965   6.289  0.00  0.00    +0.000 A 
ATOM     15  C   UNL     1      47.246   1.029   7.301  0.00  0.00    +0.000 A 
ATOM     16  N   UNL     1      46.359   1.142   8.311  0.00  0.00    +0.000 NA
ENDBRANCH  10  11
ENDBRANCH   9  10
ENDBRANCH   6   9
ENDBRANCH   2   3
BRANCH   2  17
ATOM     17  N   UNL     1      47.686   7.918  12.608  0.00  0.00    +0.000 N 
ATOM     18  C   UNL     1      48.772   7.320  13.182  0.00  0.00    +0.000 C 
ATOM     19  O   UNL     1      48.677   6.424  14.016  0.00  0.00    +0.000 OA
ATOM     20  H   UNL     1      47.815   8.753  12.049  0.00  0.00    +0.000 HD
BRANCH  18  21
ATOM     21  C   UNL     1      50.080   7.766  12.679  0.00  0.00    +0.000 A 
ATOM     22  C   UNL     1      50.404   7.589  11.343  0.00  0.00    +0.000 A 
ATOM     23  S   UNL     1      51.931   8.225  10.926  0.00  0.00    +0.000 S 
ATOM     24  C   UNL     1      52.229   8.711  12.530  0.00  0.00    +0.000 A 
ATOM     25  N   UNL     1      53.395   9.320  12.873  0.00  0.00    +0.000 NA
ATOM     26  C   UNL     1      53.503   9.598  14.129  0.00  0.00    +0.000 A 
ATOM     27  N   UNL     1      52.549   9.322  15.075  0.00  0.00    +0.000 N 
ATOM     28  C   UNL     1      51.338   8.749  14.769  0.00  0.00    +0.000 A 
ATOM     29  O   UNL     1      50.476   8.580  15.627  0.00  0.00    +0.000 OA
ATOM     30  C   UNL     1      51.174   8.404  13.369  0.00  0.00    +0.000 A 
ATOM     31  H   UNL     1      52.692   9.575  16.042  0.00  0.00    +0.000 HD
ENDBRANCH  18  21
ENDBRANCH   2  17
TORSDOF 6
ENDMDL
MODEL 6
REMARK VINA RESULT:    -7.431      1.823      2.243
REMARK INTER + INTRA:         -10.597
REMARK INTER:                  -9.397
REMARK INTRA:                  -1.200
REMARK UNBOUND:                -0.560
REMARK  Name = 
REMARK  7 active torsions:
REMARK  status: ('A' for Active; 'I' for Inactive)
REMARK    1  A    between atoms: C_1  and  C_2
REMARK    2  A    between atoms: C_2  and  N_3
REMARK    3  A    between atoms: C_2  and  C_16
REMARK    4  A    between atoms: C_4  and  C_6
REMARK    5  A    between atoms: C_19  and  O_20
REMARK    6  A    between atoms: O_20  and  C_21
REMARK    7  A    between atoms: C_21  and  C_22
REMARK                            x       y       z     vdW  Elec       q    Type
REMARK                         _______ _______ _______ _____ _____    ______ ____
ROOT
ATOM      1  C   UNL     1      48.618   8.770  12.007  0.00  0.00    +0.000 C 
ATOM      2  C   UNL     1      47.973   8.016  13.176  0.00  0.00    +0.000 C 
ENDROOT
BRANCH   2   3
ATOM      3  C   UNL     1      46.978   6.959  12.732  0.00  0.00    +0.000 A 
ATOM      4  C   UNL     1      47.163   5.622  13.118  0.00  0.00    +0.000 A 
ATOM      5  C   UNL     1      46.232   4.642  12.760  0.00  0.00    +0.000 A 
ATOM      6  C   UNL     1      45.106   4.985  12.013  0.00  0.00    +0.000 A 
ATOM      7  C   UNL     1      44.966   6.289  11.543  0.00  0.00    +0.000 A 
ATOM      8  C   UNL     1      45.894   7.268  11.900  0.00  0.00    +0.000 A 
BRANCH   6   9
ATOM      9  O   UNL     1      44.197   3.983  11.804  0.00  0.00    +0.000 OA
BRANCH   9  10
ATOM     10  C   UNL     1      43.583   4.006  10.511  0.00  0.00    +0.000 C 
BRANCH  10  11
ATOM     11  C   UNL     1      44.512   3.433   9.466  0.00  0.00    +0.000 A 
ATOM     12  C   UNL     1      45.187   4.282   8.592  0.00  0.00    +0.000 A 
ATOM     13  C   UNL     1      46.102   3.735   7.698  0.00  0.00    +0.000 A 
ATOM     14  C   UNL     1      46.315   2.363   7.698  0.00  0.00    +0.000 A 
ATOM     15  C   UNL     1      45.605   1.590   8.601  0.00  0.00    +0.000 A 
ATOM     16  N   UNL     1      44.718   2.091   9.486  0.00  0.00    +0.000 NA
ENDBRANCH  10  11
ENDBRANCH   9  10
ENDBRANCH   6   9
ENDBRANCH   2   3
BRANCH   2  17
ATOM     17  N   UNL     1      48.982   7.384  13.995  0.00  0.00    +0.000 N 
ATOM     18  C   UNL     1      49.709   8.061  14.935  0.00  0.00    +0.000 C 
ATOM     19  O   UNL     1      49.515   9.243  15.202  0.00  0.00    +0.000 OA
ATOM     20  H   UNL     1      49.284   6.463  13.701  0.00  0.00    +0.000 HD
BRANCH  18  21
ATOM     21  C   UNL     1      50.697   7.258  15.669  0.00  0.00    +0.000 A 
ATOM     22  C   UNL     1      52.048   7.551  15.556  0.00  0.00    +0.000 A 
ATOM     23  S   UNL     1      53.040   6.559  16.527  0.00  0.00    +0.000 S 
ATOM     24  C   UNL     1      51.700   5.672  17.089  0.00  0.00    +0.000 A 
ATOM     25  N   UNL     1      51.857   4.639  17.959  0.00  0.00    +0.000 NA
ATOM     26  C   UNL     1      50.761   4.031  18.269  0.00  0.00    +0.000 A 
ATOM     27  N   UNL     1      49.520   4.363  17.789  0.00  0.00    +0.000 N 
ATOM     28  C   UNL     1      49.306   5.426  16.944  0.00  0.00    +0.000 A 
ATOM     29  O   UNL     1      48.174   5.742  16.589  0.00  0.00    +0.000 OA
ATOM     30  C   UNL     1      50.511   6.134  16.553  0.00  0.00    +0.000 A 
ATOM     31  H   UNL     1      48.700   3.852  18.080  0.00  0.00    +0.000 HD
ENDBRANCH  18  21
ENDBRANCH   2  17
TORSDOF 6
ENDMDL
MODEL 7
REMARK VINA RESULT:    -7.392      2.011      2.483
REMARK INTER + INTRA:         -10.545
REMARK INTER:                 -10.230
REMARK INTRA:                  -0.315
REMARK UNBOUND:                -0.560
REMARK  Name = 
REMARK  7 active torsions:
REMARK  status: ('A' for Active; 'I' for Inactive)
REMARK    1  A    between atoms: C_1  and  C_2
REMARK    2  A    between atoms: C_2  and  N_3
REMARK    3  A    between atoms: C_2  and  C_16
REMARK    4  A    between atoms: C_4  and  C_6
REMARK    5  A    between atoms: C_19  and  O_20
REMARK    6  A    between atoms: O_20  and  C_21
REMARK    7  A    between atoms: C_21  and  C_22
REMARK                            x       y       z     vdW  Elec       q    Type
REMARK                         _______ _______ _______ _____ _____    ______ ____
ROOT
ATOM      1  C   UNL     1      49.081   7.248  13.108  0.00  0.00    +0.000 C 
ATOM      2  C   UNL     1      47.690   7.042  13.719  0.00  0.00    +0.000 C 
ENDROOT
BRANCH   2   3
ATOM      3  C   UNL     1      46.738   6.291  12.805  0.00  0.00    +0.000 A 
ATOM      4  C   UNL     1      46.596   6.691  11.467  0.00  0.00    +0.000 A 
ATOM      5  C   UNL     1      45.761   5.984  10.597  0.00  0.00    +0.000 A 
ATOM      6  C   UNL     1      45.058   4.869  11.052  0.00  0.00    +0.000 A 
ATOM      7  C   UNL     1      45.116   4.526  12.401  0.00  0.00    +0.000 A 
ATOM      8  C   UNL     1      45.949   5.230  13.270  0.00  0.00    +0.000 A 
BRANCH   6   9
ATOM      9  O   UNL     1      44.353   4.177  10.105  0.00  0.00    +0.000 OA
BRANCH   9  10
ATOM     10  C   UNL     1      44.765   2.816   9.942  0.00  0.00    +0.000 C 
BRANCH  10  11
ATOM     11  C   UNL     1      45.582   2.650   8.682  0.00  0.00    +0.000 A 
ATOM     12  C   UNL     1      46.196   1.431   8.404  0.00  0.00    +0.000 A 
ATOM     13  C   UNL     1      46.870   1.278   7.197  0.00  0.00    +0.000 A 
ATOM     14  C   UNL     1      46.916   2.342   6.305  0.00  0.00    +0.000 A 
ATOM     15  C   UNL     1      46.277   3.519   6.657  0.00  0.00    +0.000 A 
ATOM     16  N   UNL     1      45.609   3.695   7.816  0.00  0.00    +0.000 NA
ENDBRANCH  10  11
ENDBRANCH   9  10
ENDBRANCH   6   9
ENDBRANCH   2   3
BRANCH   2  17
ATOM     17  N   UNL     1      47.784   6.328  14.973  0.00  0.00    +0.000 N 
ATOM     18  C   UNL     1      48.733   6.606  15.917  0.00  0.00    +0.000 C 
ATOM     19  O   UNL     1      49.538   7.525  15.802  0.00  0.00    +0.000 OA
ATOM     20  H   UNL     1      47.253   5.468  15.039  0.00  0.00    +0.000 HD
BRANCH  18  21
ATOM     21  C   UNL     1      48.683   5.773  17.128  0.00  0.00    +0.000 A 
ATOM     22  C   UNL     1      49.083   4.447  17.072  0.00  0.00    +0.000 A 
ATOM     23  S   UNL     1      49.019   3.656  18.582  0.00  0.00    +0.000 S 
ATOM     24  C   UNL     1      48.405   5.047  19.348  0.00  0.00    +0.000 A 
ATOM     25  N   UNL     1      48.107   5.045  20.675  0.00  0.00    +0.000 NA
ATOM     26  C   UNL     1      47.613   6.154  21.113  0.00  0.00    +0.000 A 
ATOM     27  N   UNL     1      47.390   7.267  20.345  0.00  0.00    +0.000 N 
ATOM     28  C   UNL     1      47.717   7.333  19.011  0.00  0.00    +0.000 A 
ATOM     29  O   UNL     1      47.571   8.368  18.368  0.00  0.00    +0.000 OA
ATOM     30  C   UNL     1      48.263   6.104  18.467  0.00  0.00    +0.000 A 
ATOM     31  H   UNL     1      47.010   8.109  20.753  0.00  0.00    +0.000 HD
ENDBRANCH  18  21
ENDBRANCH   2  17
TORSDOF 6
ENDMDL
MODEL 8
REMARK VINA RESULT:    -7.288      2.547      3.445
REMARK INTER + INTRA:         -10.405
REMARK INTER:                  -9.092
REMARK INTRA:                  -1.313
REMARK UNBOUND:                -0.560
REMARK  Name = 
REMARK  7 active torsions:
REMARK  status: ('A' for Active; 'I' for Inactive)
REMARK    1  A    between atoms: C_1  and  C_2
REMARK    2  A    between atoms: C_2  and  N_3
REMARK    3  A    between atoms: C_2  and  C_16
REMARK    4  A    between atoms: C_4  and  C_6
REMARK    5  A    between atoms: C_19  and  O_20
REMARK    6  A    between atoms: O_20  and  C_21
REMARK    7  A    between atoms: C_21  and  C_22
REMARK                            x       y       z     vdW  Elec       q    Type
REMARK                         _______ _______ _______ _____ _____    ______ ____
ROOT
ATOM      1  C   UNL     1      49.419   7.738  11.722  0.00  0.00    +0.000 C 
ATOM      2  C   UNL     1      48.613   7.576  13.016  0.00  0.00    +0.000 C 
ENDROOT
BRANCH   2   3
ATOM      3  C   UNL     1      47.332   6.783  12.831  0.00  0.00    +0.000 A 
ATOM      4  C   UNL     1      46.194   7.412  12.301  0.00  0.00    +0.000 A 
ATOM      5  C   UNL     1      45.019   6.687  12.078  0.00  0.00    +0.000 A 
ATOM      6  C   UNL     1      44.966   5.327  12.380  0.00  0.00    +0.000 A 
ATOM      7  C   UNL     1      46.058   4.720  12.999  0.00  0.00    +0.000 A 
ATOM      8  C   UNL     1      47.230   5.441  13.221  0.00  0.00    +0.000 A 
BRANCH   6   9
ATOM      9  O   UNL     1      43.814   4.678  12.028  0.00  0.00    +0.000 OA
BRANCH   9  10
ATOM     10  C   UNL     1      43.416   4.882  10.668  0.00  0.00    +0.000 C 
BRANCH  10  11
ATOM     11  C   UNL     1      44.212   3.997   9.738  0.00  0.00    +0.000 A 
ATOM     12  C   UNL     1      45.100   4.563   8.826  0.00  0.00    +0.000 A 
ATOM     13  C   UNL     1      45.883   3.723   8.042  0.00  0.00    +0.000 A 
ATOM     14  C   UNL     1      45.759   2.347   8.185  0.00  0.00    +0.000 A 
ATOM     15  C   UNL     1      44.854   1.866   9.117  0.00  0.00    +0.000 A 
ATOM     16  N   UNL     1      44.087   2.655   9.898  0.00  0.00    +0.000 NA
ENDBRANCH  10  11
ENDBRANCH   9  10
ENDBRANCH   6   9
ENDBRANCH   2   3
BRANCH   2  17
ATOM     17  N   UNL     1      49.409   6.934  14.037  0.00  0.00    +0.000 N 
ATOM     18  C   UNL     1      49.357   7.291  15.356  0.00  0.00    +0.000 C 
ATOM     19  O   UNL     1      48.582   8.141  15.786  0.00  0.00    +0.000 OA
ATOM     20  H   UNL     1      50.168   6.348  13.710  0.00  0.00    +0.000 HD
BRANCH  18  21
ATOM     21  C   UNL     1      50.242   6.533  16.252  0.00  0.00    +0.000 A 
ATOM     22  C   UNL     1      49.700   5.699  17.218  0.00  0.00    +0.000 A 
ATOM     23  S   UNL     1      50.874   4.853  18.120  0.00  0.00    +0.000 S 
ATOM     24  C   UNL     1      52.147   5.614  17.283  0.00  0.00    +0.000 A 
ATOM     25  N   UNL     1      53.445   5.344  17.583  0.00  0.00    +0.000 NA
ATOM     26  C   UNL     1      54.304   6.022  16.898  0.00  0.00    +0.000 A 
ATOM     27  N   UNL     1      53.982   6.945  15.937  0.00  0.00    +0.000 N 
ATOM     28  C   UNL     1      52.687   7.218  15.567  0.00  0.00    +0.000 A 
ATOM     29  O   UNL     1      52.435   7.998  14.653  0.00  0.00    +0.000 OA
ATOM     30  C   UNL     1      51.682   6.492  16.320  0.00  0.00    +0.000 A 
ATOM     31  H   UNL     1      54.704   7.434  15.428  0.00  0.00    +0.000 HD
ENDBRANCH  18  21
ENDBRANCH   2  17
TORSDOF 6
ENDMDL
MODEL 9
REMARK VINA RESULT:    -6.608      2.716      4.369
REMARK INTER + INTRA:          -9.486
REMARK INTER:                  -8.746
REMARK INTRA:                  -0.739
REMARK UNBOUND:                -0.560
REMARK  Name = 
REMARK  7 active torsions:
REMARK  status: ('A' for Active; 'I' for Inactive)
REMARK    1  A    between atoms: C_1  and  C_2
REMARK    2  A    between atoms: C_2  and  N_3
REMARK    3  A    between atoms: C_2  and  C_16
REMARK    4  A    between atoms: C_4  and  C_6
REMARK    5  A    between atoms: C_19  and  O_20
REMARK    6  A    between atoms: O_20  and  C_21
REMARK    7  A    between atoms: C_21  and  C_22
REMARK                            x       y       z     vdW  Elec       q    Type
REMARK                         _______ _______ _______ _____ _____    ______ ____
ROOT
ATOM      1  C   UNL     1      47.115   4.781  16.175  0.00  0.00    +0.000 C 
ATOM      2  C   UNL     1      47.603   5.146  14.769  0.00  0.00    +0.000 C 
ENDROOT
BRANCH   2   3
ATOM      3  C   UNL     1      46.580   4.859  13.685  0.00  0.00    +0.000 A 
ATOM      4  C   UNL     1      46.523   3.583  13.102  0.00  0.00    +0.000 A 
ATOM      5  C   UNL     1      45.557   3.284  12.136  0.00  0.00    +0.000 A 
ATOM      6  C   UNL     1      44.637   4.254  11.741  0.00  0.00    +0.000 A 
ATOM      7  C   UNL     1      44.750   5.550  12.241  0.00  0.00    +0.000 A 
ATOM      8  C   UNL     1      45.713   5.849  13.205  0.00  0.00    +0.000 A 
BRANCH   6   9
ATOM      9  O   UNL     1      43.663   3.840  10.874  0.00  0.00    +0.000 OA
BRANCH   9  10
ATOM     10  C   UNL     1      43.805   4.347   9.542  0.00  0.00    +0.000 C 
BRANCH  10  11
ATOM     11  C   UNL     1      44.917   3.630   8.813  0.00  0.00    +0.000 A 
ATOM     12  C   UNL     1      45.029   2.244   8.900  0.00  0.00    +0.000 A 
ATOM     13  C   UNL     1      46.007   1.600   8.150  0.00  0.00    +0.000 A 
ATOM     14  C   UNL     1      46.846   2.353   7.339  0.00  0.00    +0.000 A 
ATOM     15  C   UNL     1      46.667   3.726   7.307  0.00  0.00    +0.000 A 
ATOM     16  N   UNL     1      45.722   4.378   8.016  0.00  0.00    +0.000 NA
ENDBRANCH  10  11
ENDBRANCH   9  10
ENDBRANCH   6   9
ENDBRANCH   2   3
BRANCH   2  17
ATOM     17  N   UNL     1      47.966   6.544  14.701  0.00  0.00    +0.000 N 
ATOM     18  C   UNL     1      48.873   7.034  13.802  0.00  0.00    +0.000 C 
ATOM     19  O   UNL     1      49.400   6.337  12.940  0.00  0.00    +0.000 OA
ATOM     20  H   UNL     1      47.683   7.118  15.486  0.00  0.00    +0.000 HD
BRANCH  18  21
ATOM     21  C   UNL     1      49.124   8.480  13.883  0.00  0.00    +0.000 A 
ATOM     22  C   UNL     1      48.169   9.375  13.426  0.00  0.00    +0.000 A 
ATOM     23  S   UNL     1      48.604  11.007  13.658  0.00  0.00    +0.000 S 
ATOM     24  C   UNL     1      50.106  10.571  14.329  0.00  0.00    +0.000 A 
ATOM     25  N   UNL     1      50.995  11.516  14.736  0.00  0.00    +0.000 NA
ATOM     26  C   UNL     1      52.108  11.043  15.187  0.00  0.00    +0.000 A 
ATOM     27  N   UNL     1      52.413   9.709  15.272  0.00  0.00    +0.000 N 
ATOM     28  C   UNL     1      51.531   8.717  14.917  0.00  0.00    +0.000 A 
ATOM     29  O   UNL     1      51.807   7.531  15.072  0.00  0.00    +0.000 OA
ATOM     30  C   UNL     1      50.268   9.198  14.388  0.00  0.00    +0.000 A 
ATOM     31  H   UNL     1      53.300   9.405  15.646  0.00  0.00    +0.000 HD
ENDBRANCH  18  21
ENDBRANCH   2  17
TORSDOF 6
ENDMDL
