MODEL 1
REMARK VINA RESULT:    -8.778      0.000      0.000
REMARK INTER + INTRA:         -12.874
REMARK INTER:                 -12.371
REMARK INTRA:                  -0.504
REMARK UNBOUND:                -0.504
REMARK  Name = 
REMARK  7 active torsions:
REMARK  status: ('A' for Active; 'I' for Inactive)
REMARK    1  A    between atoms: C_2  and  C_4
REMARK    2  A    between atoms: C_7  and  C_8
REMARK    3  A    between atoms: C_8  and  C_9
REMARK    4  A    between atoms: C_14  and  C_15
REMARK    5  A    between atoms: C_19  and  O_20
REMARK    6  A    between atoms: O_20  and  C_21
REMARK    7  A    between atoms: C_21  and  C_22
REMARK                            x       y       z     vdW  Elec       q    Type
REMARK                         _______ _______ _______ _____ _____    ______ ____
ROOT
ATOM      1  C   UNL     1      44.995   5.851  11.436  0.00  0.00    +0.000 A 
ATOM      2  C   UNL     1      44.434   7.069  11.050  0.00  0.00    +0.000 A 
ATOM      3  C   UNL     1      44.930   8.256  11.571  0.00  0.00    +0.000 A 
ATOM      4  F   UNL     1      44.349   9.416  11.236  0.00  0.00    +0.000 F 
ATOM      5  C   UNL     1      46.009   8.268  12.455  0.00  0.00    +0.000 A 
ATOM      6  C   UNL     1      46.637   7.077  12.836  0.00  0.00    +0.000 A 
ATOM      7  C   UNL     1      46.109   5.887  12.310  0.00  0.00    +0.000 A 
ENDROOT
BRANCH   6   8
ATOM      8  C   UNL     1      47.795   7.060  13.754  0.00  0.00    +0.000 A 
ATOM      9  C   UNL     1      48.831   7.991  13.646  0.00  0.00    +0.000 A 
ATOM     10  N   UNL     1      49.952   7.999  14.405  0.00  0.00    +0.000 NA
ATOM     11  C   UNL     1      50.050   7.030  15.341  0.00  0.00    +0.000 A 
ATOM     12  C   UNL     1      49.068   6.080  15.587  0.00  0.00    +0.000 A 
ATOM     13  C   UNL     1      47.933   6.097  14.774  0.00  0.00    +0.000 A 
BRANCH  12  14
ATOM     14  O   UNL     1      49.342   5.163  16.559  0.00  0.00    +0.000 OA
BRANCH  14  15
ATOM     15  C   UNL     1      48.216   4.584  17.230  0.00  0.00    +0.000 C 
BRANCH  15  16
ATOM     16  C   UNL     1      48.106   3.088  16.931  0.00  0.00    +0.000 C 
ATOM     17  F   UNL     1      49.232   2.404  17.226  0.00  0.00    +0.000 F 
ATOM     18  F   UNL     1      47.092   2.528  17.632  0.00  0.00    +0.000 F 
ATOM     19  F   UNL     1      47.840   2.885  15.618  0.00  0.00    +0.000 F 
ENDBRANCH  15  16
ENDBRANCH  14  15
ENDBRANCH  12  14
ENDBRANCH   6   8
BRANCH   1  20
ATOM     20  C   UNL     1      44.438   4.498  11.016  0.00  0.00    +0.000 C 
ATOM     21  C   UNL     1      44.094   3.635  12.237  0.00  0.00    +0.000 C 
ATOM     22  C   UNL     1      43.025   4.024  11.283  0.00  0.00    +0.000 C 
ATOM     23  F   UNL     1      42.082   4.940  11.711  0.00  0.00    +0.000 F 
BRANCH  20  27
ATOM     24  C   UNL     1      46.436   2.886   7.619  0.00  0.00    +0.000 A 
ATOM     25  C   UNL     1      45.838   2.086   8.567  0.00  0.00    +0.000 A 
ATOM     26  N   UNL     1      45.152   2.564   9.633  0.00  0.00    +0.000 NA
ATOM     27  C   UNL     1      45.074   3.912   9.760  0.00  0.00    +0.000 A 
ATOM     28  N   UNL     1      45.622   4.763   8.868  0.00  0.00    +0.000 NA
ATOM     29  C   UNL     1      46.307   4.239   7.828  0.00  0.00    +0.000 A 
BRANCH  24  31
ATOM     30  N   UNL     1      47.123   3.054   5.299  0.00  0.00    +0.000 N 
ATOM     31  C   UNL     1      47.207   2.373   6.486  0.00  0.00    +0.000 C 
ATOM     32  O   UNL     1      47.922   1.382   6.598  0.00  0.00    +0.000 OA
ATOM     33  H   UNL     1      47.738   2.735   4.564  0.00  0.00    +0.000 HD
ATOM     34  H   UNL     1      46.774   3.999   5.225  0.00  0.00    +0.000 HD
ENDBRANCH  24  31
ENDBRANCH  20  27
ENDBRANCH   1  20
TORSDOF 7
ENDMDL
MODEL 2
REMARK VINA RESULT:    -8.706      3.363      4.648
REMARK INTER + INTRA:         -12.772
REMARK INTER:                 -12.130
REMARK INTRA:                  -0.642
REMARK UNBOUND:                -0.504
REMARK  Name = 
REMARK  7 active torsions:
REMARK  status: ('A' for Active; 'I' for Inactive)
REMARK    1  A    between atoms: C_2  and  C_4
REMARK    2  A    between atoms: C_7  and  C_8
REMARK    3  A    between atoms: C_8  and  C_9
REMARK    4  A    between atoms: C_14  and  C_15
REMARK    5  A    between atoms: C_19  and  O_20
REMARK    6  A    between atoms: O_20  and  C_21
REMARK    7  A    between atoms: C_21  and  C_22
REMARK                            x       y       z     vdW  Elec       q    Type
REMARK                         _______ _______ _______ _____ _____    ______ ____
ROOT
ATOM      1  C   UNL     1      45.477   4.873  11.899  0.00  0.00    +0.000 A 
ATOM      2  C   UNL     1      45.852   4.132  13.021  0.00  0.00    +0.000 A 
ATOM      3  C   UNL     1      46.850   4.605  13.861  0.00  0.00    +0.000 A 
ATOM      4  F   UNL     1      47.239   3.860  14.904  0.00  0.00    +0.000 F 
ATOM      5  C   UNL     1      47.474   5.831  13.632  0.00  0.00    +0.000 A 
ATOM      6  C   UNL     1      47.101   6.635  12.548  0.00  0.00    +0.000 A 
ATOM      7  C   UNL     1      46.101   6.130  11.702  0.00  0.00    +0.000 A 
ENDROOT
BRANCH   6   8
ATOM      8  C   UNL     1      47.729   7.947  12.293  0.00  0.00    +0.000 A 
ATOM      9  C   UNL     1      47.037   9.144  12.492  0.00  0.00    +0.000 A 
ATOM     10  N   UNL     1      47.521  10.378  12.219  0.00  0.00    +0.000 NA
ATOM     11  C   UNL     1      48.778  10.434  11.727  0.00  0.00    +0.000 A 
ATOM     12  C   UNL     1      49.591   9.325  11.534  0.00  0.00    +0.000 A 
ATOM     13  C   UNL     1      49.050   8.070  11.816  0.00  0.00    +0.000 A 
BRANCH  12  14
ATOM     14  O   UNL     1      50.827   9.565  11.011  0.00  0.00    +0.000 OA
BRANCH  14  15
ATOM     15  C   UNL     1      51.872   8.664  11.397  0.00  0.00    +0.000 C 
BRANCH  15  16
ATOM     16  C   UNL     1      52.416   7.898  10.190  0.00  0.00    +0.000 C 
ATOM     17  F   UNL     1      53.584   7.270  10.442  0.00  0.00    +0.000 F 
ATOM     18  F   UNL     1      51.531   6.963   9.772  0.00  0.00    +0.000 F 
ATOM     19  F   UNL     1      52.625   8.740   9.149  0.00  0.00    +0.000 F 
ENDBRANCH  15  16
ENDBRANCH  14  15
ENDBRANCH  12  14
ENDBRANCH   6   8
BRANCH   1  20
ATOM     20  C   UNL     1      44.486   4.377  10.855  0.00  0.00    +0.000 C 
ATOM     21  C   UNL     1      43.252   3.749  11.515  0.00  0.00    +0.000 C 
ATOM     22  C   UNL     1      43.097   4.942  10.646  0.00  0.00    +0.000 C 
ATOM     23  F   UNL     1      42.764   6.140  11.249  0.00  0.00    +0.000 F 
BRANCH  20  27
ATOM     24  C   UNL     1      46.494   2.770   7.462  0.00  0.00    +0.000 A 
ATOM     25  C   UNL     1      45.931   1.968   8.429  0.00  0.00    +0.000 A 
ATOM     26  N   UNL     1      45.242   2.443   9.495  0.00  0.00    +0.000 NA
ATOM     27  C   UNL     1      45.125   3.790   9.602  0.00  0.00    +0.000 A 
ATOM     28  N   UNL     1      45.637   4.642   8.690  0.00  0.00    +0.000 NA
ATOM     29  C   UNL     1      46.327   4.121   7.651  0.00  0.00    +0.000 A 
BRANCH  24  31
ATOM     30  N   UNL     1      47.148   2.919   5.131  0.00  0.00    +0.000 N 
ATOM     31  C   UNL     1      47.268   2.261   6.328  0.00  0.00    +0.000 C 
ATOM     32  O   UNL     1      48.015   1.296   6.449  0.00  0.00    +0.000 OA
ATOM     33  H   UNL     1      47.764   2.607   4.394  0.00  0.00    +0.000 HD
ATOM     34  H   UNL     1      46.768   3.850   5.046  0.00  0.00    +0.000 HD
ENDBRANCH  24  31
ENDBRANCH  20  27
ENDBRANCH   1  20
TORSDOF 7
ENDMDL
MODEL 3
REMARK VINA RESULT:    -8.513      3.347      8.405
REMARK INTER + INTRA:         -12.501
REMARK INTER:                 -12.009
REMARK INTRA:                  -0.492
REMARK UNBOUND:                -0.504
REMARK  Name = 
REMARK  7 active torsions:
REMARK  status: ('A' for Active; 'I' for Inactive)
REMARK    1  A    between atoms: C_2  and  C_4
REMARK    2  A    between atoms: C_7  and  C_8
REMARK    3  A    between atoms: C_8  and  C_9
REMARK    4  A    between atoms: C_14  and  C_15
REMARK    5  A    between atoms: C_19  and  O_20
REMARK    6  A    between atoms: O_20  and  C_21
REMARK    7  A    between atoms: C_21  and  C_22
REMARK                            x       y       z     vdW  Elec       q    Type
REMARK                         _______ _______ _______ _____ _____    ______ ____
ROOT
ATOM      1  C   UNL     1      47.268   7.449  13.129  0.00  0.00    +0.000 A 
ATOM      2  C   UNL     1      46.449   8.574  13.227  0.00  0.00    +0.000 A 
ATOM      3  C   UNL     1      45.281   8.648  12.481  0.00  0.00    +0.000 A 
ATOM      4  F   UNL     1      44.531   9.757  12.542  0.00  0.00    +0.000 F 
ATOM      5  C   UNL     1      44.879   7.602  11.653  0.00  0.00    +0.000 A 
ATOM      6  C   UNL     1      45.640   6.430  11.556  0.00  0.00    +0.000 A 
ATOM      7  C   UNL     1      46.826   6.383  12.306  0.00  0.00    +0.000 A 
ENDROOT
BRANCH   6   8
ATOM      8  C   UNL     1      45.229   5.297  10.703  0.00  0.00    +0.000 A 
ATOM      9  C   UNL     1      44.431   4.260  11.193  0.00  0.00    +0.000 A 
ATOM     10  N   UNL     1      44.069   3.159  10.494  0.00  0.00    +0.000 NA
ATOM     11  C   UNL     1      44.516   3.083   9.221  0.00  0.00    +0.000 A 
ATOM     12  C   UNL     1      45.269   4.069   8.597  0.00  0.00    +0.000 A 
ATOM     13  C   UNL     1      45.631   5.182   9.356  0.00  0.00    +0.000 A 
BRANCH  12  14
ATOM     14  O   UNL     1      45.649   3.818   7.312  0.00  0.00    +0.000 OA
BRANCH  14  15
ATOM     15  C   UNL     1      47.021   3.458   7.108  0.00  0.00    +0.000 C 
BRANCH  15  16
ATOM     16  C   UNL     1      47.150   2.331   6.083  0.00  0.00    +0.000 C 
ATOM     17  F   UNL     1      46.765   1.130   6.566  0.00  0.00    +0.000 F 
ATOM     18  F   UNL     1      46.403   2.588   4.984  0.00  0.00    +0.000 F 
ATOM     19  F   UNL     1      48.435   2.209   5.671  0.00  0.00    +0.000 F 
ENDBRANCH  15  16
ENDBRANCH  14  15
ENDBRANCH  12  14
ENDBRANCH   6   8
BRANCH   1  20
ATOM     20  C   UNL     1      48.625   7.333  13.809  0.00  0.00    +0.000 C 
ATOM     21  C   UNL     1      49.755   7.218  12.778  0.00  0.00    +0.000 C 
ATOM     22  C   UNL     1      49.727   8.366  13.718  0.00  0.00    +0.000 C 
ATOM     23  F   UNL     1      49.434   9.615  13.202  0.00  0.00    +0.000 F 
BRANCH  20  27
ATOM     24  C   UNL     1      48.408   5.209  17.493  0.00  0.00    +0.000 A 
ATOM     25  C   UNL     1      47.909   4.694  16.318  0.00  0.00    +0.000 A 
ATOM     26  N   UNL     1      48.004   5.318  15.120  0.00  0.00    +0.000 NA
ATOM     27  C   UNL     1      48.620   6.527  15.103  0.00  0.00    +0.000 A 
ATOM     28  N   UNL     1      49.146   7.094  16.208  0.00  0.00    +0.000 NA
ATOM     29  C   UNL     1      49.014   6.438  17.382  0.00  0.00    +0.000 A 
BRANCH  24  31
ATOM     30  N   UNL     1      48.295   3.181  18.820  0.00  0.00    +0.000 N 
ATOM     31  C   UNL     1      48.275   4.553  18.794  0.00  0.00    +0.000 C 
ATOM     32  O   UNL     1      48.174   5.204  19.829  0.00  0.00    +0.000 OA
ATOM     33  H   UNL     1      48.299   2.758  19.737  0.00  0.00    +0.000 HD
ATOM     34  H   UNL     1      48.635   2.618  18.054  0.00  0.00    +0.000 HD
ENDBRANCH  24  31
ENDBRANCH  20  27
ENDBRANCH   1  20
TORSDOF 7
ENDMDL
MODEL 4
REMARK VINA RESULT:    -8.324      2.816      3.791
REMARK INTER + INTRA:         -12.234
REMARK INTER:                 -11.449
REMARK INTRA:                  -0.785
REMARK UNBOUND:                -0.504
REMARK  Name = 
REMARK  7 active torsions:
REMARK  status: ('A' for Active; 'I' for Inactive)
REMARK    1  A    between atoms: C_2  and  C_4
REMARK    2  A    between atoms: C_7  and  C_8
REMARK    3  A    between atoms: C_8  and  C_9
REMARK    4  A    between atoms: C_14  and  C_15
REMARK    5  A    between atoms: C_19  and  O_20
REMARK    6  A    between atoms: O_20  and  C_21
REMARK    7  A    between atoms: C_21  and  C_22
REMARK                            x       y       z     vdW  Elec       q    Type
REMARK                         _______ _______ _______ _____ _____    ______ ____
ROOT
ATOM      1  C   UNL     1      45.489   4.781  12.006  0.00  0.00    +0.000 A 
ATOM      2  C   UNL     1      45.897   3.843  12.955  0.00  0.00    +0.000 A 
ATOM      3  C   UNL     1      46.894   4.166  13.864  0.00  0.00    +0.000 A 
ATOM      4  F   UNL     1      47.316   3.240  14.735  0.00  0.00    +0.000 F 
ATOM      5  C   UNL     1      47.484   5.430  13.879  0.00  0.00    +0.000 A 
ATOM      6  C   UNL     1      47.076   6.422  12.979  0.00  0.00    +0.000 A 
ATOM      7  C   UNL     1      46.078   6.068  12.057  0.00  0.00    +0.000 A 
ENDROOT
BRANCH   6   8
ATOM      8  C   UNL     1      47.668   7.775  12.984  0.00  0.00    +0.000 A 
ATOM      9  C   UNL     1      48.029   8.424  11.801  0.00  0.00    +0.000 A 
ATOM     10  N   UNL     1      48.634   9.633  11.729  0.00  0.00    +0.000 NA
ATOM     11  C   UNL     1      48.891  10.246  12.905  0.00  0.00    +0.000 A 
ATOM     12  C   UNL     1      48.535   9.735  14.146  0.00  0.00    +0.000 A 
ATOM     13  C   UNL     1      47.924   8.481  14.178  0.00  0.00    +0.000 A 
BRANCH  12  14
ATOM     14  O   UNL     1      48.889  10.481  15.232  0.00  0.00    +0.000 OA
BRANCH  14  15
ATOM     15  C   UNL     1      49.370   9.762  16.374  0.00  0.00    +0.000 C 
BRANCH  15  16
ATOM     16  C   UNL     1      48.403   9.887  17.552  0.00  0.00    +0.000 C 
ATOM     17  F   UNL     1      47.509   8.878  17.612  0.00  0.00    +0.000 F 
ATOM     18  F   UNL     1      49.073   9.909  18.728  0.00  0.00    +0.000 F 
ATOM     19  F   UNL     1      47.704  11.044  17.471  0.00  0.00    +0.000 F 
ENDBRANCH  15  16
ENDBRANCH  14  15
ENDBRANCH  12  14
ENDBRANCH   6   8
BRANCH   1  20
ATOM     20  C   UNL     1      44.496   4.475  10.893  0.00  0.00    +0.000 C 
ATOM     21  C   UNL     1      43.154   3.997  11.461  0.00  0.00    +0.000 C 
ATOM     22  C   UNL     1      43.211   5.237  10.647  0.00  0.00    +0.000 C 
ATOM     23  F   UNL     1      43.013   6.442  11.295  0.00  0.00    +0.000 F 
BRANCH  20  27
ATOM     24  C   UNL     1      46.449   2.793   7.504  0.00  0.00    +0.000 A 
ATOM     25  C   UNL     1      45.902   2.013   8.497  0.00  0.00    +0.000 A 
ATOM     26  N   UNL     1      45.231   2.511   9.563  0.00  0.00    +0.000 NA
ATOM     27  C   UNL     1      45.115   3.861   9.642  0.00  0.00    +0.000 A 
ATOM     28  N   UNL     1      45.612   4.692   8.704  0.00  0.00    +0.000 NA
ATOM     29  C   UNL     1      46.285   4.149   7.665  0.00  0.00    +0.000 A 
BRANCH  24  31
ATOM     30  N   UNL     1      47.262   3.021   5.229  0.00  0.00    +0.000 N 
ATOM     31  C   UNL     1      47.205   2.260   6.369  0.00  0.00    +0.000 C 
ATOM     32  O   UNL     1      47.786   1.182   6.441  0.00  0.00    +0.000 OA
ATOM     33  H   UNL     1      47.868   2.674   4.499  0.00  0.00    +0.000 HD
ATOM     34  H   UNL     1      47.036   4.004   5.208  0.00  0.00    +0.000 HD
ENDBRANCH  24  31
ENDBRANCH  20  27
ENDBRANCH   1  20
TORSDOF 7
ENDMDL
MODEL 5
REMARK VINA RESULT:    -7.599      2.333      2.941
REMARK INTER + INTRA:         -11.212
REMARK INTER:                 -10.668
REMARK INTRA:                  -0.544
REMARK UNBOUND:                -0.504
REMARK  Name = 
REMARK  7 active torsions:
REMARK  status: ('A' for Active; 'I' for Inactive)
REMARK    1  A    between atoms: C_2  and  C_4
REMARK    2  A    between atoms: C_7  and  C_8
REMARK    3  A    between atoms: C_8  and  C_9
REMARK    4  A    between atoms: C_14  and  C_15
REMARK    5  A    between atoms: C_19  and  O_20
REMARK    6  A    between atoms: O_20  and  C_21
REMARK    7  A    between atoms: C_21  and  C_22
REMARK                            x       y       z     vdW  Elec       q    Type
REMARK                         _______ _______ _______ _____ _____    ______ ____
ROOT
ATOM      1  C   UNL     1      45.638   5.668  11.869  0.00  0.00    +0.000 A 
ATOM      2  C   UNL     1      46.185   6.902  11.514  0.00  0.00    +0.000 A 
ATOM      3  C   UNL     1      47.114   7.513  12.344  0.00  0.00    +0.000 A 
ATOM      4  F   UNL     1      47.591   8.722  12.020  0.00  0.00    +0.000 F 
ATOM      5  C   UNL     1      47.548   6.906  13.522  0.00  0.00    +0.000 A 
ATOM      6  C   UNL     1      47.066   5.647  13.900  0.00  0.00    +0.000 A 
ATOM      7  C   UNL     1      46.115   5.054  13.054  0.00  0.00    +0.000 A 
ENDROOT
BRANCH   6   8
ATOM      8  C   UNL     1      47.523   4.970  15.131  0.00  0.00    +0.000 A 
ATOM      9  C   UNL     1      47.220   3.631  15.389  0.00  0.00    +0.000 A 
ATOM     10  N   UNL     1      47.546   2.963  16.520  0.00  0.00    +0.000 NA
ATOM     11  C   UNL     1      48.227   3.662  17.455  0.00  0.00    +0.000 A 
ATOM     12  C   UNL     1      48.635   4.980  17.300  0.00  0.00    +0.000 A 
ATOM     13  C   UNL     1      48.269   5.637  16.124  0.00  0.00    +0.000 A 
BRANCH  12  14
ATOM     14  O   UNL     1      49.298   5.536  18.354  0.00  0.00    +0.000 OA
BRANCH  14  15
ATOM     15  C   UNL     1      50.608   5.024  18.629  0.00  0.00    +0.000 C 
BRANCH  15  16
ATOM     16  C   UNL     1      51.683   5.854  17.927  0.00  0.00    +0.000 C 
ATOM     17  F   UNL     1      51.968   5.411  16.684  0.00  0.00    +0.000 F 
ATOM     18  F   UNL     1      51.304   7.149  17.822  0.00  0.00    +0.000 F 
ATOM     19  F   UNL     1      52.837   5.835  18.638  0.00  0.00    +0.000 F 
ENDBRANCH  15  16
ENDBRANCH  14  15
ENDBRANCH  12  14
ENDBRANCH   6   8
BRANCH   1  20
ATOM     20  C   UNL     1      44.525   4.984  11.089  0.00  0.00    +0.000 C 
ATOM     21  C   UNL     1      43.395   4.523  12.018  0.00  0.00    +0.000 C 
ATOM     22  C   UNL     1      43.114   5.515  10.951  0.00  0.00    +0.000 C 
ATOM     23  F   UNL     1      42.848   6.816  11.335  0.00  0.00    +0.000 F 
BRANCH  20  27
ATOM     24  C   UNL     1      46.089   2.664   7.879  0.00  0.00    +0.000 A 
ATOM     25  C   UNL     1      45.547   2.087   9.006  0.00  0.00    +0.000 A 
ATOM     26  N   UNL     1      44.996   2.792  10.023  0.00  0.00    +0.000 NA
ATOM     27  C   UNL     1      45.001   4.144   9.909  0.00  0.00    +0.000 A 
ATOM     28  N   UNL     1      45.501   4.784   8.832  0.00  0.00    +0.000 NA
ATOM     29  C   UNL     1      46.052   4.038   7.849  0.00  0.00    +0.000 A 
BRANCH  24  31
ATOM     30  N   UNL     1      47.061   0.603   7.046  0.00  0.00    +0.000 N 
ATOM     31  C   UNL     1      46.715   1.906   6.795  0.00  0.00    +0.000 C 
ATOM     32  O   UNL     1      46.904   2.410   5.692  0.00  0.00    +0.000 OA
ATOM     33  H   UNL     1      47.402   0.078   6.254  0.00  0.00    +0.000 HD
ATOM     34  H   UNL     1      46.696   0.073   7.824  0.00  0.00    +0.000 HD
ENDBRANCH  24  31
ENDBRANCH  20  27
ENDBRANCH   1  20
TORSDOF 7
ENDMDL
MODEL 6
REMARK VINA RESULT:    -7.449      2.631      4.111
REMARK INTER + INTRA:         -11.002
REMARK INTER:                 -10.134
REMARK INTRA:                  -0.868
REMARK UNBOUND:                -0.504
REMARK  Name = 
REMARK  7 active torsions:
REMARK  status: ('A' for Active; 'I' for Inactive)
REMARK    1  A    between atoms: C_2  and  C_4
REMARK    2  A    between atoms: C_7  and  C_8
REMARK    3  A    between atoms: C_8  and  C_9
REMARK    4  A    between atoms: C_14  and  C_15
REMARK    5  A    between atoms: C_19  and  O_20
REMARK    6  A    between atoms: O_20  and  C_21
REMARK    7  A    between atoms: C_21  and  C_22
REMARK                            x       y       z     vdW  Elec       q    Type
REMARK                         _______ _______ _______ _____ _____    ______ ____
ROOT
ATOM      1  C   UNL     1      47.789   7.933  12.531  0.00  0.00    +0.000 A 
ATOM      2  C   UNL     1      48.717   8.534  11.680  0.00  0.00    +0.000 A 
ATOM      3  C   UNL     1      50.044   8.646  12.070  0.00  0.00    +0.000 A 
ATOM      4  F   UNL     1      50.915   9.273  11.269  0.00  0.00    +0.000 F 
ATOM      5  C   UNL     1      50.489   8.138  13.290  0.00  0.00    +0.000 A 
ATOM      6  C   UNL     1      49.607   7.484  14.160  0.00  0.00    +0.000 A 
ATOM      7  C   UNL     1      48.267   7.396  13.752  0.00  0.00    +0.000 A 
ENDROOT
BRANCH   6   8
ATOM      8  C   UNL     1      50.054   6.917  15.449  0.00  0.00    +0.000 A 
ATOM      9  C   UNL     1      51.381   7.017  15.874  0.00  0.00    +0.000 A 
ATOM     10  N   UNL     1      51.879   6.468  17.007  0.00  0.00    +0.000 NA
ATOM     11  C   UNL     1      51.004   5.785  17.777  0.00  0.00    +0.000 A 
ATOM     12  C   UNL     1      49.650   5.658  17.496  0.00  0.00    +0.000 A 
ATOM     13  C   UNL     1      49.179   6.227  16.312  0.00  0.00    +0.000 A 
BRANCH  12  14
ATOM     14  O   UNL     1      48.916   4.917  18.375  0.00  0.00    +0.000 OA
BRANCH  14  15
ATOM     15  C   UNL     1      47.620   4.497  17.933  0.00  0.00    +0.000 C 
BRANCH  15  16
ATOM     16  C   UNL     1      47.672   3.098  17.317  0.00  0.00    +0.000 C 
ATOM     17  F   UNL     1      46.695   2.283  17.769  0.00  0.00    +0.000 F 
ATOM     18  F   UNL     1      47.563   3.158  15.970  0.00  0.00    +0.000 F 
ATOM     19  F   UNL     1      48.857   2.502  17.594  0.00  0.00    +0.000 F 
ENDBRANCH  15  16
ENDBRANCH  14  15
ENDBRANCH  12  14
ENDBRANCH   6   8
BRANCH   1  20
ATOM     20  C   UNL     1      46.295   7.879  12.243  0.00  0.00    +0.000 C 
ATOM     21  C   UNL     1      45.517   8.834  13.157  0.00  0.00    +0.000 C 
ATOM     22  C   UNL     1      45.480   9.026  11.686  0.00  0.00    +0.000 C 
ATOM     23  F   UNL     1      46.138  10.123  11.163  0.00  0.00    +0.000 F 
BRANCH  20  27
ATOM     24  C   UNL     1      44.598   4.113  11.210  0.00  0.00    +0.000 A 
ATOM     25  C   UNL     1      45.210   4.922  10.279  0.00  0.00    +0.000 A 
ATOM     26  N   UNL     1      45.803   6.102  10.581  0.00  0.00    +0.000 NA
ATOM     27  C   UNL     1      45.769   6.495  11.878  0.00  0.00    +0.000 A 
ATOM     28  N   UNL     1      45.200   5.754  12.851  0.00  0.00    +0.000 NA
ATOM     29  C   UNL     1      44.609   4.590  12.499  0.00  0.00    +0.000 A 
BRANCH  24  31
ATOM     30  N   UNL     1      44.426   2.120   9.837  0.00  0.00    +0.000 N 
ATOM     31  C   UNL     1      43.926   2.854  10.882  0.00  0.00    +0.000 C 
ATOM     32  O   UNL     1      42.964   2.457  11.532  0.00  0.00    +0.000 OA
ATOM     33  H   UNL     1      44.004   1.213   9.695  0.00  0.00    +0.000 HD
ATOM     34  H   UNL     1      45.348   2.261   9.452  0.00  0.00    +0.000 HD
ENDBRANCH  24  31
ENDBRANCH  20  27
ENDBRANCH   1  20
TORSDOF 7
ENDMDL
MODEL 7
REMARK VINA RESULT:    -7.304      3.534      8.312
REMARK INTER + INTRA:         -10.797
REMARK INTER:                 -10.412
REMARK INTRA:                  -0.385
REMARK UNBOUND:                -0.504
REMARK  Name = 
REMARK  7 active torsions:
REMARK  status: ('A' for Active; 'I' for Inactive)
REMARK    1  A    between atoms: C_2  and  C_4
REMARK    2  A    between atoms: C_7  and  C_8
REMARK    3  A    between atoms: C_8  and  C_9
REMARK    4  A    between atoms: C_14  and  C_15
REMARK    5  A    between atoms: C_19  and  O_20
REMARK    6  A    between atoms: O_20  and  C_21
REMARK    7  A    between atoms: C_21  and  C_22
REMARK                            x       y       z     vdW  Elec       q    Type
REMARK                         _______ _______ _______ _____ _____    ______ ____
ROOT
ATOM      1  C   UNL     1      49.047   7.496  14.875  0.00  0.00    +0.000 A 
ATOM      2  C   UNL     1      49.713   8.287  13.938  0.00  0.00    +0.000 A 
ATOM      3  C   UNL     1      49.403   8.173  12.590  0.00  0.00    +0.000 A 
ATOM      4  F   UNL     1      50.087   8.897  11.694  0.00  0.00    +0.000 F 
ATOM      5  C   UNL     1      48.407   7.305  12.143  0.00  0.00    +0.000 A 
ATOM      6  C   UNL     1      47.676   6.526  13.047  0.00  0.00    +0.000 A 
ATOM      7  C   UNL     1      48.018   6.644  14.404  0.00  0.00    +0.000 A 
ENDROOT
BRANCH   6   8
ATOM      8  C   UNL     1      46.602   5.613  12.605  0.00  0.00    +0.000 A 
ATOM      9  C   UNL     1      46.079   4.630  13.449  0.00  0.00    +0.000 A 
ATOM     10  N   UNL     1      45.144   3.718  13.096  0.00  0.00    +0.000 NA
ATOM     11  C   UNL     1      44.686   3.788  11.826  0.00  0.00    +0.000 A 
ATOM     12  C   UNL     1      45.083   4.749  10.906  0.00  0.00    +0.000 A 
ATOM     13  C   UNL     1      46.058   5.664  11.305  0.00  0.00    +0.000 A 
BRANCH  12  14
ATOM     14  O   UNL     1      44.532   4.659   9.661  0.00  0.00    +0.000 OA
BRANCH  14  15
ATOM     15  C   UNL     1      44.606   3.381   9.019  0.00  0.00    +0.000 C 
BRANCH  15  16
ATOM     16  C   UNL     1      45.730   3.348   7.982  0.00  0.00    +0.000 C 
ATOM     17  F   UNL     1      46.562   2.296   8.135  0.00  0.00    +0.000 F 
ATOM     18  F   UNL     1      45.229   3.293   6.726  0.00  0.00    +0.000 F 
ATOM     19  F   UNL     1      46.480   4.474   8.061  0.00  0.00    +0.000 F 
ENDBRANCH  15  16
ENDBRANCH  14  15
ENDBRANCH  12  14
ENDBRANCH   6   8
BRANCH   1  20
ATOM     20  C   UNL     1      49.406   7.460  16.354  0.00  0.00    +0.000 C 
ATOM     21  C   UNL     1      49.952   8.813  16.827  0.00  0.00    +0.000 C 
ATOM     22  C   UNL     1      48.712   8.266  17.432  0.00  0.00    +0.000 C 
ATOM     23  F   UNL     1      47.518   8.894  17.133  0.00  0.00    +0.000 F 
BRANCH  20  27
ATOM     24  C   UNL     1      51.024   3.679  17.455  0.00  0.00    +0.000 A 
ATOM     25  C   UNL     1      51.820   4.779  17.228  0.00  0.00    +0.000 A 
ATOM     26  N   UNL     1      51.337   6.008  16.925  0.00  0.00    +0.000 NA
ATOM     27  C   UNL     1      49.990   6.136  16.833  0.00  0.00    +0.000 A 
ATOM     28  N   UNL     1      49.143   5.109  17.053  0.00  0.00    +0.000 NA
ATOM     29  C   UNL     1      49.672   3.899  17.340  0.00  0.00    +0.000 A 
BRANCH  24  31
ATOM     30  N   UNL     1      52.610   2.249  18.607  0.00  0.00    +0.000 N 
ATOM     31  C   UNL     1      51.544   2.342  17.749  0.00  0.00    +0.000 C 
ATOM     32  O   UNL     1      51.031   1.338  17.264  0.00  0.00    +0.000 OA
ATOM     33  H   UNL     1      52.885   1.312  18.866  0.00  0.00    +0.000 HD
ATOM     34  H   UNL     1      52.891   2.996  19.225  0.00  0.00    +0.000 HD
ENDBRANCH  24  31
ENDBRANCH  20  27
ENDBRANCH   1  20
TORSDOF 7
ENDMDL
MODEL 8
REMARK VINA RESULT:    -7.169      3.777      8.334
REMARK INTER + INTRA:         -10.606
REMARK INTER:                  -9.992
REMARK INTRA:                  -0.615
REMARK UNBOUND:                -0.504
REMARK  Name = 
REMARK  7 active torsions:
REMARK  status: ('A' for Active; 'I' for Inactive)
REMARK    1  A    between atoms: C_2  and  C_4
REMARK    2  A    between atoms: C_7  and  C_8
REMARK    3  A    between atoms: C_8  and  C_9
REMARK    4  A    between atoms: C_14  and  C_15
REMARK    5  A    between atoms: C_19  and  O_20
REMARK    6  A    between atoms: O_20  and  C_21
REMARK    7  A    between atoms: C_21  and  C_22
REMARK                            x       y       z     vdW  Elec       q    Type
REMARK                         _______ _______ _______ _____ _____    ______ ____
ROOT
ATOM      1  C   UNL     1      48.994   5.907  16.375  0.00  0.00    +0.000 A 
ATOM      2  C   UNL     1      50.003   6.788  15.980  0.00  0.00    +0.000 A 
ATOM      3  C   UNL     1      49.980   7.342  14.708  0.00  0.00    +0.000 A 
ATOM      4  F   UNL     1      50.982   8.143  14.322  0.00  0.00    +0.000 F 
ATOM      5  C   UNL     1      48.946   7.068  13.813  0.00  0.00    +0.000 A 
ATOM      6  C   UNL     1      47.886   6.230  14.177  0.00  0.00    +0.000 A 
ATOM      7  C   UNL     1      47.937   5.666  15.462  0.00  0.00    +0.000 A 
ENDROOT
BRANCH   6   8
ATOM      8  C   UNL     1      46.767   5.938  13.258  0.00  0.00    +0.000 A 
ATOM      9  C   UNL     1      45.988   6.956  12.703  0.00  0.00    +0.000 A 
ATOM     10  N   UNL     1      44.909   6.766  11.908  0.00  0.00    +0.000 NA
ATOM     11  C   UNL     1      44.585   5.483  11.634  0.00  0.00    +0.000 A 
ATOM     12  C   UNL     1      45.307   4.383  12.078  0.00  0.00    +0.000 A 
ATOM     13  C   UNL     1      46.405   4.622  12.905  0.00  0.00    +0.000 A 
BRANCH  12  14
ATOM     14  O   UNL     1      44.825   3.158  11.720  0.00  0.00    +0.000 OA
BRANCH  14  15
ATOM     15  C   UNL     1      43.948   3.120  10.588  0.00  0.00    +0.000 C 
BRANCH  15  16
ATOM     16  C   UNL     1      44.628   2.465   9.385  0.00  0.00    +0.000 C 
ATOM     17  F   UNL     1      45.971   2.397   9.507  0.00  0.00    +0.000 F 
ATOM     18  F   UNL     1      44.171   1.205   9.197  0.00  0.00    +0.000 F 
ATOM     19  F   UNL     1      44.359   3.158   8.252  0.00  0.00    +0.000 F 
ENDBRANCH  15  16
ENDBRANCH  14  15
ENDBRANCH  12  14
ENDBRANCH   6   8
BRANCH   1  20
ATOM     20  C   UNL     1      49.003   5.155  17.698  0.00  0.00    +0.000 C 
ATOM     21  C   UNL     1      48.685   6.090  18.872  0.00  0.00    +0.000 C 
ATOM     22  C   UNL     1      47.791   4.942  18.579  0.00  0.00    +0.000 C 
ATOM     23  F   UNL     1      46.536   5.216  18.069  0.00  0.00    +0.000 F 
BRANCH  20  27
ATOM     24  C   UNL     1      52.023   2.154  17.744  0.00  0.00    +0.000 A 
ATOM     25  C   UNL     1      52.195   3.377  18.351  0.00  0.00    +0.000 A 
ATOM     26  N   UNL     1      51.240   4.336  18.399  0.00  0.00    +0.000 NA
ATOM     27  C   UNL     1      50.057   4.058  17.797  0.00  0.00    +0.000 A 
ATOM     28  N   UNL     1      49.806   2.878  17.192  0.00  0.00    +0.000 NA
ATOM     29  C   UNL     1      50.795   1.958  17.158  0.00  0.00    +0.000 A 
BRANCH  24  31
ATOM     30  N   UNL     1      53.896   0.978  18.741  0.00  0.00    +0.000 N 
ATOM     31  C   UNL     1      53.065   1.129  17.661  0.00  0.00    +0.000 C 
ATOM     32  O   UNL     1      53.178   0.414  16.670  0.00  0.00    +0.000 OA
ATOM     33  H   UNL     1      54.541   0.202  18.695  0.00  0.00    +0.000 HD
ATOM     34  H   UNL     1      53.685   1.343  19.658  0.00  0.00    +0.000 HD
ENDBRANCH  24  31
ENDBRANCH  20  27
ENDBRANCH   1  20
TORSDOF 7
ENDMDL
MODEL 9
REMARK VINA RESULT:    -6.595      4.857      6.739
REMARK INTER + INTRA:          -9.798
REMARK INTER:                  -8.960
REMARK INTRA:                  -0.838
REMARK UNBOUND:                -0.504
REMARK  Name = 
REMARK  7 active torsions:
REMARK  status: ('A' for Active; 'I' for Inactive)
REMARK    1  A    between atoms: C_2  and  C_4
REMARK    2  A    between atoms: C_7  and  C_8
REMARK    3  A    between atoms: C_8  and  C_9
REMARK    4  A    between atoms: C_14  and  C_15
REMARK    5  A    between atoms: C_19  and  O_20
REMARK    6  A    between atoms: O_20  and  C_21
REMARK    7  A    between atoms: C_21  and  C_22
REMARK                            x       y       z     vdW  Elec       q    Type
REMARK                         _______ _______ _______ _____ _____    ______ ____
ROOT
ATOM      1  C   UNL     1      47.871   7.874  12.834  0.00  0.00    +0.000 A 
ATOM      2  C   UNL     1      48.287   7.472  14.104  0.00  0.00    +0.000 A 
ATOM      3  C   UNL     1      49.642   7.394  14.396  0.00  0.00    +0.000 A 
ATOM      4  F   UNL     1      50.031   6.955  15.600  0.00  0.00    +0.000 F 
ATOM      5  C   UNL     1      50.610   7.741  13.455  0.00  0.00    +0.000 A 
ATOM      6  C   UNL     1      50.244   8.196  12.183  0.00  0.00    +0.000 A 
ATOM      7  C   UNL     1      48.870   8.252  11.903  0.00  0.00    +0.000 A 
ENDROOT
BRANCH   6   8
ATOM      8  C   UNL     1      51.248   8.591  11.173  0.00  0.00    +0.000 A 
ATOM      9  C   UNL     1      51.304   9.890  10.662  0.00  0.00    +0.000 A 
ATOM     10  N   UNL     1      52.148  10.310   9.691  0.00  0.00    +0.000 NA
ATOM     11  C   UNL     1      53.003   9.385   9.200  0.00  0.00    +0.000 A 
ATOM     12  C   UNL     1      53.086   8.077   9.658  0.00  0.00    +0.000 A 
ATOM     13  C   UNL     1      52.189   7.682  10.651  0.00  0.00    +0.000 A 
BRANCH  12  14
ATOM     14  O   UNL     1      53.995   7.275   9.034  0.00  0.00    +0.000 OA
BRANCH  14  15
ATOM     15  C   UNL     1      53.543   5.970   8.652  0.00  0.00    +0.000 C 
BRANCH  15  16
ATOM     16  C   UNL     1      52.918   5.988   7.257  0.00  0.00    +0.000 C 
ATOM     17  F   UNL     1      51.619   6.356   7.263  0.00  0.00    +0.000 F 
ATOM     18  F   UNL     1      53.580   6.841   6.441  0.00  0.00    +0.000 F 
ATOM     19  F   UNL     1      52.988   4.760   6.689  0.00  0.00    +0.000 F 
ENDBRANCH  15  16
ENDBRANCH  14  15
ENDBRANCH  12  14
ENDBRANCH   6   8
BRANCH   1  20
ATOM     20  C   UNL     1      46.416   7.869  12.384  0.00  0.00    +0.000 C 
ATOM     21  C   UNL     1      45.574   8.845  13.215  0.00  0.00    +0.000 C 
ATOM     22  C   UNL     1      45.704   9.044  11.750  0.00  0.00    +0.000 C 
ATOM     23  F   UNL     1      46.450  10.121  11.309  0.00  0.00    +0.000 F 
BRANCH  20  27
ATOM     24  C   UNL     1      44.715   4.143  11.219  0.00  0.00    +0.000 A 
ATOM     25  C   UNL     1      45.126   5.082  10.300  0.00  0.00    +0.000 A 
ATOM     26  N   UNL     1      45.715   6.256  10.632  0.00  0.00    +0.000 NA
ATOM     27  C   UNL     1      45.890   6.504  11.954  0.00  0.00    +0.000 A 
ATOM     28  N   UNL     1      45.527   5.630  12.916  0.00  0.00    +0.000 NA
ATOM     29  C   UNL     1      44.931   4.478  12.535  0.00  0.00    +0.000 A 
BRANCH  24  31
ATOM     30  N   UNL     1      44.610   2.127   9.874  0.00  0.00    +0.000 N 
ATOM     31  C   UNL     1      44.047   2.890  10.864  0.00  0.00    +0.000 C 
ATOM     32  O   UNL     1      43.031   2.523  11.447  0.00  0.00    +0.000 OA
ATOM     33  H   UNL     1      44.184   1.225   9.717  0.00  0.00    +0.000 HD
ATOM     34  H   UNL     1      45.562   2.245   9.557  0.00  0.00    +0.000 HD
ENDBRANCH  24  31
ENDBRANCH  20  27
ENDBRANCH   1  20
TORSDOF 7
ENDMDL
