MODEL 1
REMARK VINA RESULT:    -7.555      0.000      0.000
REMARK INTER + INTRA:         -10.988
REMARK INTER:                 -10.205
REMARK INTRA:                  -0.783
REMARK UNBOUND:                -0.783
REMARK  Name = 
REMARK  7 active torsions:
REMARK  status: ('A' for Active; 'I' for Inactive)
REMARK    1  A    between atoms: C_1  and  C_2
REMARK    2  A    between atoms: C_2  and  C_3
REMARK    3  A    between atoms: C_2  and  C_18
REMARK    4  A    between atoms: C_3  and  N_4
REMARK    5  A    between atoms: N_4  and  C_5
REMARK    6  A    between atoms: C_8  and  C_9
REMARK    7  A    between atoms: C_12  and  C_13
REMARK                            x       y       z     vdW  Elec       q    Type
REMARK                         _______ _______ _______ _____ _____    ______ ____
ROOT
ATOM      1  C   UNL     1      45.066   4.691  11.570  0.00  0.00    +0.000 A 
ATOM      2  C   UNL     1      45.552   3.785  12.507  0.00  0.00    +0.000 A 
ATOM      3  C   UNL     1      46.471   4.183  13.484  0.00  0.00    +0.000 A 
ATOM      4  C   UNL     1      46.915   5.513  13.580  0.00  0.00    +0.000 A 
ATOM      5  C   UNL     1      46.450   6.447  12.644  0.00  0.00    +0.000 A 
ATOM      6  C   UNL     1      45.504   6.018  11.674  0.00  0.00    +0.000 A 
ENDROOT
BRANCH   4   7
ATOM      7  C   UNL     1      47.859   5.765  14.704  0.00  0.00    +0.000 C 
ATOM      8  N   UNL     1      47.517   5.363  15.959  0.00  0.00    +0.000 N 
ATOM      9  O   UNL     1      48.962   6.257  14.495  0.00  0.00    +0.000 OA
ATOM     10  H   UNL     1      46.580   5.123  16.249  0.00  0.00    +0.000 HD
ATOM     11  H   UNL     1      48.166   5.614  16.697  0.00  0.00    +0.000 HD
ENDBRANCH   4   7
BRANCH   5  12
ATOM     12  C   UNL     1      46.892   7.879  12.536  0.00  0.00    +0.000 C 
ATOM     13  F   UNL     1      46.940   8.583  13.696  0.00  0.00    +0.000 F 
ATOM     14  F   UNL     1      48.141   7.993  12.000  0.00  0.00    +0.000 F 
ATOM     15  F   UNL     1      46.076   8.600  11.715  0.00  0.00    +0.000 F 
ENDBRANCH   5  12
BRANCH   1  16
ATOM     16  N   UNL     1      44.088   4.387  10.618  0.00  0.00    +0.000 N 
ATOM     17  H   UNL     1      43.221   4.894  10.778  0.00  0.00    +0.000 HD
BRANCH  16  18
ATOM     18  C   UNL     1      44.451   4.317   9.211  0.00  0.00    +0.000 C 
BRANCH  18  20
ATOM     19  C   UNL     1      44.217   1.791   9.751  0.00  0.00    +0.000 C 
ATOM     20  C   UNL     1      44.575   2.882   8.788  0.00  0.00    +0.000 C 
BRANCH  20  21
ATOM     21  C   UNL     1      45.683   2.602   7.858  0.00  0.00    +0.000 A 
ATOM     22  C   UNL     1      46.020   3.527   6.868  0.00  0.00    +0.000 A 
ATOM     23  C   UNL     1      47.097   3.276   6.015  0.00  0.00    +0.000 A 
ATOM     24  C   UNL     1      47.841   2.104   6.153  0.00  0.00    +0.000 A 
ATOM     25  C   UNL     1      47.508   1.178   7.142  0.00  0.00    +0.000 A 
ATOM     26  C   UNL     1      46.427   1.423   7.987  0.00  0.00    +0.000 A 
ENDBRANCH  20  21
ENDBRANCH  18  20
ENDBRANCH  16  18
ENDBRANCH   1  16
TORSDOF 6
ENDMDL
MODEL 2
REMARK VINA RESULT:    -7.495      1.836      2.523
REMARK INTER + INTRA:         -10.906
REMARK INTER:                  -9.910
REMARK INTRA:                  -0.997
REMARK UNBOUND:                -0.783
REMARK  Name = 
REMARK  7 active torsions:
REMARK  status: ('A' for Active; 'I' for Inactive)
REMARK    1  A    between atoms: C_1  and  C_2
REMARK    2  A    between atoms: C_2  and  C_3
REMARK    3  A    between atoms: C_2  and  C_18
REMARK    4  A    between atoms: C_3  and  N_4
REMARK    5  A    between atoms: N_4  and  C_5
REMARK    6  A    between atoms: C_8  and  C_9
REMARK    7  A    between atoms: C_12  and  C_13
REMARK                            x       y       z     vdW  Elec       q    Type
REMARK                         _______ _______ _______ _____ _____    ______ ____
ROOT
ATOM      1  C   UNL     1      44.471   6.111  11.285  0.00  0.00    +0.000 A 
ATOM      2  C   UNL     1      44.306   7.492  11.321  0.00  0.00    +0.000 A 
ATOM      3  C   UNL     1      45.201   8.307  12.023  0.00  0.00    +0.000 A 
ATOM      4  C   UNL     1      46.315   7.772  12.692  0.00  0.00    +0.000 A 
ATOM      5  C   UNL     1      46.503   6.384  12.683  0.00  0.00    +0.000 A 
ATOM      6  C   UNL     1      45.589   5.583  11.947  0.00  0.00    +0.000 A 
ENDROOT
BRANCH   4   7
ATOM      7  C   UNL     1      47.180   8.790  13.351  0.00  0.00    +0.000 C 
ATOM      8  N   UNL     1      47.038   9.015  14.687  0.00  0.00    +0.000 N 
ATOM      9  O   UNL     1      48.061   9.364  12.722  0.00  0.00    +0.000 OA
ATOM     10  H   UNL     1      46.239   8.731  15.235  0.00  0.00    +0.000 HD
ATOM     11  H   UNL     1      47.606   9.760  15.074  0.00  0.00    +0.000 HD
ENDBRANCH   4   7
BRANCH   5  12
ATOM     12  C   UNL     1      47.576   5.637  13.423  0.00  0.00    +0.000 C 
ATOM     13  F   UNL     1      48.855   5.888  13.043  0.00  0.00    +0.000 F 
ATOM     14  F   UNL     1      47.548   5.890  14.764  0.00  0.00    +0.000 F 
ATOM     15  F   UNL     1      47.427   4.287  13.304  0.00  0.00    +0.000 F 
ENDBRANCH   5  12
BRANCH   1  16
ATOM     16  N   UNL     1      43.669   5.243  10.540  0.00  0.00    +0.000 N 
ATOM     17  H   UNL     1      42.696   5.539  10.517  0.00  0.00    +0.000 HD
BRANCH  16  18
ATOM     18  C   UNL     1      44.141   4.751   9.254  0.00  0.00    +0.000 C 
BRANCH  18  20
ATOM     19  C   UNL     1      44.163   2.550  10.627  0.00  0.00    +0.000 C 
ATOM     20  C   UNL     1      44.353   3.267   9.324  0.00  0.00    +0.000 C 
BRANCH  20  21
ATOM     21  C   UNL     1      45.406   2.747   8.434  0.00  0.00    +0.000 A 
ATOM     22  C   UNL     1      46.070   3.606   7.556  0.00  0.00    +0.000 A 
ATOM     23  C   UNL     1      47.095   3.116   6.743  0.00  0.00    +0.000 A 
ATOM     24  C   UNL     1      47.461   1.772   6.811  0.00  0.00    +0.000 A 
ATOM     25  C   UNL     1      46.801   0.912   7.687  0.00  0.00    +0.000 A 
ATOM     26  C   UNL     1      45.770   1.396   8.491  0.00  0.00    +0.000 A 
ENDBRANCH  20  21
ENDBRANCH  18  20
ENDBRANCH  16  18
ENDBRANCH   1  16
TORSDOF 6
ENDMDL
MODEL 3
REMARK VINA RESULT:    -7.335      2.272      2.981
REMARK INTER + INTRA:         -10.690
REMARK INTER:                 -10.171
REMARK INTRA:                  -0.519
REMARK UNBOUND:                -0.783
REMARK  Name = 
REMARK  7 active torsions:
REMARK  status: ('A' for Active; 'I' for Inactive)
REMARK    1  A    between atoms: C_1  and  C_2
REMARK    2  A    between atoms: C_2  and  C_3
REMARK    3  A    between atoms: C_2  and  C_18
REMARK    4  A    between atoms: C_3  and  N_4
REMARK    5  A    between atoms: N_4  and  C_5
REMARK    6  A    between atoms: C_8  and  C_9
REMARK    7  A    between atoms: C_12  and  C_13
REMARK                            x       y       z     vdW  Elec       q    Type
REMARK                         _______ _______ _______ _____ _____    ______ ____
ROOT
ATOM      1  C   UNL     1      45.903   5.026  12.310  0.00  0.00    +0.000 A 
ATOM      2  C   UNL     1      46.443   6.274  12.021  0.00  0.00    +0.000 A 
ATOM      3  C   UNL     1      47.338   6.894  12.900  0.00  0.00    +0.000 A 
ATOM      4  C   UNL     1      47.752   6.271  14.090  0.00  0.00    +0.000 A 
ATOM      5  C   UNL     1      47.218   5.017  14.415  0.00  0.00    +0.000 A 
ATOM      6  C   UNL     1      46.325   4.405  13.494  0.00  0.00    +0.000 A 
ENDROOT
BRANCH   4   7
ATOM      7  C   UNL     1      48.738   7.058  14.882  0.00  0.00    +0.000 C 
ATOM      8  N   UNL     1      48.285   7.951  15.805  0.00  0.00    +0.000 N 
ATOM      9  O   UNL     1      49.941   6.852  14.764  0.00  0.00    +0.000 OA
ATOM     10  H   UNL     1      47.342   8.309  15.841  0.00  0.00    +0.000 HD
ATOM     11  H   UNL     1      48.995   8.505  16.271  0.00  0.00    +0.000 HD
ENDBRANCH   4   7
BRANCH   5  12
ATOM     12  C   UNL     1      47.470   4.256  15.685  0.00  0.00    +0.000 C 
ATOM     13  F   UNL     1      48.516   4.676  16.441  0.00  0.00    +0.000 F 
ATOM     14  F   UNL     1      46.393   4.282  16.523  0.00  0.00    +0.000 F 
ATOM     15  F   UNL     1      47.712   2.936  15.445  0.00  0.00    +0.000 F 
ENDBRANCH   5  12
BRANCH   1  16
ATOM     16  N   UNL     1      45.069   4.311  11.446  0.00  0.00    +0.000 N 
ATOM     17  H   UNL     1      44.105   4.287  11.770  0.00  0.00    +0.000 HD
BRANCH  16  18
ATOM     18  C   UNL     1      45.178   4.514  10.009  0.00  0.00    +0.000 C 
BRANCH  18  20
ATOM     19  C   UNL     1      44.060   2.173  10.027  0.00  0.00    +0.000 C 
ATOM     20  C   UNL     1      44.779   3.260   9.286  0.00  0.00    +0.000 C 
BRANCH  20  21
ATOM     21  C   UNL     1      45.707   2.832   8.227  0.00  0.00    +0.000 A 
ATOM     22  C   UNL     1      46.224   1.535   8.227  0.00  0.00    +0.000 A 
ATOM     23  C   UNL     1      47.073   1.121   7.198  0.00  0.00    +0.000 A 
ATOM     24  C   UNL     1      47.400   1.998   6.164  0.00  0.00    +0.000 A 
ATOM     25  C   UNL     1      46.885   3.294   6.160  0.00  0.00    +0.000 A 
ATOM     26  C   UNL     1      46.048   3.713   7.192  0.00  0.00    +0.000 A 
ENDBRANCH  20  21
ENDBRANCH  18  20
ENDBRANCH  16  18
ENDBRANCH   1  16
TORSDOF 6
ENDMDL
MODEL 4
REMARK VINA RESULT:    -7.303      1.664      2.495
REMARK INTER + INTRA:         -10.648
REMARK INTER:                  -9.325
REMARK INTRA:                  -1.323
REMARK UNBOUND:                -0.783
REMARK  Name = 
REMARK  7 active torsions:
REMARK  status: ('A' for Active; 'I' for Inactive)
REMARK    1  A    between atoms: C_1  and  C_2
REMARK    2  A    between atoms: C_2  and  C_3
REMARK    3  A    between atoms: C_2  and  C_18
REMARK    4  A    between atoms: C_3  and  N_4
REMARK    5  A    between atoms: N_4  and  C_5
REMARK    6  A    between atoms: C_8  and  C_9
REMARK    7  A    between atoms: C_12  and  C_13
REMARK                            x       y       z     vdW  Elec       q    Type
REMARK                         _______ _______ _______ _____ _____    ______ ____
ROOT
ATOM      1  C   UNL     1      44.944   5.757  12.865  0.00  0.00    +0.000 A 
ATOM      2  C   UNL     1      45.933   4.941  13.403  0.00  0.00    +0.000 A 
ATOM      3  C   UNL     1      47.229   5.424  13.617  0.00  0.00    +0.000 A 
ATOM      4  C   UNL     1      47.576   6.755  13.330  0.00  0.00    +0.000 A 
ATOM      5  C   UNL     1      46.604   7.600  12.778  0.00  0.00    +0.000 A 
ATOM      6  C   UNL     1      45.292   7.087  12.588  0.00  0.00    +0.000 A 
ENDROOT
BRANCH   4   7
ATOM      7  C   UNL     1      48.985   7.106  13.659  0.00  0.00    +0.000 C 
ATOM      8  N   UNL     1      49.925   7.069  12.674  0.00  0.00    +0.000 N 
ATOM      9  O   UNL     1      49.287   7.497  14.781  0.00  0.00    +0.000 OA
ATOM     10  H   UNL     1      49.809   6.596  11.789  0.00  0.00    +0.000 HD
ATOM     11  H   UNL     1      50.878   7.255  12.963  0.00  0.00    +0.000 HD
ENDBRANCH   4   7
BRANCH   5  12
ATOM     12  C   UNL     1      46.824   9.014  12.321  0.00  0.00    +0.000 C 
ATOM     13  F   UNL     1      45.773   9.621  11.714  0.00  0.00    +0.000 F 
ATOM     14  F   UNL     1      47.164   9.841  13.352  0.00  0.00    +0.000 F 
ATOM     15  F   UNL     1      47.852   9.103  11.429  0.00  0.00    +0.000 F 
ENDBRANCH   5  12
BRANCH   1  16
ATOM     16  N   UNL     1      43.611   5.371  12.698  0.00  0.00    +0.000 N 
ATOM     17  H   UNL     1      42.971   5.944  13.242  0.00  0.00    +0.000 HD
BRANCH  16  18
ATOM     18  C   UNL     1      43.110   5.073  11.365  0.00  0.00    +0.000 C 
BRANCH  18  20
ATOM     19  C   UNL     1      43.403   2.600  12.089  0.00  0.00    +0.000 C 
ATOM     20  C   UNL     1      43.413   3.645  11.015  0.00  0.00    +0.000 C 
BRANCH  20  21
ATOM     21  C   UNL     1      44.394   3.466   9.931  0.00  0.00    +0.000 A 
ATOM     22  C   UNL     1      44.740   2.184   9.501  0.00  0.00    +0.000 A 
ATOM     23  C   UNL     1      45.639   2.020   8.445  0.00  0.00    +0.000 A 
ATOM     24  C   UNL     1      46.189   3.136   7.814  0.00  0.00    +0.000 A 
ATOM     25  C   UNL     1      45.846   4.419   8.240  0.00  0.00    +0.000 A 
ATOM     26  C   UNL     1      44.956   4.583   9.301  0.00  0.00    +0.000 A 
ENDBRANCH  20  21
ENDBRANCH  18  20
ENDBRANCH  16  18
ENDBRANCH   1  16
TORSDOF 6
ENDMDL
MODEL 5
REMARK VINA RESULT:    -6.893      2.353      3.138
REMARK INTER + INTRA:         -10.094
REMARK INTER:                  -9.139
REMARK INTRA:                  -0.955
REMARK UNBOUND:                -0.783
REMARK  Name = 
REMARK  7 active torsions:
REMARK  status: ('A' for Active; 'I' for Inactive)
REMARK    1  A    between atoms: C_1  and  C_2
REMARK    2  A    between atoms: C_2  and  C_3
REMARK    3  A    between atoms: C_2  and  C_18
REMARK    4  A    between atoms: C_3  and  N_4
REMARK    5  A    between atoms: N_4  and  C_5
REMARK    6  A    between atoms: C_8  and  C_9
REMARK    7  A    between atoms: C_12  and  C_13
REMARK                            x       y       z     vdW  Elec       q    Type
REMARK                         _______ _______ _______ _____ _____    ______ ____
ROOT
ATOM      1  C   UNL     1      46.478   5.872  12.483  0.00  0.00    +0.000 A 
ATOM      2  C   UNL     1      47.024   6.673  11.486  0.00  0.00    +0.000 A 
ATOM      3  C   UNL     1      48.145   7.472  11.736  0.00  0.00    +0.000 A 
ATOM      4  C   UNL     1      48.782   7.475  12.989  0.00  0.00    +0.000 A 
ATOM      5  C   UNL     1      48.250   6.686  14.018  0.00  0.00    +0.000 A 
ATOM      6  C   UNL     1      47.121   5.872  13.728  0.00  0.00    +0.000 A 
ENDROOT
BRANCH   4   7
ATOM      7  C   UNL     1      49.983   8.353  13.064  0.00  0.00    +0.000 C 
ATOM      8  N   UNL     1      51.151   7.927  12.509  0.00  0.00    +0.000 N 
ATOM      9  O   UNL     1      49.906   9.477  13.548  0.00  0.00    +0.000 OA
ATOM     10  H   UNL     1      51.351   6.969  12.259  0.00  0.00    +0.000 HD
ATOM     11  H   UNL     1      51.952   8.533  12.642  0.00  0.00    +0.000 HD
ENDBRANCH   4   7
BRANCH   5  12
ATOM     12  C   UNL     1      48.739   6.644  15.437  0.00  0.00    +0.000 C 
ATOM     13  F   UNL     1      48.210   5.676  16.227  0.00  0.00    +0.000 F 
ATOM     14  F   UNL     1      50.089   6.464  15.511  0.00  0.00    +0.000 F 
ATOM     15  F   UNL     1      48.492   7.814  16.093  0.00  0.00    +0.000 F 
ENDBRANCH   5  12
BRANCH   1  16
ATOM     16  N   UNL     1      45.412   4.988  12.286  0.00  0.00    +0.000 N 
ATOM     17  H   UNL     1      44.972   4.712  13.159  0.00  0.00    +0.000 HD
BRANCH  16  18
ATOM     18  C   UNL     1      44.451   5.246  11.224  0.00  0.00    +0.000 C 
BRANCH  18  20
ATOM     19  C   UNL     1      43.398   2.885  11.441  0.00  0.00    +0.000 C 
ATOM     20  C   UNL     1      44.028   3.951  10.595  0.00  0.00    +0.000 C 
BRANCH  20  21
ATOM     21  C   UNL     1      44.881   3.492   9.485  0.00  0.00    +0.000 A 
ATOM     22  C   UNL     1      45.509   4.419   8.652  0.00  0.00    +0.000 A 
ATOM     23  C   UNL     1      46.349   3.980   7.626  0.00  0.00    +0.000 A 
ATOM     24  C   UNL     1      46.567   2.616   7.435  0.00  0.00    +0.000 A 
ATOM     25  C   UNL     1      45.941   1.686   8.266  0.00  0.00    +0.000 A 
ATOM     26  C   UNL     1      45.094   2.122   9.283  0.00  0.00    +0.000 A 
ENDBRANCH  20  21
ENDBRANCH  18  20
ENDBRANCH  16  18
ENDBRANCH   1  16
TORSDOF 6
ENDMDL
MODEL 6
REMARK VINA RESULT:    -6.893      2.800      3.585
REMARK INTER + INTRA:         -10.093
REMARK INTER:                  -9.364
REMARK INTRA:                  -0.729
REMARK UNBOUND:                -0.783
REMARK  Name = 
REMARK  7 active torsions:
REMARK  status: ('A' for Active; 'I' for Inactive)
REMARK    1  A    between atoms: C_1  and  C_2
REMARK    2  A    between atoms: C_2  and  C_3
REMARK    3  A    between atoms: C_2  and  C_18
REMARK    4  A    between atoms: C_3  and  N_4
REMARK    5  A    between atoms: N_4  and  C_5
REMARK    6  A    between atoms: C_8  and  C_9
REMARK    7  A    between atoms: C_12  and  C_13
REMARK                            x       y       z     vdW  Elec       q    Type
REMARK                         _______ _______ _______ _____ _____    ______ ____
ROOT
ATOM      1  C   UNL     1      46.416   4.772  13.534  0.00  0.00    +0.000 A 
ATOM      2  C   UNL     1      47.108   5.929  13.191  0.00  0.00    +0.000 A 
ATOM      3  C   UNL     1      48.039   6.498  14.067  0.00  0.00    +0.000 A 
ATOM      4  C   UNL     1      48.336   5.912  15.308  0.00  0.00    +0.000 A 
ATOM      5  C   UNL     1      47.649   4.751  15.687  0.00  0.00    +0.000 A 
ATOM      6  C   UNL     1      46.722   4.186  14.770  0.00  0.00    +0.000 A 
ENDROOT
BRANCH   4   7
ATOM      7  C   UNL     1      49.380   6.630  16.091  0.00  0.00    +0.000 C 
ATOM      8  N   UNL     1      49.032   7.743  16.796  0.00  0.00    +0.000 N 
ATOM      9  O   UNL     1      50.521   6.187  16.166  0.00  0.00    +0.000 OA
ATOM     10  H   UNL     1      48.183   8.270  16.651  0.00  0.00    +0.000 HD
ATOM     11  H   UNL     1      49.791   8.229  17.259  0.00  0.00    +0.000 HD
ENDBRANCH   4   7
BRANCH   5  12
ATOM     12  C   UNL     1      47.767   4.051  17.011  0.00  0.00    +0.000 C 
ATOM     13  F   UNL     1      46.795   3.149  17.303  0.00  0.00    +0.000 F 
ATOM     14  F   UNL     1      48.937   3.360  17.125  0.00  0.00    +0.000 F 
ATOM     15  F   UNL     1      47.761   4.931  18.052  0.00  0.00    +0.000 F 
ENDBRANCH   5  12
BRANCH   1  16
ATOM     16  N   UNL     1      45.534   4.102  12.681  0.00  0.00    +0.000 N 
ATOM     17  H   UNL     1      44.823   3.583  13.189  0.00  0.00    +0.000 HD
BRANCH  16  18
ATOM     18  C   UNL     1      45.006   4.787  11.510  0.00  0.00    +0.000 C 
BRANCH  18  20
ATOM     19  C   UNL     1      43.405   2.769  11.204  0.00  0.00    +0.000 C 
ATOM     20  C   UNL     1      44.317   3.801  10.612  0.00  0.00    +0.000 C 
BRANCH  20  21
ATOM     21  C   UNL     1      45.092   3.394   9.427  0.00  0.00    +0.000 A 
ATOM     22  C   UNL     1      45.623   4.358   8.569  0.00  0.00    +0.000 A 
ATOM     23  C   UNL     1      46.391   3.968   7.470  0.00  0.00    +0.000 A 
ATOM     24  C   UNL     1      46.634   2.616   7.230  0.00  0.00    +0.000 A 
ATOM     25  C   UNL     1      46.106   1.649   8.085  0.00  0.00    +0.000 A 
ATOM     26  C   UNL     1      45.330   2.036   9.176  0.00  0.00    +0.000 A 
ENDBRANCH  20  21
ENDBRANCH  18  20
ENDBRANCH  16  18
ENDBRANCH   1  16
TORSDOF 6
ENDMDL
MODEL 7
REMARK VINA RESULT:    -6.799      1.704      2.392
REMARK INTER + INTRA:          -9.967
REMARK INTER:                  -9.307
REMARK INTRA:                  -0.660
REMARK UNBOUND:                -0.783
REMARK  Name = 
REMARK  7 active torsions:
REMARK  status: ('A' for Active; 'I' for Inactive)
REMARK    1  A    between atoms: C_1  and  C_2
REMARK    2  A    between atoms: C_2  and  C_3
REMARK    3  A    between atoms: C_2  and  C_18
REMARK    4  A    between atoms: C_3  and  N_4
REMARK    5  A    between atoms: N_4  and  C_5
REMARK    6  A    between atoms: C_8  and  C_9
REMARK    7  A    between atoms: C_12  and  C_13
REMARK                            x       y       z     vdW  Elec       q    Type
REMARK                         _______ _______ _______ _____ _____    ______ ____
ROOT
ATOM      1  C   UNL     1      46.580   5.396  12.445  0.00  0.00    +0.000 A 
ATOM      2  C   UNL     1      46.281   4.291  13.235  0.00  0.00    +0.000 A 
ATOM      3  C   UNL     1      46.799   4.169  14.529  0.00  0.00    +0.000 A 
ATOM      4  C   UNL     1      47.612   5.166  15.095  0.00  0.00    +0.000 A 
ATOM      5  C   UNL     1      47.938   6.288  14.321  0.00  0.00    +0.000 A 
ATOM      6  C   UNL     1      47.383   6.393  13.017  0.00  0.00    +0.000 A 
ENDROOT
BRANCH   4   7
ATOM      7  C   UNL     1      48.039   4.889  16.494  0.00  0.00    +0.000 C 
ATOM      8  N   UNL     1      47.152   5.088  17.509  0.00  0.00    +0.000 N 
ATOM      9  O   UNL     1      49.144   4.415  16.728  0.00  0.00    +0.000 OA
ATOM     10  H   UNL     1      46.306   5.633  17.433  0.00  0.00    +0.000 HD
ATOM     11  H   UNL     1      47.512   4.944  18.446  0.00  0.00    +0.000 HD
ENDBRANCH   4   7
BRANCH   5  12
ATOM     12  C   UNL     1      48.868   7.396  14.726  0.00  0.00    +0.000 C 
ATOM     13  F   UNL     1      48.522   8.097  15.836  0.00  0.00    +0.000 F 
ATOM     14  F   UNL     1      50.131   6.943  14.971  0.00  0.00    +0.000 F 
ATOM     15  F   UNL     1      49.001   8.331  13.742  0.00  0.00    +0.000 F 
ENDBRANCH   5  12
BRANCH   1  16
ATOM     16  N   UNL     1      46.036   5.626  11.178  0.00  0.00    +0.000 N 
ATOM     17  H   UNL     1      46.431   5.013  10.471  0.00  0.00    +0.000 HD
BRANCH  16  18
ATOM     18  C   UNL     1      44.599   5.806  11.034  0.00  0.00    +0.000 C 
BRANCH  18  20
ATOM     19  C   UNL     1      43.160   3.693  11.474  0.00  0.00    +0.000 C 
ATOM     20  C   UNL     1      43.975   4.534  10.538  0.00  0.00    +0.000 C 
BRANCH  20  21
ATOM     21  C   UNL     1      44.757   3.815   9.518  0.00  0.00    +0.000 A 
ATOM     22  C   UNL     1      45.380   4.518   8.485  0.00  0.00    +0.000 A 
ATOM     23  C   UNL     1      46.154   3.836   7.544  0.00  0.00    +0.000 A 
ATOM     24  C   UNL     1      46.312   2.453   7.636  0.00  0.00    +0.000 A 
ATOM     25  C   UNL     1      45.692   1.747   8.667  0.00  0.00    +0.000 A 
ATOM     26  C   UNL     1      44.910   2.425   9.601  0.00  0.00    +0.000 A 
ENDBRANCH  20  21
ENDBRANCH  18  20
ENDBRANCH  16  18
ENDBRANCH   1  16
TORSDOF 6
ENDMDL
MODEL 8
REMARK VINA RESULT:    -6.647      2.297      3.259
REMARK INTER + INTRA:          -9.762
REMARK INTER:                  -8.642
REMARK INTRA:                  -1.120
REMARK UNBOUND:                -0.783
REMARK  Name = 
REMARK  7 active torsions:
REMARK  status: ('A' for Active; 'I' for Inactive)
REMARK    1  A    between atoms: C_1  and  C_2
REMARK    2  A    between atoms: C_2  and  C_3
REMARK    3  A    between atoms: C_2  and  C_18
REMARK    4  A    between atoms: C_3  and  N_4
REMARK    5  A    between atoms: N_4  and  C_5
REMARK    6  A    between atoms: C_8  and  C_9
REMARK    7  A    between atoms: C_12  and  C_13
REMARK                            x       y       z     vdW  Elec       q    Type
REMARK                         _______ _______ _______ _____ _____    ______ ____
ROOT
ATOM      1  C   UNL     1      45.725   6.021  12.797  0.00  0.00    +0.000 A 
ATOM      2  C   UNL     1      47.090   6.193  13.004  0.00  0.00    +0.000 A 
ATOM      3  C   UNL     1      47.708   7.423  12.753  0.00  0.00    +0.000 A 
ATOM      4  C   UNL     1      46.975   8.539  12.313  0.00  0.00    +0.000 A 
ATOM      5  C   UNL     1      45.600   8.395  12.086  0.00  0.00    +0.000 A 
ATOM      6  C   UNL     1      44.998   7.139  12.367  0.00  0.00    +0.000 A 
ENDROOT
BRANCH   4   7
ATOM      7  C   UNL     1      47.788   9.774  12.136  0.00  0.00    +0.000 C 
ATOM      8  N   UNL     1      47.703  10.763  13.069  0.00  0.00    +0.000 N 
ATOM      9  O   UNL     1      48.582   9.873  11.207  0.00  0.00    +0.000 OA
ATOM     10  H   UNL     1      46.962  10.846  13.751  0.00  0.00    +0.000 HD
ATOM     11  H   UNL     1      48.227  11.607  12.870  0.00  0.00    +0.000 HD
ENDBRANCH   4   7
BRANCH   5  12
ATOM     12  C   UNL     1      44.686   9.447  11.524  0.00  0.00    +0.000 C 
ATOM     13  F   UNL     1      45.211  10.249  10.563  0.00  0.00    +0.000 F 
ATOM     14  F   UNL     1      43.565   8.908  10.964  0.00  0.00    +0.000 F 
ATOM     15  F   UNL     1      44.237  10.296  12.492  0.00  0.00    +0.000 F 
ENDBRANCH   5  12
BRANCH   1  16
ATOM     16  N   UNL     1      45.026   4.850  13.102  0.00  0.00    +0.000 N 
ATOM     17  H   UNL     1      44.022   5.001  13.155  0.00  0.00    +0.000 HD
BRANCH  16  18
ATOM     18  C   UNL     1      45.376   3.607  12.431  0.00  0.00    +0.000 C 
BRANCH  18  20
ATOM     19  C   UNL     1      43.258   2.421  11.518  0.00  0.00    +0.000 C 
ATOM     20  C   UNL     1      44.416   3.348  11.307  0.00  0.00    +0.000 C 
BRANCH  20  21
ATOM     21  C   UNL     1      45.018   3.354   9.963  0.00  0.00    +0.000 A 
ATOM     22  C   UNL     1      45.388   4.559   9.363  0.00  0.00    +0.000 A 
ATOM     23  C   UNL     1      45.996   4.557   8.106  0.00  0.00    +0.000 A 
ATOM     24  C   UNL     1      46.240   3.351   7.449  0.00  0.00    +0.000 A 
ATOM     25  C   UNL     1      45.874   2.144   8.045  0.00  0.00    +0.000 A 
ATOM     26  C   UNL     1      45.257   2.146   9.295  0.00  0.00    +0.000 A 
ENDBRANCH  20  21
ENDBRANCH  18  20
ENDBRANCH  16  18
ENDBRANCH   1  16
TORSDOF 6
ENDMDL
MODEL 9
REMARK VINA RESULT:    -6.627      4.120      7.524
REMARK INTER + INTRA:          -9.735
REMARK INTER:                  -8.595
REMARK INTRA:                  -1.140
REMARK UNBOUND:                -0.783
REMARK  Name = 
REMARK  7 active torsions:
REMARK  status: ('A' for Active; 'I' for Inactive)
REMARK    1  A    between atoms: C_1  and  C_2
REMARK    2  A    between atoms: C_2  and  C_3
REMARK    3  A    between atoms: C_2  and  C_18
REMARK    4  A    between atoms: C_3  and  N_4
REMARK    5  A    between atoms: N_4  and  C_5
REMARK    6  A    between atoms: C_8  and  C_9
REMARK    7  A    between atoms: C_12  and  C_13
REMARK                            x       y       z     vdW  Elec       q    Type
REMARK                         _______ _______ _______ _____ _____    ______ ____
ROOT
ATOM      1  C   UNL     1      46.573   6.998  13.135  0.00  0.00    +0.000 A 
ATOM      2  C   UNL     1      45.712   7.744  12.336  0.00  0.00    +0.000 A 
ATOM      3  C   UNL     1      44.731   7.121  11.557  0.00  0.00    +0.000 A 
ATOM      4  C   UNL     1      44.554   5.727  11.571  0.00  0.00    +0.000 A 
ATOM      5  C   UNL     1      45.412   4.947  12.358  0.00  0.00    +0.000 A 
ATOM      6  C   UNL     1      46.387   5.609  13.153  0.00  0.00    +0.000 A 
ENDROOT
BRANCH   4   7
ATOM      7  C   UNL     1      43.438   5.242  10.713  0.00  0.00    +0.000 C 
ATOM      8  N   UNL     1      43.718   4.762   9.470  0.00  0.00    +0.000 N 
ATOM      9  O   UNL     1      42.291   5.201  11.143  0.00  0.00    +0.000 OA
ATOM     10  H   UNL     1      44.584   4.921   8.976  0.00  0.00    +0.000 HD
ATOM     11  H   UNL     1      42.918   4.503   8.904  0.00  0.00    +0.000 HD
ENDBRANCH   4   7
BRANCH   5  12
ATOM     12  C   UNL     1      45.431   3.446  12.417  0.00  0.00    +0.000 C 
ATOM     13  F   UNL     1      46.395   2.886  13.192  0.00  0.00    +0.000 F 
ATOM     14  F   UNL     1      44.257   2.935  12.887  0.00  0.00    +0.000 F 
ATOM     15  F   UNL     1      45.601   2.893  11.182  0.00  0.00    +0.000 F 
ENDBRANCH   5  12
BRANCH   1  16
ATOM     16  N   UNL     1      47.521   7.553  14.000  0.00  0.00    +0.000 N 
ATOM     17  H   UNL     1      47.093   8.096  14.745  0.00  0.00    +0.000 HD
BRANCH  16  18
ATOM     18  C   UNL     1      48.637   6.741  14.461  0.00  0.00    +0.000 C 
BRANCH  18  20
ATOM     19  C   UNL     1      49.407   7.793  16.703  0.00  0.00    +0.000 C 
ATOM     20  C   UNL     1      48.666   6.721  15.962  0.00  0.00    +0.000 C 
BRANCH  20  21
ATOM     21  C   UNL     1      48.672   5.378  16.565  0.00  0.00    +0.000 A 
ATOM     22  C   UNL     1      49.769   4.950  17.316  0.00  0.00    +0.000 A 
ATOM     23  C   UNL     1      49.753   3.691  17.921  0.00  0.00    +0.000 A 
ATOM     24  C   UNL     1      48.640   2.861  17.781  0.00  0.00    +0.000 A 
ATOM     25  C   UNL     1      47.543   3.285  17.032  0.00  0.00    +0.000 A 
ATOM     26  C   UNL     1      47.562   4.537  16.419  0.00  0.00    +0.000 A 
ENDBRANCH  20  21
ENDBRANCH  18  20
ENDBRANCH  16  18
ENDBRANCH   1  16
TORSDOF 6
ENDMDL
