MODEL 1
REMARK VINA RESULT:    -8.888      0.000      0.000
REMARK INTER + INTRA:         -12.545
REMARK INTER:                 -11.486
REMARK INTRA:                  -1.059
REMARK UNBOUND:                -1.059
REMARK  Name = 
REMARK  5 active torsions:
REMARK  status: ('A' for Active; 'I' for Inactive)
REMARK    1  A    between atoms: C_2  and  C_4
REMARK    2  A    between atoms: C_7  and  O_8
REMARK    3  A    between atoms: O_8  and  C_9
REMARK    4  A    between atoms: C_9  and  C_10
REMARK    5  A    between atoms: C_15  and  C_16
REMARK                            x       y       z     vdW  Elec       q    Type
REMARK                         _______ _______ _______ _____ _____    ______ ____
ROOT
ATOM      1  C   UNL     1      43.525   4.559  11.294  0.00  0.00    +0.000 C 
ENDROOT
BRANCH   1   2
ATOM      2  C   UNL     1      44.797   4.924  12.025  0.00  0.00    +0.000 A 
ATOM      3  C   UNL     1      45.407   3.973  12.851  0.00  0.00    +0.000 A 
ATOM      4  C   UNL     1      46.618   4.264  13.461  0.00  0.00    +0.000 A 
ATOM      5  F   UNL     1      47.197   3.343  14.243  0.00  0.00    +0.000 F 
ATOM      6  C   UNL     1      47.252   5.485  13.260  0.00  0.00    +0.000 A 
ATOM      7  C   UNL     1      46.689   6.459  12.416  0.00  0.00    +0.000 A 
ATOM      8  C   UNL     1      45.450   6.152  11.811  0.00  0.00    +0.000 A 
BRANCH   7   9
ATOM      9  C   UNL     1      47.385   7.734  12.143  0.00  0.00    +0.000 A 
ATOM     10  C   UNL     1      48.739   7.792  11.785  0.00  0.00    +0.000 A 
ATOM     11  C   UNL     1      49.366   9.020  11.561  0.00  0.00    +0.000 A 
ATOM     12  C   UNL     1      48.617  10.174  11.691  0.00  0.00    +0.000 A 
ATOM     13  N   UNL     1      47.313  10.180  12.028  0.00  0.00    +0.000 NA
ATOM     14  C   UNL     1      46.738   8.970  12.247  0.00  0.00    +0.000 A 
ENDBRANCH   7   9
ENDBRANCH   1   2
BRANCH   1  15
ATOM     15  O   UNL     1      43.657   4.725   9.881  0.00  0.00    +0.000 OA
BRANCH  15  19
ATOM     16  C   UNL     1      46.341   2.261   7.835  0.00  0.00    +0.000 A 
ATOM     17  C   UNL     1      45.440   1.670   8.725  0.00  0.00    +0.000 A 
ATOM     18  C   UNL     1      44.527   2.464   9.428  0.00  0.00    +0.000 A 
ATOM     19  C   UNL     1      44.507   3.850   9.252  0.00  0.00    +0.000 A 
ATOM     20  C   UNL     1      45.421   4.437   8.372  0.00  0.00    +0.000 A 
ATOM     21  C   UNL     1      46.338   3.649   7.670  0.00  0.00    +0.000 A 
BRANCH  16  23
ATOM     22  N   UNL     1      48.415   2.101   6.570  0.00  0.00    +0.000 N 
ATOM     23  C   UNL     1      47.321   1.449   7.067  0.00  0.00    +0.000 C 
ATOM     24  O   UNL     1      47.177   0.245   6.910  0.00  0.00    +0.000 OA
ATOM     25  H   UNL     1      49.124   1.518   6.143  0.00  0.00    +0.000 HD
ATOM     26  H   UNL     1      48.697   3.014   6.896  0.00  0.00    +0.000 HD
ENDBRANCH  16  23
ENDBRANCH  15  19
ENDBRANCH   1  15
TORSDOF 5
ENDMDL
MODEL 2
REMARK VINA RESULT:    -8.318      2.125      2.713
REMARK INTER + INTRA:         -11.809
REMARK INTER:                 -11.004
REMARK INTRA:                  -0.805
REMARK UNBOUND:                -1.059
REMARK  Name = 
REMARK  5 active torsions:
REMARK  status: ('A' for Active; 'I' for Inactive)
REMARK    1  A    between atoms: C_2  and  C_4
REMARK    2  A    between atoms: C_7  and  O_8
REMARK    3  A    between atoms: O_8  and  C_9
REMARK    4  A    between atoms: C_9  and  C_10
REMARK    5  A    between atoms: C_15  and  C_16
REMARK                            x       y       z     vdW  Elec       q    Type
REMARK                         _______ _______ _______ _____ _____    ______ ____
ROOT
ATOM      1  C   UNL     1      43.923   3.441  11.607  0.00  0.00    +0.000 C 
ENDROOT
BRANCH   1   2
ATOM      2  C   UNL     1      44.397   4.877  11.598  0.00  0.00    +0.000 A 
ATOM      3  C   UNL     1      43.490   5.893  11.276  0.00  0.00    +0.000 A 
ATOM      4  C   UNL     1      43.888   7.220  11.345  0.00  0.00    +0.000 A 
ATOM      5  F   UNL     1      43.009   8.184  11.043  0.00  0.00    +0.000 F 
ATOM      6  C   UNL     1      45.174   7.567  11.742  0.00  0.00    +0.000 A 
ATOM      7  C   UNL     1      46.109   6.580  12.100  0.00  0.00    +0.000 A 
ATOM      8  C   UNL     1      45.693   5.233  12.014  0.00  0.00    +0.000 A 
BRANCH   7   9
ATOM      9  C   UNL     1      47.458   6.940  12.586  0.00  0.00    +0.000 A 
ATOM     10  C   UNL     1      48.318   7.782  11.866  0.00  0.00    +0.000 A 
ATOM     11  C   UNL     1      49.596   8.076  12.348  0.00  0.00    +0.000 A 
ATOM     12  C   UNL     1      49.987   7.527  13.554  0.00  0.00    +0.000 A 
ATOM     13  N   UNL     1      49.203   6.717  14.290  0.00  0.00    +0.000 NA
ATOM     14  C   UNL     1      47.972   6.444  13.789  0.00  0.00    +0.000 A 
ENDBRANCH   7   9
ENDBRANCH   1   2
BRANCH   1  15
ATOM     15  O   UNL     1      43.471   3.022  10.318  0.00  0.00    +0.000 OA
BRANCH  15  19
ATOM     16  C   UNL     1      46.446   2.559   7.421  0.00  0.00    +0.000 A 
ATOM     17  C   UNL     1      45.803   3.795   7.524  0.00  0.00    +0.000 A 
ATOM     18  C   UNL     1      44.801   3.987   8.482  0.00  0.00    +0.000 A 
ATOM     19  C   UNL     1      44.432   2.948   9.341  0.00  0.00    +0.000 A 
ATOM     20  C   UNL     1      45.068   1.710   9.224  0.00  0.00    +0.000 A 
ATOM     21  C   UNL     1      46.067   1.512   8.266  0.00  0.00    +0.000 A 
BRANCH  16  23
ATOM     22  N   UNL     1      47.485   3.077   5.281  0.00  0.00    +0.000 N 
ATOM     23  C   UNL     1      47.518   2.321   6.419  0.00  0.00    +0.000 C 
ATOM     24  O   UNL     1      48.412   1.509   6.614  0.00  0.00    +0.000 OA
ATOM     25  H   UNL     1      48.279   2.979   4.659  0.00  0.00    +0.000 HD
ATOM     26  H   UNL     1      46.934   3.919   5.204  0.00  0.00    +0.000 HD
ENDBRANCH  16  23
ENDBRANCH  15  19
ENDBRANCH   1  15
TORSDOF 5
ENDMDL
MODEL 3
REMARK VINA RESULT:    -8.103      2.687      3.861
REMARK INTER + INTRA:         -11.531
REMARK INTER:                 -10.820
REMARK INTRA:                  -0.711
REMARK UNBOUND:                -1.059
REMARK  Name = 
REMARK  5 active torsions:
REMARK  status: ('A' for Active; 'I' for Inactive)
REMARK    1  A    between atoms: C_2  and  C_4
REMARK    2  A    between atoms: C_7  and  O_8
REMARK    3  A    between atoms: O_8  and  C_9
REMARK    4  A    between atoms: C_9  and  C_10
REMARK    5  A    between atoms: C_15  and  C_16
REMARK                            x       y       z     vdW  Elec       q    Type
REMARK                         _______ _______ _______ _____ _____    ______ ____
ROOT
ATOM      1  C   UNL     1      43.906   3.474  11.600  0.00  0.00    +0.000 C 
ENDROOT
BRANCH   1   2
ATOM      2  C   UNL     1      44.901   4.440  12.202  0.00  0.00    +0.000 A 
ATOM      3  C   UNL     1      44.924   5.765  11.753  0.00  0.00    +0.000 A 
ATOM      4  C   UNL     1      45.774   6.682  12.354  0.00  0.00    +0.000 A 
ATOM      5  F   UNL     1      45.781   7.950  11.921  0.00  0.00    +0.000 F 
ATOM      6  C   UNL     1      46.600   6.315  13.410  0.00  0.00    +0.000 A 
ATOM      7  C   UNL     1      46.589   5.002  13.911  0.00  0.00    +0.000 A 
ATOM      8  C   UNL     1      45.728   4.076  13.282  0.00  0.00    +0.000 A 
BRANCH   7   9
ATOM      9  C   UNL     1      47.416   4.617  15.075  0.00  0.00    +0.000 A 
ATOM     10  C   UNL     1      48.059   5.561  15.888  0.00  0.00    +0.000 A 
ATOM     11  C   UNL     1      48.853   5.154  16.963  0.00  0.00    +0.000 A 
ATOM     12  C   UNL     1      48.980   3.801  17.211  0.00  0.00    +0.000 A 
ATOM     13  N   UNL     1      48.383   2.849  16.468  0.00  0.00    +0.000 NA
ATOM     14  C   UNL     1      47.626   3.279  15.427  0.00  0.00    +0.000 A 
ENDBRANCH   7   9
ENDBRANCH   1   2
BRANCH   1  15
ATOM     15  O   UNL     1      43.612   3.793  10.239  0.00  0.00    +0.000 OA
BRANCH  15  19
ATOM     16  C   UNL     1      46.572   2.608   7.538  0.00  0.00    +0.000 A 
ATOM     17  C   UNL     1      46.256   3.966   7.626  0.00  0.00    +0.000 A 
ATOM     18  C   UNL     1      45.269   4.399   8.519  0.00  0.00    +0.000 A 
ATOM     19  C   UNL     1      44.590   3.484   9.327  0.00  0.00    +0.000 A 
ATOM     20  C   UNL     1      44.900   2.125   9.225  0.00  0.00    +0.000 A 
ATOM     21  C   UNL     1      45.883   1.686   8.331  0.00  0.00    +0.000 A 
BRANCH  16  23
ATOM     22  N   UNL     1      47.952   2.922   5.556  0.00  0.00    +0.000 N 
ATOM     23  C   UNL     1      47.618   2.111   6.606  0.00  0.00    +0.000 C 
ATOM     24  O   UNL     1      48.182   1.041   6.782  0.00  0.00    +0.000 OA
ATOM     25  H   UNL     1      48.737   2.619   4.994  0.00  0.00    +0.000 HD
ATOM     26  H   UNL     1      47.707   3.900   5.527  0.00  0.00    +0.000 HD
ENDBRANCH  16  23
ENDBRANCH  15  19
ENDBRANCH   1  15
TORSDOF 5
ENDMDL
MODEL 4
REMARK VINA RESULT:    -7.439      2.671      6.852
REMARK INTER + INTRA:         -10.672
REMARK INTER:                  -9.812
REMARK INTRA:                  -0.860
REMARK UNBOUND:                -1.059
REMARK  Name = 
REMARK  5 active torsions:
REMARK  status: ('A' for Active; 'I' for Inactive)
REMARK    1  A    between atoms: C_2  and  C_4
REMARK    2  A    between atoms: C_7  and  O_8
REMARK    3  A    between atoms: O_8  and  C_9
REMARK    4  A    between atoms: C_9  and  C_10
REMARK    5  A    between atoms: C_15  and  C_16
REMARK                            x       y       z     vdW  Elec       q    Type
REMARK                         _______ _______ _______ _____ _____    ______ ____
ROOT
ATOM      1  C   UNL     1      44.448   6.608  11.125  0.00  0.00    +0.000 C 
ENDROOT
BRANCH   1   2
ATOM      2  C   UNL     1      44.506   5.139  10.773  0.00  0.00    +0.000 A 
ATOM      3  C   UNL     1      43.704   4.235  11.479  0.00  0.00    +0.000 A 
ATOM      4  C   UNL     1      43.684   2.898  11.113  0.00  0.00    +0.000 A 
ATOM      5  F   UNL     1      42.905   2.044  11.791  0.00  0.00    +0.000 F 
ATOM      6  C   UNL     1      44.440   2.432  10.043  0.00  0.00    +0.000 A 
ATOM      7  C   UNL     1      45.238   3.309   9.289  0.00  0.00    +0.000 A 
ATOM      8  C   UNL     1      45.257   4.666   9.681  0.00  0.00    +0.000 A 
BRANCH   7   9
ATOM      9  C   UNL     1      45.996   2.837   8.110  0.00  0.00    +0.000 A 
ATOM     10  C   UNL     1      46.298   3.671   7.024  0.00  0.00    +0.000 A 
ATOM     11  C   UNL     1      46.993   3.178   5.918  0.00  0.00    +0.000 A 
ATOM     12  C   UNL     1      47.385   1.853   5.924  0.00  0.00    +0.000 A 
ATOM     13  N   UNL     1      47.127   1.007   6.940  0.00  0.00    +0.000 NA
ATOM     14  C   UNL     1      46.443   1.516   7.995  0.00  0.00    +0.000 A 
ENDBRANCH   7   9
ENDBRANCH   1   2
BRANCH   1  15
ATOM     15  O   UNL     1      45.048   6.876  12.393  0.00  0.00    +0.000 OA
BRANCH  15  19
ATOM     16  C   UNL     1      49.073   7.996  12.354  0.00  0.00    +0.000 A 
ATOM     17  C   UNL     1      48.107   8.977  12.121  0.00  0.00    +0.000 A 
ATOM     18  C   UNL     1      46.749   8.638  12.125  0.00  0.00    +0.000 A 
ATOM     19  C   UNL     1      46.345   7.321  12.360  0.00  0.00    +0.000 A 
ATOM     20  C   UNL     1      47.317   6.341  12.579  0.00  0.00    +0.000 A 
ATOM     21  C   UNL     1      48.676   6.673  12.571  0.00  0.00    +0.000 A 
BRANCH  16  23
ATOM     22  N   UNL     1      51.247   7.910  13.449  0.00  0.00    +0.000 N 
ATOM     23  C   UNL     1      50.524   8.319  12.363  0.00  0.00    +0.000 C 
ATOM     24  O   UNL     1      51.060   8.896  11.427  0.00  0.00    +0.000 OA
ATOM     25  H   UNL     1      52.249   8.042  13.392  0.00  0.00    +0.000 HD
ATOM     26  H   UNL     1      50.904   7.218  14.099  0.00  0.00    +0.000 HD
ENDBRANCH  16  23
ENDBRANCH  15  19
ENDBRANCH   1  15
TORSDOF 5
ENDMDL
MODEL 5
REMARK VINA RESULT:    -6.951      3.726      7.407
REMARK INTER + INTRA:         -10.042
REMARK INTER:                  -9.385
REMARK INTRA:                  -0.657
REMARK UNBOUND:                -1.059
REMARK  Name = 
REMARK  5 active torsions:
REMARK  status: ('A' for Active; 'I' for Inactive)
REMARK    1  A    between atoms: C_2  and  C_4
REMARK    2  A    between atoms: C_7  and  O_8
REMARK    3  A    between atoms: O_8  and  C_9
REMARK    4  A    between atoms: C_9  and  C_10
REMARK    5  A    between atoms: C_15  and  C_16
REMARK                            x       y       z     vdW  Elec       q    Type
REMARK                         _______ _______ _______ _____ _____    ______ ____
ROOT
ATOM      1  C   UNL     1      46.108   7.278  12.675  0.00  0.00    +0.000 C 
ENDROOT
BRANCH   1   2
ATOM      2  C   UNL     1      45.228   6.293  11.940  0.00  0.00    +0.000 A 
ATOM      3  C   UNL     1      43.843   6.333  12.138  0.00  0.00    +0.000 A 
ATOM      4  C   UNL     1      43.016   5.492  11.408  0.00  0.00    +0.000 A 
ATOM      5  F   UNL     1      41.692   5.546  11.601  0.00  0.00    +0.000 F 
ATOM      6  C   UNL     1      43.535   4.611  10.467  0.00  0.00    +0.000 A 
ATOM      7  C   UNL     1      44.917   4.556  10.215  0.00  0.00    +0.000 A 
ATOM      8  C   UNL     1      45.747   5.410  10.974  0.00  0.00    +0.000 A 
BRANCH   7   9
ATOM      9  C   UNL     1      45.473   3.670   9.171  0.00  0.00    +0.000 A 
ATOM     10  C   UNL     1      46.040   4.162   7.987  0.00  0.00    +0.000 A 
ATOM     11  C   UNL     1      46.530   3.289   7.013  0.00  0.00    +0.000 A 
ATOM     12  C   UNL     1      46.454   1.929   7.250  0.00  0.00    +0.000 A 
ATOM     13  N   UNL     1      45.926   1.399   8.370  0.00  0.00    +0.000 NA
ATOM     14  C   UNL     1      45.451   2.276   9.290  0.00  0.00    +0.000 A 
ENDBRANCH   7   9
ENDBRANCH   1   2
BRANCH   1  15
ATOM     15  O   UNL     1      47.444   6.792  12.821  0.00  0.00    +0.000 OA
BRANCH  15  19
ATOM     16  C   UNL     1      48.228   4.981  16.503  0.00  0.00    +0.000 A 
ATOM     17  C   UNL     1      48.868   6.185  16.204  0.00  0.00    +0.000 A 
ATOM     18  C   UNL     1      48.631   6.820  14.980  0.00  0.00    +0.000 A 
ATOM     19  C   UNL     1      47.756   6.259  14.046  0.00  0.00    +0.000 A 
ATOM     20  C   UNL     1      47.130   5.046  14.344  0.00  0.00    +0.000 A 
ATOM     21  C   UNL     1      47.367   4.405  15.564  0.00  0.00    +0.000 A 
BRANCH  16  23
ATOM     22  N   UNL     1      47.393   4.210  18.656  0.00  0.00    +0.000 N 
ATOM     23  C   UNL     1      48.452   4.280  17.795  0.00  0.00    +0.000 C 
ATOM     24  O   UNL     1      49.524   3.759  18.068  0.00  0.00    +0.000 OA
ATOM     25  H   UNL     1      47.528   3.640  19.482  0.00  0.00    +0.000 HD
ATOM     26  H   UNL     1      46.443   4.389  18.364  0.00  0.00    +0.000 HD
ENDBRANCH  16  23
ENDBRANCH  15  19
ENDBRANCH   1  15
TORSDOF 5
ENDMDL
MODEL 6
REMARK VINA RESULT:    -6.840      4.465      8.046
REMARK INTER + INTRA:          -9.899
REMARK INTER:                  -9.352
REMARK INTRA:                  -0.546
REMARK UNBOUND:                -1.059
REMARK  Name = 
REMARK  5 active torsions:
REMARK  status: ('A' for Active; 'I' for Inactive)
REMARK    1  A    between atoms: C_2  and  C_4
REMARK    2  A    between atoms: C_7  and  O_8
REMARK    3  A    between atoms: O_8  and  C_9
REMARK    4  A    between atoms: C_9  and  C_10
REMARK    5  A    between atoms: C_15  and  C_16
REMARK                            x       y       z     vdW  Elec       q    Type
REMARK                         _______ _______ _______ _____ _____    ______ ____
ROOT
ATOM      1  C   UNL     1      46.083   5.403  13.944  0.00  0.00    +0.000 C 
ENDROOT
BRANCH   1   2
ATOM      2  C   UNL     1      45.179   5.042  12.787  0.00  0.00    +0.000 A 
ATOM      3  C   UNL     1      43.831   5.414  12.831  0.00  0.00    +0.000 A 
ATOM      4  C   UNL     1      43.010   5.164  11.742  0.00  0.00    +0.000 A 
ATOM      5  F   UNL     1      41.723   5.533  11.793  0.00  0.00    +0.000 F 
ATOM      6  C   UNL     1      43.503   4.558  10.592  0.00  0.00    +0.000 A 
ATOM      7  C   UNL     1      44.857   4.193  10.493  0.00  0.00    +0.000 A 
ATOM      8  C   UNL     1      45.678   4.444  11.615  0.00  0.00    +0.000 A 
BRANCH   7   9
ATOM      9  C   UNL     1      45.406   3.607   9.252  0.00  0.00    +0.000 A 
ATOM     10  C   UNL     1      45.579   2.226   9.082  0.00  0.00    +0.000 A 
ATOM     11  C   UNL     1      46.126   1.715   7.903  0.00  0.00    +0.000 A 
ATOM     12  C   UNL     1      46.482   2.602   6.904  0.00  0.00    +0.000 A 
ATOM     13  N   UNL     1      46.334   3.937   7.009  0.00  0.00    +0.000 NA
ATOM     14  C   UNL     1      45.809   4.400   8.171  0.00  0.00    +0.000 A 
ENDBRANCH   7   9
ENDBRANCH   1   2
BRANCH   1  15
ATOM     15  O   UNL     1      46.875   4.292  14.367  0.00  0.00    +0.000 OA
BRANCH  15  19
ATOM     16  C   UNL     1      48.663   4.460  18.140  0.00  0.00    +0.000 A 
ATOM     17  C   UNL     1      48.742   5.584  17.315  0.00  0.00    +0.000 A 
ATOM     18  C   UNL     1      48.156   5.564  16.044  0.00  0.00    +0.000 A 
ATOM     19  C   UNL     1      47.490   4.424  15.587  0.00  0.00    +0.000 A 
ATOM     20  C   UNL     1      47.426   3.297  16.410  0.00  0.00    +0.000 A 
ATOM     21  C   UNL     1      48.014   3.310  17.679  0.00  0.00    +0.000 A 
BRANCH  16  23
ATOM     22  N   UNL     1      48.523   3.905  20.506  0.00  0.00    +0.000 N 
ATOM     23  C   UNL     1      49.269   4.446  19.497  0.00  0.00    +0.000 C 
ATOM     24  O   UNL     1      50.398   4.869  19.702  0.00  0.00    +0.000 OA
ATOM     25  H   UNL     1      48.989   3.805  21.400  0.00  0.00    +0.000 HD
ATOM     26  H   UNL     1      47.718   3.320  20.333  0.00  0.00    +0.000 HD
ENDBRANCH  16  23
ENDBRANCH  15  19
ENDBRANCH   1  15
TORSDOF 5
ENDMDL
MODEL 7
REMARK VINA RESULT:    -6.614      2.678      6.815
REMARK INTER + INTRA:          -9.607
REMARK INTER:                  -8.824
REMARK INTRA:                  -0.783
REMARK UNBOUND:                -1.059
REMARK  Name = 
REMARK  5 active torsions:
REMARK  status: ('A' for Active; 'I' for Inactive)
REMARK    1  A    between atoms: C_2  and  C_4
REMARK    2  A    between atoms: C_7  and  O_8
REMARK    3  A    between atoms: O_8  and  C_9
REMARK    4  A    between atoms: C_9  and  C_10
REMARK    5  A    between atoms: C_15  and  C_16
REMARK                            x       y       z     vdW  Elec       q    Type
REMARK                         _______ _______ _______ _____ _____    ______ ____
ROOT
ATOM      1  C   UNL     1      46.051   5.015  14.028  0.00  0.00    +0.000 C 
ENDROOT
BRANCH   1   2
ATOM      2  C   UNL     1      45.162   4.774  12.828  0.00  0.00    +0.000 A 
ATOM      3  C   UNL     1      43.834   5.214  12.863  0.00  0.00    +0.000 A 
ATOM      4  C   UNL     1      43.031   5.075  11.741  0.00  0.00    +0.000 A 
ATOM      5  F   UNL     1      41.764   5.507  11.784  0.00  0.00    +0.000 F 
ATOM      6  C   UNL     1      43.524   4.515  10.567  0.00  0.00    +0.000 A 
ATOM      7  C   UNL     1      44.859   4.086  10.479  0.00  0.00    +0.000 A 
ATOM      8  C   UNL     1      45.661   4.223  11.634  0.00  0.00    +0.000 A 
BRANCH   7   9
ATOM      9  C   UNL     1      45.412   3.549   9.217  0.00  0.00    +0.000 A 
ATOM     10  C   UNL     1      45.586   2.176   8.994  0.00  0.00    +0.000 A 
ATOM     11  C   UNL     1      46.136   1.712   7.797  0.00  0.00    +0.000 A 
ATOM     12  C   UNL     1      46.493   2.637   6.834  0.00  0.00    +0.000 A 
ATOM     13  N   UNL     1      46.344   3.967   6.990  0.00  0.00    +0.000 NA
ATOM     14  C   UNL     1      45.815   4.384   8.169  0.00  0.00    +0.000 A 
ENDBRANCH   7   9
ENDBRANCH   1   2
BRANCH   1  15
ATOM     15  O   UNL     1      47.403   5.273  13.644  0.00  0.00    +0.000 OA
BRANCH  15  19
ATOM     16  C   UNL     1      48.386   8.985  11.997  0.00  0.00    +0.000 A 
ATOM     17  C   UNL     1      47.191   8.869  12.711  0.00  0.00    +0.000 A 
ATOM     18  C   UNL     1      46.829   7.641  13.276  0.00  0.00    +0.000 A 
ATOM     19  C   UNL     1      47.652   6.521  13.132  0.00  0.00    +0.000 A 
ATOM     20  C   UNL     1      48.839   6.639  12.403  0.00  0.00    +0.000 A 
ATOM     21  C   UNL     1      49.204   7.863  11.833  0.00  0.00    +0.000 A 
BRANCH  16  23
ATOM     22  N   UNL     1      47.816  11.152  11.043  0.00  0.00    +0.000 N 
ATOM     23  C   UNL     1      48.806  10.274  11.387  0.00  0.00    +0.000 C 
ATOM     24  O   UNL     1      49.985  10.557  11.228  0.00  0.00    +0.000 OA
ATOM     25  H   UNL     1      48.121  12.065  10.729  0.00  0.00    +0.000 HD
ATOM     26  H   UNL     1      46.873  11.070  11.392  0.00  0.00    +0.000 HD
ENDBRANCH  16  23
ENDBRANCH  15  19
ENDBRANCH   1  15
TORSDOF 5
ENDMDL
MODEL 8
REMARK VINA RESULT:    -6.612      5.432      7.889
REMARK INTER + INTRA:          -9.604
REMARK INTER:                  -8.790
REMARK INTRA:                  -0.814
REMARK UNBOUND:                -1.059
REMARK  Name = 
REMARK  5 active torsions:
REMARK  status: ('A' for Active; 'I' for Inactive)
REMARK    1  A    between atoms: C_2  and  C_4
REMARK    2  A    between atoms: C_7  and  O_8
REMARK    3  A    between atoms: O_8  and  C_9
REMARK    4  A    between atoms: C_9  and  C_10
REMARK    5  A    between atoms: C_15  and  C_16
REMARK                            x       y       z     vdW  Elec       q    Type
REMARK                         _______ _______ _______ _____ _____    ______ ____
ROOT
ATOM      1  C   UNL     1      48.885   6.603  15.753  0.00  0.00    +0.000 C 
ENDROOT
BRANCH   1   2
ATOM      2  C   UNL     1      48.259   6.712  14.381  0.00  0.00    +0.000 A 
ATOM      3  C   UNL     1      48.832   7.569  13.435  0.00  0.00    +0.000 A 
ATOM      4  C   UNL     1      48.319   7.617  12.147  0.00  0.00    +0.000 A 
ATOM      5  F   UNL     1      48.882   8.435  11.248  0.00  0.00    +0.000 F 
ATOM      6  C   UNL     1      47.248   6.816  11.767  0.00  0.00    +0.000 A 
ATOM      7  C   UNL     1      46.660   5.920  12.678  0.00  0.00    +0.000 A 
ATOM      8  C   UNL     1      47.186   5.891  13.988  0.00  0.00    +0.000 A 
BRANCH   7   9
ATOM      9  C   UNL     1      45.564   5.017  12.267  0.00  0.00    +0.000 A 
ATOM     10  C   UNL     1      45.227   4.803  10.923  0.00  0.00    +0.000 A 
ATOM     11  C   UNL     1      44.167   3.962  10.578  0.00  0.00    +0.000 A 
ATOM     12  C   UNL     1      43.465   3.339  11.592  0.00  0.00    +0.000 A 
ATOM     13  N   UNL     1      43.746   3.503  12.899  0.00  0.00    +0.000 NA
ATOM     14  C   UNL     1      44.776   4.333  13.199  0.00  0.00    +0.000 A 
ENDBRANCH   7   9
ENDBRANCH   1   2
BRANCH   1  15
ATOM     15  O   UNL     1      48.298   5.553  16.524  0.00  0.00    +0.000 OA
BRANCH  15  19
ATOM     16  C   UNL     1      50.992   2.498  17.457  0.00  0.00    +0.000 A 
ATOM     17  C   UNL     1      49.691   2.149  17.087  0.00  0.00    +0.000 A 
ATOM     18  C   UNL     1      48.761   3.145  16.768  0.00  0.00    +0.000 A 
ATOM     19  C   UNL     1      49.120   4.495  16.819  0.00  0.00    +0.000 A 
ATOM     20  C   UNL     1      50.419   4.839  17.204  0.00  0.00    +0.000 A 
ATOM     21  C   UNL     1      51.350   3.848  17.527  0.00  0.00    +0.000 A 
BRANCH  16  23
ATOM     22  N   UNL     1      51.548   0.215  18.093  0.00  0.00    +0.000 N 
ATOM     23  C   UNL     1      52.007   1.468  17.797  0.00  0.00    +0.000 C 
ATOM     24  O   UNL     1      53.205   1.714  17.783  0.00  0.00    +0.000 OA
ATOM     25  H   UNL     1      52.254  -0.500  18.218  0.00  0.00    +0.000 HD
ATOM     26  H   UNL     1      50.613  -0.089  17.863  0.00  0.00    +0.000 HD
ENDBRANCH  16  23
ENDBRANCH  15  19
ENDBRANCH   1  15
TORSDOF 5
ENDMDL
MODEL 9
REMARK VINA RESULT:    -6.529      4.823      8.275
REMARK INTER + INTRA:          -9.497
REMARK INTER:                  -8.748
REMARK INTRA:                  -0.749
REMARK UNBOUND:                -1.059
REMARK  Name = 
REMARK  5 active torsions:
REMARK  status: ('A' for Active; 'I' for Inactive)
REMARK    1  A    between atoms: C_2  and  C_4
REMARK    2  A    between atoms: C_7  and  O_8
REMARK    3  A    between atoms: O_8  and  C_9
REMARK    4  A    between atoms: C_9  and  C_10
REMARK    5  A    between atoms: C_15  and  C_16
REMARK                            x       y       z     vdW  Elec       q    Type
REMARK                         _______ _______ _______ _____ _____    ______ ____
ROOT
ATOM      1  C   UNL     1      48.274   7.217  14.095  0.00  0.00    +0.000 C 
ENDROOT
BRANCH   1   2
ATOM      2  C   UNL     1      47.047   7.263  13.211  0.00  0.00    +0.000 A 
ATOM      3  C   UNL     1      46.322   8.455  13.110  0.00  0.00    +0.000 A 
ATOM      4  C   UNL     1      45.245   8.536  12.240  0.00  0.00    +0.000 A 
ATOM      5  F   UNL     1      44.563   9.686  12.146  0.00  0.00    +0.000 F 
ATOM      6  C   UNL     1      44.874   7.455  11.449  0.00  0.00    +0.000 A 
ATOM      7  C   UNL     1      45.592   6.247  11.497  0.00  0.00    +0.000 A 
ATOM      8  C   UNL     1      46.679   6.176  12.396  0.00  0.00    +0.000 A 
BRANCH   7   9
ATOM      9  C   UNL     1      45.247   5.113  10.614  0.00  0.00    +0.000 A 
ATOM     10  C   UNL     1      45.607   5.076   9.259  0.00  0.00    +0.000 A 
ATOM     11  C   UNL     1      45.238   3.997   8.452  0.00  0.00    +0.000 A 
ATOM     12  C   UNL     1      44.520   2.963   9.023  0.00  0.00    +0.000 A 
ATOM     13  N   UNL     1      44.152   2.942  10.319  0.00  0.00    +0.000 NA
ATOM     14  C   UNL     1      44.518   4.010  11.071  0.00  0.00    +0.000 A 
ENDBRANCH   7   9
ENDBRANCH   1   2
BRANCH   1  15
ATOM     15  O   UNL     1      48.568   5.887  14.526  0.00  0.00    +0.000 OA
BRANCH  15  19
ATOM     16  C   UNL     1      48.165   5.331  18.648  0.00  0.00    +0.000 A 
ATOM     17  C   UNL     1      47.568   4.405  17.789  0.00  0.00    +0.000 A 
ATOM     18  C   UNL     1      47.682   4.559  16.403  0.00  0.00    +0.000 A 
ATOM     19  C   UNL     1      48.387   5.638  15.863  0.00  0.00    +0.000 A 
ATOM     20  C   UNL     1      48.970   6.570  16.727  0.00  0.00    +0.000 A 
ATOM     21  C   UNL     1      48.856   6.422  18.113  0.00  0.00    +0.000 A 
BRANCH  16  23
ATOM     22  N   UNL     1      48.568   4.050  20.679  0.00  0.00    +0.000 N 
ATOM     23  C   UNL     1      48.070   5.197  20.125  0.00  0.00    +0.000 C 
ATOM     24  O   UNL     1      47.598   6.083  20.823  0.00  0.00    +0.000 OA
ATOM     25  H   UNL     1      48.594   4.020  21.690  0.00  0.00    +0.000 HD
ATOM     26  H   UNL     1      49.189   3.431  20.178  0.00  0.00    +0.000 HD
ENDBRANCH  16  23
ENDBRANCH  15  19
ENDBRANCH   1  15
TORSDOF 5
ENDMDL
