MODEL 1
REMARK VINA RESULT:    -8.133      0.000      0.000
REMARK INTER + INTRA:         -11.991
REMARK INTER:                 -10.986
REMARK INTRA:                  -1.006
REMARK UNBOUND:                -1.006
REMARK  Name = 
REMARK  7 active torsions:
REMARK  status: ('A' for Active; 'I' for Inactive)
REMARK    1  A    between atoms: C_1  and  C_2
REMARK    2  A    between atoms: C_2  and  N_3
REMARK    3  A    between atoms: C_2  and  C_16
REMARK    4  A    between atoms: C_4  and  C_6
REMARK    5  A    between atoms: C_19  and  C_20
REMARK    6  A    between atoms: C_20  and  N_21
REMARK    7  A    between atoms: C_22  and  C_24
REMARK                            x       y       z     vdW  Elec       q    Type
REMARK                         _______ _______ _______ _____ _____    ______ ____
ROOT
ATOM      1  C   UNL     1      47.621   9.149  13.241  0.00  0.00    +0.000 C 
ATOM      2  C   UNL     1      47.995   7.732  13.695  0.00  0.00    +0.000 C 
ENDROOT
BRANCH   2   3
ATOM      3  C   UNL     1      47.037   6.714  13.088  0.00  0.00    +0.000 A 
ATOM      4  C   UNL     1      46.423   6.956  11.852  0.00  0.00    +0.000 A 
ATOM      5  C   UNL     1      45.575   6.002  11.277  0.00  0.00    +0.000 A 
ATOM      6  C   UNL     1      45.316   4.788  11.928  0.00  0.00    +0.000 A 
ATOM      7  C   UNL     1      45.930   4.543  13.163  0.00  0.00    +0.000 A 
ATOM      8  C   UNL     1      46.774   5.495  13.737  0.00  0.00    +0.000 A 
BRANCH   6   9
ATOM      9  C   UNL     1      44.432   3.747  11.294  0.00  0.00    +0.000 C 
BRANCH   9  10
ATOM     10  N   UNL     1      45.170   2.924  10.372  0.00  0.00    +0.000 N 
ATOM     11  C   UNL     1      45.137   3.150   9.014  0.00  0.00    +0.000 C 
ATOM     12  O   UNL     1      44.486   4.065   8.518  0.00  0.00    +0.000 OA
ATOM     13  H   UNL     1      45.765   2.181  10.716  0.00  0.00    +0.000 HD
BRANCH  11  14
ATOM     14  C   UNL     1      45.929   2.219   8.237  0.00  0.00    +0.000 A 
ATOM     15  C   UNL     1      46.792   2.420   7.175  0.00  0.00    +0.000 A 
ATOM     16  C   UNL     1      47.277   1.146   6.793  0.00  0.00    +0.000 A 
ATOM     17  C   UNL     1      46.685   0.243   7.643  0.00  0.00    +0.000 A 
ATOM     18  O   UNL     1      45.871   0.877   8.525  0.00  0.00    +0.000 OA
ENDBRANCH  11  14
ENDBRANCH   9  10
ENDBRANCH   6   9
ENDBRANCH   2   3
BRANCH   2  19
ATOM     19  N   UNL     1      47.992   7.581  15.143  0.00  0.00    +0.000 N 
ATOM     20  C   UNL     1      49.061   7.094  15.852  0.00  0.00    +0.000 C 
ATOM     21  O   UNL     1      50.128   6.796  15.324  0.00  0.00    +0.000 OA
ATOM     22  H   UNL     1      47.076   7.511  15.575  0.00  0.00    +0.000 HD
BRANCH  20  23
ATOM     23  C   UNL     1      48.892   7.011  17.307  0.00  0.00    +0.000 A 
ATOM     24  C   UNL     1      48.775   8.176  18.052  0.00  0.00    +0.000 A 
ATOM     25  S   UNL     1      48.573   7.904  19.722  0.00  0.00    +0.000 S 
ATOM     26  C   UNL     1      48.680   6.218  19.516  0.00  0.00    +0.000 A 
ATOM     27  N   UNL     1      48.623   5.377  20.582  0.00  0.00    +0.000 NA
ATOM     28  C   UNL     1      48.753   4.128  20.284  0.00  0.00    +0.000 A 
ATOM     29  N   UNL     1      48.922   3.642  19.013  0.00  0.00    +0.000 N 
ATOM     30  C   UNL     1      48.941   4.451  17.901  0.00  0.00    +0.000 A 
ATOM     31  O   UNL     1      49.022   3.983  16.770  0.00  0.00    +0.000 OA
ATOM     32  C   UNL     1      48.832   5.868  18.186  0.00  0.00    +0.000 A 
ATOM     33  H   UNL     1      48.998   2.649  18.846  0.00  0.00    +0.000 HD
ENDBRANCH  20  23
ENDBRANCH   2  19
TORSDOF 6
ENDMDL
MODEL 2
REMARK VINA RESULT:    -7.680      1.499      2.363
REMARK INTER + INTRA:         -11.380
REMARK INTER:                 -10.250
REMARK INTRA:                  -1.130
REMARK UNBOUND:                -1.006
REMARK  Name = 
REMARK  7 active torsions:
REMARK  status: ('A' for Active; 'I' for Inactive)
REMARK    1  A    between atoms: C_1  and  C_2
REMARK    2  A    between atoms: C_2  and  N_3
REMARK    3  A    between atoms: C_2  and  C_16
REMARK    4  A    between atoms: C_4  and  C_6
REMARK    5  A    between atoms: C_19  and  C_20
REMARK    6  A    between atoms: C_20  and  N_21
REMARK    7  A    between atoms: C_22  and  C_24
REMARK                            x       y       z     vdW  Elec       q    Type
REMARK                         _______ _______ _______ _____ _____    ______ ____
ROOT
ATOM      1  C   UNL     1      47.711   9.159  13.003  0.00  0.00    +0.000 C 
ATOM      2  C   UNL     1      47.970   7.731  13.499  0.00  0.00    +0.000 C 
ENDROOT
BRANCH   2   3
ATOM      3  C   UNL     1      46.985   6.762  12.856  0.00  0.00    +0.000 A 
ATOM      4  C   UNL     1      46.213   7.151  11.754  0.00  0.00    +0.000 A 
ATOM      5  C   UNL     1      45.338   6.248  11.139  0.00  0.00    +0.000 A 
ATOM      6  C   UNL     1      45.210   4.936  11.616  0.00  0.00    +0.000 A 
ATOM      7  C   UNL     1      45.981   4.544  12.718  0.00  0.00    +0.000 A 
ATOM      8  C   UNL     1      46.852   5.446  13.332  0.00  0.00    +0.000 A 
BRANCH   6   9
ATOM      9  C   UNL     1      44.295   3.954  10.935  0.00  0.00    +0.000 C 
BRANCH   9  10
ATOM     10  N   UNL     1      45.031   3.065  10.074  0.00  0.00    +0.000 N 
ATOM     11  C   UNL     1      45.285   3.378   8.757  0.00  0.00    +0.000 C 
ATOM     12  O   UNL     1      44.908   4.431   8.250  0.00  0.00    +0.000 OA
ATOM     13  H   UNL     1      45.412   2.201  10.440  0.00  0.00    +0.000 HD
BRANCH  11  14
ATOM     14  C   UNL     1      46.027   2.363   8.038  0.00  0.00    +0.000 A 
ATOM     15  C   UNL     1      46.823   2.444   6.909  0.00  0.00    +0.000 A 
ATOM     16  C   UNL     1      47.282   1.132   6.637  0.00  0.00    +0.000 A 
ATOM     17  C   UNL     1      46.743   0.330   7.613  0.00  0.00    +0.000 A 
ATOM     18  O   UNL     1      45.986   1.061   8.470  0.00  0.00    +0.000 OA
ENDBRANCH  11  14
ENDBRANCH   9  10
ENDBRANCH   6   9
ENDBRANCH   2   3
BRANCH   2  19
ATOM     19  N   UNL     1      47.878   7.608  14.948  0.00  0.00    +0.000 N 
ATOM     20  C   UNL     1      48.866   7.053  15.721  0.00  0.00    +0.000 C 
ATOM     21  O   UNL     1      49.933   6.663  15.257  0.00  0.00    +0.000 OA
ATOM     22  H   UNL     1      46.937   7.618  15.329  0.00  0.00    +0.000 HD
BRANCH  20  23
ATOM     23  C   UNL     1      48.613   7.010  17.166  0.00  0.00    +0.000 A 
ATOM     24  C   UNL     1      48.737   5.808  17.849  0.00  0.00    +0.000 A 
ATOM     25  S   UNL     1      48.420   5.934  19.519  0.00  0.00    +0.000 S 
ATOM     26  C   UNL     1      48.061   7.592  19.381  0.00  0.00    +0.000 A 
ATOM     27  N   UNL     1      47.667   8.315  20.462  0.00  0.00    +0.000 NA
ATOM     28  C   UNL     1      47.392   9.550  20.208  0.00  0.00    +0.000 A 
ATOM     29  N   UNL     1      47.490  10.131  18.970  0.00  0.00    +0.000 N 
ATOM     30  C   UNL     1      47.927   9.451  17.857  0.00  0.00    +0.000 A 
ATOM     31  O   UNL     1      48.073  10.015  16.778  0.00  0.00    +0.000 OA
ATOM     32  C   UNL     1      48.216   8.049  18.085  0.00  0.00    +0.000 A 
ATOM     33  H   UNL     1      47.279  11.110  18.841  0.00  0.00    +0.000 HD
ENDBRANCH  20  23
ENDBRANCH   2  19
TORSDOF 6
ENDMDL
MODEL 3
REMARK VINA RESULT:    -7.492      2.733      4.534
REMARK INTER + INTRA:         -11.126
REMARK INTER:                  -9.964
REMARK INTRA:                  -1.162
REMARK UNBOUND:                -1.006
REMARK  Name = 
REMARK  7 active torsions:
REMARK  status: ('A' for Active; 'I' for Inactive)
REMARK    1  A    between atoms: C_1  and  C_2
REMARK    2  A    between atoms: C_2  and  N_3
REMARK    3  A    between atoms: C_2  and  C_16
REMARK    4  A    between atoms: C_4  and  C_6
REMARK    5  A    between atoms: C_19  and  C_20
REMARK    6  A    between atoms: C_20  and  N_21
REMARK    7  A    between atoms: C_22  and  C_24
REMARK                            x       y       z     vdW  Elec       q    Type
REMARK                         _______ _______ _______ _____ _____    ______ ____
ROOT
ATOM      1  C   UNL     1      47.437   3.938  15.649  0.00  0.00    +0.000 C 
ATOM      2  C   UNL     1      47.108   5.251  14.927  0.00  0.00    +0.000 C 
ENDROOT
BRANCH   2   3
ATOM      3  C   UNL     1      46.236   4.979  13.708  0.00  0.00    +0.000 A 
ATOM      4  C   UNL     1      45.623   6.032  13.016  0.00  0.00    +0.000 A 
ATOM      5  C   UNL     1      44.855   5.784  11.871  0.00  0.00    +0.000 A 
ATOM      6  C   UNL     1      44.676   4.477  11.398  0.00  0.00    +0.000 A 
ATOM      7  C   UNL     1      45.288   3.422  12.087  0.00  0.00    +0.000 A 
ATOM      8  C   UNL     1      46.053   3.670  13.229  0.00  0.00    +0.000 A 
BRANCH   6   9
ATOM      9  C   UNL     1      43.879   4.213  10.148  0.00  0.00    +0.000 C 
BRANCH   9  10
ATOM     10  N   UNL     1      44.645   3.461   9.189  0.00  0.00    +0.000 N 
ATOM     11  C   UNL     1      45.616   4.053   8.414  0.00  0.00    +0.000 C 
ATOM     12  O   UNL     1      45.888   5.247   8.504  0.00  0.00    +0.000 OA
ATOM     13  H   UNL     1      44.505   2.462   9.096  0.00  0.00    +0.000 HD
BRANCH  11  14
ATOM     14  C   UNL     1      46.277   3.149   7.495  0.00  0.00    +0.000 A 
ATOM     15  C   UNL     1      46.685   3.319   6.184  0.00  0.00    +0.000 A 
ATOM     16  C   UNL     1      47.260   2.092   5.772  0.00  0.00    +0.000 A 
ATOM     17  C   UNL     1      47.172   1.248   6.852  0.00  0.00    +0.000 A 
ATOM     18  O   UNL     1      46.584   1.875   7.903  0.00  0.00    +0.000 OA
ENDBRANCH  11  14
ENDBRANCH   9  10
ENDBRANCH   6   9
ENDBRANCH   2   3
BRANCH   2  19
ATOM     19  N   UNL     1      48.296   5.981  14.507  0.00  0.00    +0.000 N 
ATOM     20  C   UNL     1      48.968   6.858  15.320  0.00  0.00    +0.000 C 
ATOM     21  O   UNL     1      48.652   7.058  16.488  0.00  0.00    +0.000 OA
ATOM     22  H   UNL     1      48.408   6.094  13.504  0.00  0.00    +0.000 HD
BRANCH  20  23
ATOM     23  C   UNL     1      50.149   7.506  14.738  0.00  0.00    +0.000 A 
ATOM     24  C   UNL     1      51.350   7.496  15.434  0.00  0.00    +0.000 A 
ATOM     25  S   UNL     1      52.623   8.281  14.616  0.00  0.00    +0.000 S 
ATOM     26  C   UNL     1      51.603   8.703  13.321  0.00  0.00    +0.000 A 
ATOM     27  N   UNL     1      52.066   9.438  12.275  0.00  0.00    +0.000 NA
ATOM     28  C   UNL     1      51.176   9.715  11.383  0.00  0.00    +0.000 A 
ATOM     29  N   UNL     1      49.867   9.313  11.434  0.00  0.00    +0.000 N 
ATOM     30  C   UNL     1      49.365   8.532  12.449  0.00  0.00    +0.000 A 
ATOM     31  O   UNL     1      48.207   8.127  12.433  0.00  0.00    +0.000 OA
ATOM     32  C   UNL     1      50.318   8.220  13.495  0.00  0.00    +0.000 A 
ATOM     33  H   UNL     1      49.225   9.548  10.691  0.00  0.00    +0.000 HD
ENDBRANCH  20  23
ENDBRANCH   2  19
TORSDOF 6
ENDMDL
MODEL 4
REMARK VINA RESULT:    -7.223      3.677      8.534
REMARK INTER + INTRA:         -10.763
REMARK INTER:                  -9.674
REMARK INTRA:                  -1.089
REMARK UNBOUND:                -1.006
REMARK  Name = 
REMARK  7 active torsions:
REMARK  status: ('A' for Active; 'I' for Inactive)
REMARK    1  A    between atoms: C_1  and  C_2
REMARK    2  A    between atoms: C_2  and  N_3
REMARK    3  A    between atoms: C_2  and  C_16
REMARK    4  A    between atoms: C_4  and  C_6
REMARK    5  A    between atoms: C_19  and  C_20
REMARK    6  A    between atoms: C_20  and  N_21
REMARK    7  A    between atoms: C_22  and  C_24
REMARK                            x       y       z     vdW  Elec       q    Type
REMARK                         _______ _______ _______ _____ _____    ______ ____
ROOT
ATOM      1  C   UNL     1      49.320   7.525  12.956  0.00  0.00    +0.000 C 
ATOM      2  C   UNL     1      48.028   6.959  13.559  0.00  0.00    +0.000 C 
ENDROOT
BRANCH   2   3
ATOM      3  C   UNL     1      48.333   6.212  14.852  0.00  0.00    +0.000 A 
ATOM      4  C   UNL     1      47.582   5.089  15.224  0.00  0.00    +0.000 A 
ATOM      5  C   UNL     1      47.888   4.379  16.391  0.00  0.00    +0.000 A 
ATOM      6  C   UNL     1      48.947   4.780  17.217  0.00  0.00    +0.000 A 
ATOM      7  C   UNL     1      49.700   5.902  16.847  0.00  0.00    +0.000 A 
ATOM      8  C   UNL     1      49.393   6.611  15.684  0.00  0.00    +0.000 A 
BRANCH   6   9
ATOM      9  C   UNL     1      49.299   3.998  18.454  0.00  0.00    +0.000 C 
BRANCH   9  10
ATOM     10  N   UNL     1      50.628   3.451  18.367  0.00  0.00    +0.000 N 
ATOM     11  C   UNL     1      50.910   2.357  17.581  0.00  0.00    +0.000 C 
ATOM     12  O   UNL     1      50.051   1.795  16.908  0.00  0.00    +0.000 OA
ATOM     13  H   UNL     1      51.394   3.894  18.859  0.00  0.00    +0.000 HD
BRANCH  11  14
ATOM     14  C   UNL     1      52.296   1.936  17.623  0.00  0.00    +0.000 A 
ATOM     15  C   UNL     1      53.446   2.620  17.976  0.00  0.00    +0.000 A 
ATOM     16  C   UNL     1      54.526   1.718  17.811  0.00  0.00    +0.000 A 
ATOM     17  C   UNL     1      53.973   0.540  17.371  0.00  0.00    +0.000 A 
ATOM     18  O   UNL     1      52.625   0.654  17.258  0.00  0.00    +0.000 OA
ENDBRANCH  11  14
ENDBRANCH   9  10
ENDBRANCH   6   9
ENDBRANCH   2   3
BRANCH   2  19
ATOM     19  N   UNL     1      47.322   6.066  12.651  0.00  0.00    +0.000 N 
ATOM     20  C   UNL     1      46.285   6.472  11.850  0.00  0.00    +0.000 C 
ATOM     21  O   UNL     1      45.904   7.637  11.795  0.00  0.00    +0.000 OA
ATOM     22  H   UNL     1      47.377   5.078  12.878  0.00  0.00    +0.000 HD
BRANCH  20  23
ATOM     23  C   UNL     1      45.687   5.444  10.991  0.00  0.00    +0.000 A 
ATOM     24  C   UNL     1      45.807   5.546   9.612  0.00  0.00    +0.000 A 
ATOM     25  S   UNL     1      45.067   4.267   8.763  0.00  0.00    +0.000 S 
ATOM     26  C   UNL     1      44.519   3.553  10.208  0.00  0.00    +0.000 A 
ATOM     27  N   UNL     1      43.767   2.421  10.188  0.00  0.00    +0.000 NA
ATOM     28  C   UNL     1      43.390   2.010  11.352  0.00  0.00    +0.000 A 
ATOM     29  N   UNL     1      43.710   2.622  12.536  0.00  0.00    +0.000 N 
ATOM     30  C   UNL     1      44.505   3.742  12.608  0.00  0.00    +0.000 A 
ATOM     31  O   UNL     1      44.834   4.226  13.686  0.00  0.00    +0.000 OA
ATOM     32  C   UNL     1      44.927   4.263  11.323  0.00  0.00    +0.000 A 
ATOM     33  H   UNL     1      43.399   2.237  13.417  0.00  0.00    +0.000 HD
ENDBRANCH  20  23
ENDBRANCH   2  19
TORSDOF 6
ENDMDL
MODEL 5
REMARK VINA RESULT:    -7.135      3.194      8.916
REMARK INTER + INTRA:         -10.643
REMARK INTER:                  -9.646
REMARK INTRA:                  -0.997
REMARK UNBOUND:                -1.006
REMARK  Name = 
REMARK  7 active torsions:
REMARK  status: ('A' for Active; 'I' for Inactive)
REMARK    1  A    between atoms: C_1  and  C_2
REMARK    2  A    between atoms: C_2  and  N_3
REMARK    3  A    between atoms: C_2  and  C_16
REMARK    4  A    between atoms: C_4  and  C_6
REMARK    5  A    between atoms: C_19  and  C_20
REMARK    6  A    between atoms: C_20  and  N_21
REMARK    7  A    between atoms: C_22  and  C_24
REMARK                            x       y       z     vdW  Elec       q    Type
REMARK                         _______ _______ _______ _____ _____    ______ ____
ROOT
ATOM      1  C   UNL     1      49.012   7.855  11.380  0.00  0.00    +0.000 C 
ATOM      2  C   UNL     1      48.051   7.566  12.540  0.00  0.00    +0.000 C 
ENDROOT
BRANCH   2   3
ATOM      3  C   UNL     1      48.834   7.327  13.826  0.00  0.00    +0.000 A 
ATOM      4  C   UNL     1      48.274   6.593  14.880  0.00  0.00    +0.000 A 
ATOM      5  C   UNL     1      49.008   6.340  16.044  0.00  0.00    +0.000 A 
ATOM      6  C   UNL     1      50.317   6.822  16.185  0.00  0.00    +0.000 A 
ATOM      7  C   UNL     1      50.880   7.556  15.133  0.00  0.00    +0.000 A 
ATOM      8  C   UNL     1      50.146   7.809  13.972  0.00  0.00    +0.000 A 
BRANCH   6   9
ATOM      9  C   UNL     1      51.120   6.522  17.423  0.00  0.00    +0.000 C 
BRANCH   9  10
ATOM     10  N   UNL     1      51.673   5.193  17.378  0.00  0.00    +0.000 N 
ATOM     11  C   UNL     1      51.168   4.173  18.152  0.00  0.00    +0.000 C 
ATOM     12  O   UNL     1      50.219   4.336  18.913  0.00  0.00    +0.000 OA
ATOM     13  H   UNL     1      52.427   4.977  16.738  0.00  0.00    +0.000 HD
BRANCH  11  14
ATOM     14  C   UNL     1      51.854   2.908  17.988  0.00  0.00    +0.000 A 
ATOM     15  C   UNL     1      51.464   1.733  17.371  0.00  0.00    +0.000 A 
ATOM     16  C   UNL     1      52.529   0.812  17.531  0.00  0.00    +0.000 A 
ATOM     17  C   UNL     1      53.505   1.478  18.233  0.00  0.00    +0.000 A 
ATOM     18  O   UNL     1      53.113   2.748  18.512  0.00  0.00    +0.000 OA
ENDBRANCH  11  14
ENDBRANCH   9  10
ENDBRANCH   6   9
ENDBRANCH   2   3
BRANCH   2  19
ATOM     19  N   UNL     1      47.190   6.418  12.290  0.00  0.00    +0.000 N 
ATOM     20  C   UNL     1      45.901   6.529  11.832  0.00  0.00    +0.000 C 
ATOM     21  O   UNL     1      45.389   7.606  11.544  0.00  0.00    +0.000 OA
ATOM     22  H   UNL     1      47.436   5.569  12.790  0.00  0.00    +0.000 HD
BRANCH  20  23
ATOM     23  C   UNL     1      45.174   5.271  11.631  0.00  0.00    +0.000 A 
ATOM     24  C   UNL     1      44.486   4.699  12.693  0.00  0.00    +0.000 A 
ATOM     25  S   UNL     1      43.687   3.249  12.290  0.00  0.00    +0.000 S 
ATOM     26  C   UNL     1      44.269   3.309  10.691  0.00  0.00    +0.000 A 
ATOM     27  N   UNL     1      43.980   2.321   9.803  0.00  0.00    +0.000 NA
ATOM     28  C   UNL     1      44.515   2.476   8.639  0.00  0.00    +0.000 A 
ATOM     29  N   UNL     1      45.303   3.539   8.278  0.00  0.00    +0.000 N 
ATOM     30  C   UNL     1      45.584   4.584   9.128  0.00  0.00    +0.000 A 
ATOM     31  O   UNL     1      46.232   5.556   8.755  0.00  0.00    +0.000 OA
ATOM     32  C   UNL     1      45.032   4.439  10.460  0.00  0.00    +0.000 A 
ATOM     33  H   UNL     1      45.676   3.611   7.342  0.00  0.00    +0.000 HD
ENDBRANCH  20  23
ENDBRANCH   2  19
TORSDOF 6
ENDMDL
MODEL 6
REMARK VINA RESULT:    -7.037      2.129      2.898
REMARK INTER + INTRA:         -10.511
REMARK INTER:                  -9.355
REMARK INTRA:                  -1.156
REMARK UNBOUND:                -1.006
REMARK  Name = 
REMARK  7 active torsions:
REMARK  status: ('A' for Active; 'I' for Inactive)
REMARK    1  A    between atoms: C_1  and  C_2
REMARK    2  A    between atoms: C_2  and  N_3
REMARK    3  A    between atoms: C_2  and  C_16
REMARK    4  A    between atoms: C_4  and  C_6
REMARK    5  A    between atoms: C_19  and  C_20
REMARK    6  A    between atoms: C_20  and  N_21
REMARK    7  A    between atoms: C_22  and  C_24
REMARK                            x       y       z     vdW  Elec       q    Type
REMARK                         _______ _______ _______ _____ _____    ______ ____
ROOT
ATOM      1  C   UNL     1      47.898   3.109  15.534  0.00  0.00    +0.000 C 
ATOM      2  C   UNL     1      47.135   4.436  15.632  0.00  0.00    +0.000 C 
ENDROOT
BRANCH   2   3
ATOM      3  C   UNL     1      46.631   4.858  14.258  0.00  0.00    +0.000 A 
ATOM      4  C   UNL     1      47.323   5.815  13.503  0.00  0.00    +0.000 A 
ATOM      5  C   UNL     1      46.881   6.172  12.223  0.00  0.00    +0.000 A 
ATOM      6  C   UNL     1      45.733   5.587  11.672  0.00  0.00    +0.000 A 
ATOM      7  C   UNL     1      45.039   4.630  12.424  0.00  0.00    +0.000 A 
ATOM      8  C   UNL     1      45.479   4.275  13.701  0.00  0.00    +0.000 A 
BRANCH   6   9
ATOM      9  C   UNL     1      45.276   5.945  10.283  0.00  0.00    +0.000 C 
BRANCH   9  10
ATOM     10  N   UNL     1      45.879   5.087   9.297  0.00  0.00    +0.000 N 
ATOM     11  C   UNL     1      45.253   3.945   8.852  0.00  0.00    +0.000 C 
ATOM     12  O   UNL     1      44.148   3.601   9.263  0.00  0.00    +0.000 OA
ATOM     13  H   UNL     1      46.768   5.336   8.881  0.00  0.00    +0.000 HD
BRANCH  11  14
ATOM     14  C   UNL     1      46.009   3.197   7.869  0.00  0.00    +0.000 A 
ATOM     15  C   UNL     1      46.480   3.553   6.617  0.00  0.00    +0.000 A 
ATOM     16  C   UNL     1      47.140   2.416   6.089  0.00  0.00    +0.000 A 
ATOM     17  C   UNL     1      47.036   1.437   7.047  0.00  0.00    +0.000 A 
ATOM     18  O   UNL     1      46.360   1.896   8.131  0.00  0.00    +0.000 OA
ENDBRANCH  11  14
ENDBRANCH   9  10
ENDBRANCH   6   9
ENDBRANCH   2   3
BRANCH   2  19
ATOM     19  N   UNL     1      47.941   5.513  16.192  0.00  0.00    +0.000 N 
ATOM     20  C   UNL     1      47.945   5.834  17.526  0.00  0.00    +0.000 C 
ATOM     21  O   UNL     1      47.309   5.204  18.364  0.00  0.00    +0.000 OA
ATOM     22  H   UNL     1      48.223   6.235  15.537  0.00  0.00    +0.000 HD
BRANCH  20  23
ATOM     23  C   UNL     1      48.818   6.946  17.922  0.00  0.00    +0.000 A 
ATOM     24  C   UNL     1      48.264   8.084  18.491  0.00  0.00    +0.000 A 
ATOM     25  S   UNL     1      49.413   9.273  18.903  0.00  0.00    +0.000 S 
ATOM     26  C   UNL     1      50.690   8.328  18.293  0.00  0.00    +0.000 A 
ATOM     27  N   UNL     1      51.968   8.789  18.302  0.00  0.00    +0.000 NA
ATOM     28  C   UNL     1      52.829   7.984  17.776  0.00  0.00    +0.000 A 
ATOM     29  N   UNL     1      52.529   6.753  17.254  0.00  0.00    +0.000 N 
ATOM     30  C   UNL     1      51.258   6.227  17.264  0.00  0.00    +0.000 A 
ATOM     31  O   UNL     1      51.031   5.093  16.855  0.00  0.00    +0.000 OA
ATOM     32  C   UNL     1      50.248   7.107  17.815  0.00  0.00    +0.000 A 
ATOM     33  H   UNL     1      53.255   6.162  16.874  0.00  0.00    +0.000 HD
ENDBRANCH  20  23
ENDBRANCH   2  19
TORSDOF 6
ENDMDL
MODEL 7
REMARK VINA RESULT:    -6.762      3.903      5.129
REMARK INTER + INTRA:         -10.140
REMARK INTER:                  -8.928
REMARK INTRA:                  -1.212
REMARK UNBOUND:                -1.006
REMARK  Name = 
REMARK  7 active torsions:
REMARK  status: ('A' for Active; 'I' for Inactive)
REMARK    1  A    between atoms: C_1  and  C_2
REMARK    2  A    between atoms: C_2  and  N_3
REMARK    3  A    between atoms: C_2  and  C_16
REMARK    4  A    between atoms: C_4  and  C_6
REMARK    5  A    between atoms: C_19  and  C_20
REMARK    6  A    between atoms: C_20  and  N_21
REMARK    7  A    between atoms: C_22  and  C_24
REMARK                            x       y       z     vdW  Elec       q    Type
REMARK                         _______ _______ _______ _____ _____    ______ ____
ROOT
ATOM      1  C   UNL     1      47.599   8.597  14.726  0.00  0.00    +0.000 C 
ATOM      2  C   UNL     1      47.767   8.330  13.224  0.00  0.00    +0.000 C 
ENDROOT
BRANCH   2   3
ATOM      3  C   UNL     1      46.893   7.157  12.796  0.00  0.00    +0.000 A 
ATOM      4  C   UNL     1      45.941   7.308  11.779  0.00  0.00    +0.000 A 
ATOM      5  C   UNL     1      45.167   6.220  11.358  0.00  0.00    +0.000 A 
ATOM      6  C   UNL     1      45.321   4.959  11.949  0.00  0.00    +0.000 A 
ATOM      7  C   UNL     1      46.272   4.805  12.966  0.00  0.00    +0.000 A 
ATOM      8  C   UNL     1      47.043   5.891  13.387  0.00  0.00    +0.000 A 
BRANCH   6   9
ATOM      9  C   UNL     1      44.513   3.781  11.474  0.00  0.00    +0.000 C 
BRANCH   9  10
ATOM     10  N   UNL     1      45.241   3.005  10.504  0.00  0.00    +0.000 N 
ATOM     11  C   UNL     1      45.095   3.217   9.152  0.00  0.00    +0.000 C 
ATOM     12  O   UNL     1      44.347   4.080   8.701  0.00  0.00    +0.000 OA
ATOM     13  H   UNL     1      45.910   2.308  10.807  0.00  0.00    +0.000 HD
BRANCH  11  14
ATOM     14  C   UNL     1      45.894   2.338   8.323  0.00  0.00    +0.000 A 
ATOM     15  C   UNL     1      46.708   2.600   7.236  0.00  0.00    +0.000 A 
ATOM     16  C   UNL     1      47.229   1.356   6.803  0.00  0.00    +0.000 A 
ATOM     17  C   UNL     1      46.705   0.409   7.650  0.00  0.00    +0.000 A 
ATOM     18  O   UNL     1      45.900   0.988   8.578  0.00  0.00    +0.000 OA
ENDBRANCH  11  14
ENDBRANCH   9  10
ENDBRANCH   6   9
ENDBRANCH   2   3
BRANCH   2  19
ATOM     19  N   UNL     1      49.147   8.055  12.848  0.00  0.00    +0.000 N 
ATOM     20  C   UNL     1      49.777   8.669  11.796  0.00  0.00    +0.000 C 
ATOM     21  O   UNL     1      49.243   9.542  11.119  0.00  0.00    +0.000 OA
ATOM     22  H   UNL     1      49.513   7.158  13.152  0.00  0.00    +0.000 HD
BRANCH  20  23
ATOM     23  C   UNL     1      51.171   8.278  11.556  0.00  0.00    +0.000 A 
ATOM     24  C   UNL     1      51.515   7.667  10.358  0.00  0.00    +0.000 A 
ATOM     25  S   UNL     1      53.172   7.287  10.234  0.00  0.00    +0.000 S 
ATOM     26  C   UNL     1      53.481   7.884  11.798  0.00  0.00    +0.000 A 
ATOM     27  N   UNL     1      54.727   7.821  12.338  0.00  0.00    +0.000 NA
ATOM     28  C   UNL     1      54.810   8.277  13.542  0.00  0.00    +0.000 A 
ATOM     29  N   UNL     1      53.762   8.803  14.252  0.00  0.00    +0.000 N 
ATOM     30  C   UNL     1      52.495   8.928  13.730  0.00  0.00    +0.000 A 
ATOM     31  O   UNL     1      51.593   9.468  14.362  0.00  0.00    +0.000 OA
ATOM     32  C   UNL     1      52.342   8.399  12.390  0.00  0.00    +0.000 A 
ATOM     33  H   UNL     1      53.898   9.162  15.186  0.00  0.00    +0.000 HD
ENDBRANCH  20  23
ENDBRANCH   2  19
TORSDOF 6
ENDMDL
MODEL 8
REMARK VINA RESULT:    -6.098      1.795      3.302
REMARK INTER + INTRA:          -9.243
REMARK INTER:                  -9.227
REMARK INTRA:                  -0.015
REMARK UNBOUND:                -1.006
REMARK  Name = 
REMARK  7 active torsions:
REMARK  status: ('A' for Active; 'I' for Inactive)
REMARK    1  A    between atoms: C_1  and  C_2
REMARK    2  A    between atoms: C_2  and  N_3
REMARK    3  A    between atoms: C_2  and  C_16
REMARK    4  A    between atoms: C_4  and  C_6
REMARK    5  A    between atoms: C_19  and  C_20
REMARK    6  A    between atoms: C_20  and  N_21
REMARK    7  A    between atoms: C_22  and  C_24
REMARK                            x       y       z     vdW  Elec       q    Type
REMARK                         _______ _______ _______ _____ _____    ______ ____
ROOT
ATOM      1  C   UNL     1      48.297   3.163  15.701  0.00  0.00    +0.000 C 
ATOM      2  C   UNL     1      47.060   4.063  15.811  0.00  0.00    +0.000 C 
ENDROOT
BRANCH   2   3
ATOM      3  C   UNL     1      46.628   4.538  14.429  0.00  0.00    +0.000 A 
ATOM      4  C   UNL     1      46.980   5.813  13.968  0.00  0.00    +0.000 A 
ATOM      5  C   UNL     1      46.617   6.234  12.682  0.00  0.00    +0.000 A 
ATOM      6  C   UNL     1      45.888   5.392  11.832  0.00  0.00    +0.000 A 
ATOM      7  C   UNL     1      45.536   4.116  12.290  0.00  0.00    +0.000 A 
ATOM      8  C   UNL     1      45.896   3.697  13.573  0.00  0.00    +0.000 A 
BRANCH   6   9
ATOM      9  C   UNL     1      45.527   5.830  10.438  0.00  0.00    +0.000 C 
BRANCH   9  10
ATOM     10  N   UNL     1      46.085   4.943   9.450  0.00  0.00    +0.000 N 
ATOM     11  C   UNL     1      45.305   4.038   8.766  0.00  0.00    +0.000 C 
ATOM     12  O   UNL     1      44.095   3.944   8.954  0.00  0.00    +0.000 OA
ATOM     13  H   UNL     1      47.068   5.000   9.212  0.00  0.00    +0.000 HD
BRANCH  11  14
ATOM     14  C   UNL     1      46.035   3.220   7.820  0.00  0.00    +0.000 A 
ATOM     15  C   UNL     1      46.498   3.493   6.546  0.00  0.00    +0.000 A 
ATOM     16  C   UNL     1      47.128   2.314   6.077  0.00  0.00    +0.000 A 
ATOM     17  C   UNL     1      47.015   1.393   7.091  0.00  0.00    +0.000 A 
ATOM     18  O   UNL     1      46.361   1.928   8.153  0.00  0.00    +0.000 OA
ENDBRANCH  11  14
ENDBRANCH   9  10
ENDBRANCH   6   9
ENDBRANCH   2   3
BRANCH   2  19
ATOM     19  N   UNL     1      47.276   5.223  16.665  0.00  0.00    +0.000 N 
ATOM     20  C   UNL     1      48.509   5.787  16.871  0.00  0.00    +0.000 C 
ATOM     21  O   UNL     1      49.524   5.391  16.307  0.00  0.00    +0.000 OA
ATOM     22  H   UNL     1      46.564   5.385  17.371  0.00  0.00    +0.000 HD
BRANCH  20  23
ATOM     23  C   UNL     1      48.548   6.955  17.759  0.00  0.00    +0.000 A 
ATOM     24  C   UNL     1      48.613   6.769  19.133  0.00  0.00    +0.000 A 
ATOM     25  S   UNL     1      48.662   8.224  20.020  0.00  0.00    +0.000 S 
ATOM     26  C   UNL     1      48.553   9.156  18.600  0.00  0.00    +0.000 A 
ATOM     27  N   UNL     1      48.504  10.513  18.655  0.00  0.00    +0.000 NA
ATOM     28  C   UNL     1      48.385  11.090  17.507  0.00  0.00    +0.000 A 
ATOM     29  N   UNL     1      48.324  10.432  16.306  0.00  0.00    +0.000 N 
ATOM     30  C   UNL     1      48.414   9.064  16.198  0.00  0.00    +0.000 A 
ATOM     31  O   UNL     1      48.427   8.507  15.105  0.00  0.00    +0.000 OA
ATOM     32  C   UNL     1      48.515   8.367  17.464  0.00  0.00    +0.000 A 
ATOM     33  H   UNL     1      48.250  10.945  15.439  0.00  0.00    +0.000 HD
ENDBRANCH  20  23
ENDBRANCH   2  19
TORSDOF 6
ENDMDL
MODEL 9
REMARK VINA RESULT:    -5.895      3.480      9.711
REMARK INTER + INTRA:          -8.969
REMARK INTER:                  -7.915
REMARK INTRA:                  -1.054
REMARK UNBOUND:                -1.006
REMARK  Name = 
REMARK  7 active torsions:
REMARK  status: ('A' for Active; 'I' for Inactive)
REMARK    1  A    between atoms: C_1  and  C_2
REMARK    2  A    between atoms: C_2  and  N_3
REMARK    3  A    between atoms: C_2  and  C_16
REMARK    4  A    between atoms: C_4  and  C_6
REMARK    5  A    between atoms: C_19  and  C_20
REMARK    6  A    between atoms: C_20  and  N_21
REMARK    7  A    between atoms: C_22  and  C_24
REMARK                            x       y       z     vdW  Elec       q    Type
REMARK                         _______ _______ _______ _____ _____    ______ ____
ROOT
ATOM      1  C   UNL     1      48.990   7.767  11.483  0.00  0.00    +0.000 C 
ATOM      2  C   UNL     1      47.722   7.631  12.335  0.00  0.00    +0.000 C 
ENDROOT
BRANCH   2   3
ATOM      3  C   UNL     1      48.081   7.608  13.816  0.00  0.00    +0.000 A 
ATOM      4  C   UNL     1      48.286   6.393  14.484  0.00  0.00    +0.000 A 
ATOM      5  C   UNL     1      48.656   6.374  15.834  0.00  0.00    +0.000 A 
ATOM      6  C   UNL     1      48.821   7.568  16.549  0.00  0.00    +0.000 A 
ATOM      7  C   UNL     1      48.618   8.783  15.884  0.00  0.00    +0.000 A 
ATOM      8  C   UNL     1      48.248   8.802  14.537  0.00  0.00    +0.000 A 
BRANCH   6   9
ATOM      9  C   UNL     1      49.252   7.549  17.991  0.00  0.00    +0.000 C 
BRANCH   9  10
ATOM     10  N   UNL     1      50.610   7.090  18.126  0.00  0.00    +0.000 N 
ATOM     11  C   UNL     1      51.216   6.973  19.357  0.00  0.00    +0.000 C 
ATOM     12  O   UNL     1      50.632   7.243  20.402  0.00  0.00    +0.000 OA
ATOM     13  H   UNL     1      51.135   6.806  17.308  0.00  0.00    +0.000 HD
BRANCH  11  14
ATOM     14  C   UNL     1      52.587   6.509  19.303  0.00  0.00    +0.000 A 
ATOM     15  C   UNL     1      53.137   5.261  19.536  0.00  0.00    +0.000 A 
ATOM     16  C   UNL     1      54.536   5.389  19.357  0.00  0.00    +0.000 A 
ATOM     17  C   UNL     1      54.758   6.704  19.024  0.00  0.00    +0.000 A 
ATOM     18  O   UNL     1      53.588   7.392  18.982  0.00  0.00    +0.000 OA
ENDBRANCH  11  14
ENDBRANCH   9  10
ENDBRANCH   6   9
ENDBRANCH   2   3
BRANCH   2  19
ATOM     19  N   UNL     1      46.949   6.439  12.016  0.00  0.00    +0.000 N 
ATOM     20  C   UNL     1      45.577   6.416  11.986  0.00  0.00    +0.000 C 
ATOM     21  O   UNL     1      44.892   7.415  12.174  0.00  0.00    +0.000 OA
ATOM     22  H   UNL     1      47.428   5.555  12.161  0.00  0.00    +0.000 HD
BRANCH  20  23
ATOM     23  C   UNL     1      44.958   5.131  11.642  0.00  0.00    +0.000 A 
ATOM     24  C   UNL     1      44.227   4.443  12.602  0.00  0.00    +0.000 A 
ATOM     25  S   UNL     1      43.565   2.977  12.039  0.00  0.00    +0.000 S 
ATOM     26  C   UNL     1      44.271   3.185  10.504  0.00  0.00    +0.000 A 
ATOM     27  N   UNL     1      44.126   2.245   9.533  0.00  0.00    +0.000 NA
ATOM     28  C   UNL     1      44.743   2.515   8.433  0.00  0.00    +0.000 A 
ATOM     29  N   UNL     1      45.482   3.648   8.210  0.00  0.00    +0.000 N 
ATOM     30  C   UNL     1      45.619   4.647   9.146  0.00  0.00    +0.000 A 
ATOM     31  O   UNL     1      46.226   5.682   8.893  0.00  0.00    +0.000 OA
ATOM     32  C   UNL     1      44.971   4.375  10.413  0.00  0.00    +0.000 A 
ATOM     33  H   UNL     1      45.924   3.809   7.316  0.00  0.00    +0.000 HD
ENDBRANCH  20  23
ENDBRANCH   2  19
TORSDOF 6
ENDMDL
