MODEL 1
REMARK VINA RESULT:    -6.524      0.000      0.000
REMARK INTER + INTRA:          -9.571
REMARK INTER:                  -8.813
REMARK INTRA:                  -0.759
REMARK UNBOUND:                -0.759
REMARK  Name = 
REMARK  7 active torsions:
REMARK  status: ('A' for Active; 'I' for Inactive)
REMARK    1  A    between atoms: C_1  and  O_2
REMARK    2  A    between atoms: O_2  and  C_3
REMARK    3  A    between atoms: C_10  and  C_11
REMARK    4  A    between atoms: N_13  and  C_14
REMARK    5  A    between atoms: C_14  and  C_15
REMARK    6  A    between atoms: C_18  and  C_19
REMARK    7  A    between atoms: C_20  and  C_21
REMARK                            x       y       z     vdW  Elec       q    Type
REMARK                         _______ _______ _______ _____ _____    ______ ____
ROOT
ATOM      1  C   UNL     1      47.602   5.514  14.498  0.00  0.00    +0.000 C 
ATOM      2  O   UNL     1      48.570   6.158  14.102  0.00  0.00    +0.000 OA
ATOM      3  N   UNL     1      47.432   5.231  15.830  0.00  0.00    +0.000 N 
ATOM      4  H   UNL     1      46.621   4.709  16.127  0.00  0.00    +0.000 HD
ENDROOT
BRANCH   1  12
ATOM      5  C   UNL     1      45.244   7.086  12.548  0.00  0.00    +0.000 A 
ATOM      6  N   UNL     1      44.292   7.448  11.666  0.00  0.00    +0.000 NA
ATOM      7  C   UNL     1      43.667   6.484  10.989  0.00  0.00    +0.000 A 
ATOM      8  N   UNL     1      43.871   5.172  11.092  0.00  0.00    +0.000 NA
ATOM      9  C   UNL     1      44.836   4.857  11.973  0.00  0.00    +0.000 A 
ATOM     10  S   UNL     1      45.225   3.229  12.244  0.00  0.00    +0.000 S 
ATOM     11  C   UNL     1      46.429   3.652  13.370  0.00  0.00    +0.000 A 
ATOM     12  C   UNL     1      46.569   5.023  13.561  0.00  0.00    +0.000 A 
ATOM     13  C   UNL     1      45.594   5.739  12.737  0.00  0.00    +0.000 A 
BRANCH   5  15
ATOM     14  C   UNL     1      46.276   9.176  12.410  0.00  0.00    +0.000 C 
ATOM     15  O   UNL     1      45.896   8.083  13.240  0.00  0.00    +0.000 OA
ENDBRANCH   5  15
ENDBRANCH   1  12
BRANCH   3  16
ATOM     16  C   UNL     1      48.351   5.654  16.863  0.00  0.00    +0.000 C 
BRANCH  16  17
ATOM     17  C   UNL     1      49.363   4.569  17.173  0.00  0.00    +0.000 A 
ATOM     18  C   UNL     1      50.682   4.896  17.522  0.00  0.00    +0.000 A 
ATOM     19  C   UNL     1      51.646   3.894  17.726  0.00  0.00    +0.000 A 
ATOM     20  C   UNL     1      51.312   2.547  17.576  0.00  0.00    +0.000 A 
ATOM     21  C   UNL     1      49.995   2.209  17.255  0.00  0.00    +0.000 A 
ATOM     22  C   UNL     1      49.029   3.211  17.055  0.00  0.00    +0.000 A 
BRANCH  20  23
ATOM     23  C   UNL     1      52.319   1.527  17.694  0.00  0.00    +0.000 C 
ATOM     24  C   UNL     1      53.116   0.628  17.809  0.00  0.00    +0.000 C 
BRANCH  24  25
ATOM     25  C   UNL     1      54.027  -0.468  17.948  0.00  0.00    +0.000 A 
ATOM     26  C   UNL     1      54.896  -0.839  16.929  0.00  0.00    +0.000 A 
ATOM     27  N   UNL     1      55.733  -1.903  17.030  0.00  0.00    +0.000 NA
ATOM     28  C   UNL     1      55.661  -2.582  18.197  0.00  0.00    +0.000 A 
ATOM     29  C   UNL     1      54.796  -2.211  19.216  0.00  0.00    +0.000 A 
ATOM     30  N   UNL     1      53.958  -1.150  19.116  0.00  0.00    +0.000 NA
ENDBRANCH  24  25
ENDBRANCH  20  23
ENDBRANCH  16  17
ENDBRANCH   3  16
TORSDOF 6
ENDMDL
MODEL 2
REMARK VINA RESULT:    -5.982      1.969      3.061
REMARK INTER + INTRA:          -8.839
REMARK INTER:                  -7.711
REMARK INTRA:                  -1.128
REMARK UNBOUND:                -0.759
REMARK  Name = 
REMARK  7 active torsions:
REMARK  status: ('A' for Active; 'I' for Inactive)
REMARK    1  A    between atoms: C_1  and  O_2
REMARK    2  A    between atoms: O_2  and  C_3
REMARK    3  A    between atoms: C_10  and  C_11
REMARK    4  A    between atoms: N_13  and  C_14
REMARK    5  A    between atoms: C_14  and  C_15
REMARK    6  A    between atoms: C_18  and  C_19
REMARK    7  A    between atoms: C_20  and  C_21
REMARK                            x       y       z     vdW  Elec       q    Type
REMARK                         _______ _______ _______ _____ _____    ______ ____
ROOT
ATOM      1  C   UNL     1      47.938   7.848  13.847  0.00  0.00    +0.000 C 
ATOM      2  O   UNL     1      48.853   8.466  13.310  0.00  0.00    +0.000 OA
ATOM      3  N   UNL     1      47.886   7.693  15.209  0.00  0.00    +0.000 N 
ATOM      4  H   UNL     1      47.116   7.189  15.623  0.00  0.00    +0.000 HD
ENDROOT
BRANCH   1  12
ATOM      5  C   UNL     1      46.660   4.663  13.608  0.00  0.00    +0.000 A 
ATOM      6  N   UNL     1      45.952   3.541  13.374  0.00  0.00    +0.000 NA
ATOM      7  C   UNL     1      44.928   3.614  12.521  0.00  0.00    +0.000 A 
ATOM      8  N   UNL     1      44.522   4.689  11.849  0.00  0.00    +0.000 NA
ATOM      9  C   UNL     1      45.249   5.786  12.121  0.00  0.00    +0.000 A 
ATOM     10  S   UNL     1      44.881   7.250  11.347  0.00  0.00    +0.000 S 
ATOM     11  C   UNL     1      46.130   8.059  12.173  0.00  0.00    +0.000 A 
ATOM     12  C   UNL     1      46.843   7.250  13.052  0.00  0.00    +0.000 A 
ATOM     13  C   UNL     1      46.325   5.883  12.998  0.00  0.00    +0.000 A 
BRANCH   5  15
ATOM     14  C   UNL     1      47.485   3.650  15.543  0.00  0.00    +0.000 C 
ATOM     15  O   UNL     1      47.711   4.589  14.496  0.00  0.00    +0.000 OA
ENDBRANCH   5  15
ENDBRANCH   1  12
BRANCH   3  16
ATOM     16  C   UNL     1      48.877   8.231  16.116  0.00  0.00    +0.000 C 
BRANCH  16  17
ATOM     17  C   UNL     1      49.789   7.139  16.639  0.00  0.00    +0.000 A 
ATOM     18  C   UNL     1      51.144   7.102  16.277  0.00  0.00    +0.000 A 
ATOM     19  C   UNL     1      51.974   6.046  16.689  0.00  0.00    +0.000 A 
ATOM     20  C   UNL     1      51.462   5.001  17.461  0.00  0.00    +0.000 A 
ATOM     21  C   UNL     1      50.122   5.042  17.849  0.00  0.00    +0.000 A 
ATOM     22  C   UNL     1      49.292   6.101  17.442  0.00  0.00    +0.000 A 
BRANCH  20  23
ATOM     23  C   UNL     1      52.288   3.874  17.805  0.00  0.00    +0.000 C 
ATOM     24  C   UNL     1      52.927   2.901  18.120  0.00  0.00    +0.000 C 
BRANCH  24  25
ATOM     25  C   UNL     1      53.646   1.724  18.506  0.00  0.00    +0.000 A 
ATOM     26  C   UNL     1      54.838   1.788  19.218  0.00  0.00    +0.000 A 
ATOM     27  N   UNL     1      55.553   0.683  19.552  0.00  0.00    +0.000 NA
ATOM     28  C   UNL     1      55.023  -0.490  19.141  0.00  0.00    +0.000 A 
ATOM     29  C   UNL     1      53.831  -0.555  18.433  0.00  0.00    +0.000 A 
ATOM     30  N   UNL     1      53.118   0.546  18.097  0.00  0.00    +0.000 NA
ENDBRANCH  24  25
ENDBRANCH  20  23
ENDBRANCH  16  17
ENDBRANCH   3  16
TORSDOF 6
ENDMDL
MODEL 3
REMARK VINA RESULT:    -5.696      5.570      8.567
REMARK INTER + INTRA:          -8.453
REMARK INTER:                  -7.349
REMARK INTRA:                  -1.104
REMARK UNBOUND:                -0.759
REMARK  Name = 
REMARK  7 active torsions:
REMARK  status: ('A' for Active; 'I' for Inactive)
REMARK    1  A    between atoms: C_1  and  O_2
REMARK    2  A    between atoms: O_2  and  C_3
REMARK    3  A    between atoms: C_10  and  C_11
REMARK    4  A    between atoms: N_13  and  C_14
REMARK    5  A    between atoms: C_14  and  C_15
REMARK    6  A    between atoms: C_18  and  C_19
REMARK    7  A    between atoms: C_20  and  C_21
REMARK                            x       y       z     vdW  Elec       q    Type
REMARK                         _______ _______ _______ _____ _____    ______ ____
ROOT
ATOM      1  C   UNL     1      49.007   7.966  16.732  0.00  0.00    +0.000 C 
ATOM      2  O   UNL     1      49.921   8.749  16.981  0.00  0.00    +0.000 OA
ATOM      3  N   UNL     1      48.182   8.155  15.653  0.00  0.00    +0.000 N 
ATOM      4  H   UNL     1      47.446   7.490  15.467  0.00  0.00    +0.000 HD
ENDROOT
BRANCH   1  12
ATOM      5  C   UNL     1      47.989   4.752  16.049  0.00  0.00    +0.000 A 
ATOM      6  N   UNL     1      47.667   3.444  16.047  0.00  0.00    +0.000 NA
ATOM      7  C   UNL     1      47.667   2.798  17.215  0.00  0.00    +0.000 A 
ATOM      8  N   UNL     1      47.943   3.310  18.412  0.00  0.00    +0.000 NA
ATOM      9  C   UNL     1      48.270   4.613  18.366  0.00  0.00    +0.000 A 
ATOM     10  S   UNL     1      48.643   5.436  19.801  0.00  0.00    +0.000 S 
ATOM     11  C   UNL     1      48.931   6.884  18.955  0.00  0.00    +0.000 A 
ATOM     12  C   UNL     1      48.760   6.778  17.578  0.00  0.00    +0.000 A 
ATOM     13  C   UNL     1      48.341   5.420  17.234  0.00  0.00    +0.000 A 
BRANCH   5  15
ATOM     14  C   UNL     1      46.945   5.008  13.976  0.00  0.00    +0.000 C 
ATOM     15  O   UNL     1      48.000   5.416  14.842  0.00  0.00    +0.000 OA
ENDBRANCH   5  15
ENDBRANCH   1  12
BRANCH   3  16
ATOM     16  C   UNL     1      48.308   9.263  14.731  0.00  0.00    +0.000 C 
BRANCH  16  17
ATOM     17  C   UNL     1      49.160   8.885  13.536  0.00  0.00    +0.000 A 
ATOM     18  C   UNL     1      48.609   8.175  12.458  0.00  0.00    +0.000 A 
ATOM     19  C   UNL     1      49.413   7.747  11.387  0.00  0.00    +0.000 A 
ATOM     20  C   UNL     1      50.784   8.012  11.379  0.00  0.00    +0.000 A 
ATOM     21  C   UNL     1      51.337   8.741  12.434  0.00  0.00    +0.000 A 
ATOM     22  C   UNL     1      50.533   9.174  13.503  0.00  0.00    +0.000 A 
BRANCH  20  23
ATOM     23  C   UNL     1      51.621   7.495  10.330  0.00  0.00    +0.000 C 
ATOM     24  C   UNL     1      52.276   7.076   9.407  0.00  0.00    +0.000 C 
BRANCH  24  25
ATOM     25  C   UNL     1      53.021   6.598   8.281  0.00  0.00    +0.000 A 
ATOM     26  C   UNL     1      52.855   7.128   7.008  0.00  0.00    +0.000 A 
ATOM     27  N   UNL     1      53.522   6.655   5.924  0.00  0.00    +0.000 NA
ATOM     28  C   UNL     1      54.363   5.626   6.171  0.00  0.00    +0.000 A 
ATOM     29  C   UNL     1      54.532   5.098   7.443  0.00  0.00    +0.000 A 
ATOM     30  N   UNL     1      53.866   5.568   8.525  0.00  0.00    +0.000 NA
ENDBRANCH  24  25
ENDBRANCH  20  23
ENDBRANCH  16  17
ENDBRANCH   3  16
TORSDOF 6
ENDMDL
MODEL 4
REMARK VINA RESULT:    -5.408      2.267      3.241
REMARK INTER + INTRA:          -8.063
REMARK INTER:                  -7.353
REMARK INTRA:                  -0.710
REMARK UNBOUND:                -0.759
REMARK  Name = 
REMARK  7 active torsions:
REMARK  status: ('A' for Active; 'I' for Inactive)
REMARK    1  A    between atoms: C_1  and  O_2
REMARK    2  A    between atoms: O_2  and  C_3
REMARK    3  A    between atoms: C_10  and  C_11
REMARK    4  A    between atoms: N_13  and  C_14
REMARK    5  A    between atoms: C_14  and  C_15
REMARK    6  A    between atoms: C_18  and  C_19
REMARK    7  A    between atoms: C_20  and  C_21
REMARK                            x       y       z     vdW  Elec       q    Type
REMARK                         _______ _______ _______ _____ _____    ______ ____
ROOT
ATOM      1  C   UNL     1      48.352   6.438  15.125  0.00  0.00    +0.000 C 
ATOM      2  O   UNL     1      48.091   5.432  14.470  0.00  0.00    +0.000 OA
ATOM      3  N   UNL     1      48.325   6.422  16.496  0.00  0.00    +0.000 N 
ATOM      4  H   UNL     1      48.555   7.260  17.008  0.00  0.00    +0.000 HD
ENDROOT
BRANCH   1  12
ATOM      5  C   UNL     1      46.730   8.493  12.892  0.00  0.00    +0.000 A 
ATOM      6  N   UNL     1      46.301   9.478  12.080  0.00  0.00    +0.000 NA
ATOM      7  C   UNL     1      47.111  10.518  11.876  0.00  0.00    +0.000 A 
ATOM      8  N   UNL     1      48.329  10.696  12.384  0.00  0.00    +0.000 NA
ATOM      9  C   UNL     1      48.711   9.696  13.196  0.00  0.00    +0.000 A 
ATOM     10  S   UNL     1      50.241   9.747  13.927  0.00  0.00    +0.000 S 
ATOM     11  C   UNL     1      49.965   8.269  14.725  0.00  0.00    +0.000 A 
ATOM     12  C   UNL     1      48.717   7.711  14.466  0.00  0.00    +0.000 A 
ATOM     13  C   UNL     1      47.980   8.560  13.530  0.00  0.00    +0.000 A 
BRANCH   5  15
ATOM     14  C   UNL     1      45.896   6.486  12.039  0.00  0.00    +0.000 C 
ATOM     15  O   UNL     1      45.889   7.424  13.111  0.00  0.00    +0.000 OA
ENDBRANCH   5  15
ENDBRANCH   1  12
BRANCH   3  16
ATOM     16  C   UNL     1      47.998   5.249  17.278  0.00  0.00    +0.000 C 
BRANCH  16  17
ATOM     17  C   UNL     1      49.140   4.253  17.273  0.00  0.00    +0.000 A 
ATOM     18  C   UNL     1      48.911   2.901  16.976  0.00  0.00    +0.000 A 
ATOM     19  C   UNL     1      49.949   1.957  17.054  0.00  0.00    +0.000 A 
ATOM     20  C   UNL     1      51.234   2.346  17.440  0.00  0.00    +0.000 A 
ATOM     21  C   UNL     1      51.479   3.694  17.711  0.00  0.00    +0.000 A 
ATOM     22  C   UNL     1      50.441   4.639  17.628  0.00  0.00    +0.000 A 
BRANCH  20  23
ATOM     23  C   UNL     1      52.274   1.366  17.609  0.00  0.00    +0.000 C 
ATOM     24  C   UNL     1      53.105   0.510  17.790  0.00  0.00    +0.000 C 
BRANCH  24  25
ATOM     25  C   UNL     1      54.058  -0.532  18.026  0.00  0.00    +0.000 A 
ATOM     26  C   UNL     1      54.817  -1.083  17.001  0.00  0.00    +0.000 A 
ATOM     27  N   UNL     1      55.692  -2.101  17.201  0.00  0.00    +0.000 NA
ATOM     28  C   UNL     1      55.774  -2.546  18.476  0.00  0.00    +0.000 A 
ATOM     29  C   UNL     1      55.018  -1.994  19.501  0.00  0.00    +0.000 A 
ATOM     30  N   UNL     1      54.143  -0.979  19.302  0.00  0.00    +0.000 NA
ENDBRANCH  24  25
ENDBRANCH  20  23
ENDBRANCH  16  17
ENDBRANCH   3  16
TORSDOF 6
ENDMDL
MODEL 5
REMARK VINA RESULT:    -5.233      4.811      9.708
REMARK INTER + INTRA:          -7.827
REMARK INTER:                  -6.967
REMARK INTRA:                  -0.860
REMARK UNBOUND:                -0.759
REMARK  Name = 
REMARK  7 active torsions:
REMARK  status: ('A' for Active; 'I' for Inactive)
REMARK    1  A    between atoms: C_1  and  O_2
REMARK    2  A    between atoms: O_2  and  C_3
REMARK    3  A    between atoms: C_10  and  C_11
REMARK    4  A    between atoms: N_13  and  C_14
REMARK    5  A    between atoms: C_14  and  C_15
REMARK    6  A    between atoms: C_18  and  C_19
REMARK    7  A    between atoms: C_20  and  C_21
REMARK                            x       y       z     vdW  Elec       q    Type
REMARK                         _______ _______ _______ _____ _____    ______ ____
ROOT
ATOM      1  C   UNL     1      49.050   9.345  17.144  0.00  0.00    +0.000 C 
ATOM      2  O   UNL     1      47.959   9.868  17.357  0.00  0.00    +0.000 OA
ATOM      3  N   UNL     1      49.688   9.493  15.938  0.00  0.00    +0.000 N 
ATOM      4  H   UNL     1      50.588   9.061  15.795  0.00  0.00    +0.000 HD
ENDROOT
BRANCH   1  12
ATOM      5  C   UNL     1      49.430   5.961  17.634  0.00  0.00    +0.000 A 
ATOM      6  N   UNL     1      49.768   4.715  18.017  0.00  0.00    +0.000 NA
ATOM      7  C   UNL     1      50.528   4.579  19.105  0.00  0.00    +0.000 A 
ATOM      8  N   UNL     1      50.994   5.554  19.882  0.00  0.00    +0.000 NA
ATOM      9  C   UNL     1      50.643   6.780  19.456  0.00  0.00    +0.000 A 
ATOM     10  S   UNL     1      51.139   8.147  20.330  0.00  0.00    +0.000 S 
ATOM     11  C   UNL     1      50.371   9.192  19.229  0.00  0.00    +0.000 A 
ATOM     12  C   UNL     1      49.732   8.539  18.180  0.00  0.00    +0.000 A 
ATOM     13  C   UNL     1      49.880   7.092  18.335  0.00  0.00    +0.000 A 
BRANCH   5  15
ATOM     14  C   UNL     1      47.900   4.930  16.202  0.00  0.00    +0.000 C 
ATOM     15  O   UNL     1      48.653   6.101  16.504  0.00  0.00    +0.000 OA
ENDBRANCH   5  15
ENDBRANCH   1  12
BRANCH   3  16
ATOM     16  C   UNL     1      49.150  10.261  14.836  0.00  0.00    +0.000 C 
BRANCH  16  17
ATOM     17  C   UNL     1      48.430   9.366  13.847  0.00  0.00    +0.000 A 
ATOM     18  C   UNL     1      47.142   8.882  14.123  0.00  0.00    +0.000 A 
ATOM     19  C   UNL     1      46.505   7.984  13.250  0.00  0.00    +0.000 A 
ATOM     20  C   UNL     1      47.147   7.545  12.089  0.00  0.00    +0.000 A 
ATOM     21  C   UNL     1      48.418   8.042  11.792  0.00  0.00    +0.000 A 
ATOM     22  C   UNL     1      49.054   8.945  12.663  0.00  0.00    +0.000 A 
BRANCH  20  23
ATOM     23  C   UNL     1      46.534   6.556  11.244  0.00  0.00    +0.000 C 
ATOM     24  C   UNL     1      46.028   5.682  10.584  0.00  0.00    +0.000 C 
BRANCH  24  25
ATOM     25  C   UNL     1      45.427   4.617   9.838  0.00  0.00    +0.000 A 
ATOM     26  C   UNL     1      44.681   3.618  10.451  0.00  0.00    +0.000 A 
ATOM     27  N   UNL     1      44.143   2.578   9.762  0.00  0.00    +0.000 NA
ATOM     28  C   UNL     1      44.386   2.582   8.433  0.00  0.00    +0.000 A 
ATOM     29  C   UNL     1      45.129   3.582   7.820  0.00  0.00    +0.000 A 
ATOM     30  N   UNL     1      45.668   4.619   8.505  0.00  0.00    +0.000 NA
ENDBRANCH  24  25
ENDBRANCH  20  23
ENDBRANCH  16  17
ENDBRANCH   3  16
TORSDOF 6
ENDMDL
MODEL 6
REMARK VINA RESULT:    -5.044      9.890     10.635
REMARK INTER + INTRA:          -7.571
REMARK INTER:                  -6.584
REMARK INTRA:                  -0.988
REMARK UNBOUND:                -0.759
REMARK  Name = 
REMARK  7 active torsions:
REMARK  status: ('A' for Active; 'I' for Inactive)
REMARK    1  A    between atoms: C_1  and  O_2
REMARK    2  A    between atoms: O_2  and  C_3
REMARK    3  A    between atoms: C_10  and  C_11
REMARK    4  A    between atoms: N_13  and  C_14
REMARK    5  A    between atoms: C_14  and  C_15
REMARK    6  A    between atoms: C_18  and  C_19
REMARK    7  A    between atoms: C_20  and  C_21
REMARK                            x       y       z     vdW  Elec       q    Type
REMARK                         _______ _______ _______ _____ _____    ______ ____
ROOT
ATOM      1  C   UNL     1      38.714  -0.784  19.548  0.00  0.00    +0.000 C 
ATOM      2  O   UNL     1      38.104  -1.402  20.417  0.00  0.00    +0.000 OA
ATOM      3  N   UNL     1      39.339  -1.436  18.516  0.00  0.00    +0.000 N 
ATOM      4  H   UNL     1      39.823  -0.902  17.810  0.00  0.00    +0.000 HD
ENDROOT
BRANCH   1  12
ATOM      5  C   UNL     1      38.104   1.645  17.190  0.00  0.00    +0.000 A 
ATOM      6  N   UNL     1      37.882   2.771  16.485  0.00  0.00    +0.000 NA
ATOM      7  C   UNL     1      38.080   3.941  17.096  0.00  0.00    +0.000 A 
ATOM      8  N   UNL     1      38.493   4.130  18.347  0.00  0.00    +0.000 NA
ATOM      9  C   UNL     1      38.690   2.981  19.016  0.00  0.00    +0.000 A 
ATOM     10  S   UNL     1      39.227   3.028  20.624  0.00  0.00    +0.000 S 
ATOM     11  C   UNL     1      39.210   1.330  20.732  0.00  0.00    +0.000 A 
ATOM     12  C   UNL     1      38.794   0.693  19.567  0.00  0.00    +0.000 A 
ATOM     13  C   UNL     1      38.506   1.688  18.535  0.00  0.00    +0.000 A 
BRANCH   5  15
ATOM     14  C   UNL     1      36.524   0.034  16.590  0.00  0.00    +0.000 C 
ATOM     15  O   UNL     1      37.889   0.437  16.562  0.00  0.00    +0.000 OA
ENDBRANCH   5  15
ENDBRANCH   1  12
BRANCH   3  16
ATOM     16  C   UNL     1      39.337  -2.874  18.358  0.00  0.00    +0.000 C 
BRANCH  16  17
ATOM     17  C   UNL     1      40.749  -3.424  18.333  0.00  0.00    +0.000 A 
ATOM     18  C   UNL     1      41.444  -3.561  17.121  0.00  0.00    +0.000 A 
ATOM     19  C   UNL     1      42.720  -4.149  17.082  0.00  0.00    +0.000 A 
ATOM     20  C   UNL     1      43.321  -4.620  18.251  0.00  0.00    +0.000 A 
ATOM     21  C   UNL     1      42.649  -4.464  19.465  0.00  0.00    +0.000 A 
ATOM     22  C   UNL     1      41.374  -3.871  19.506  0.00  0.00    +0.000 A 
BRANCH  20  23
ATOM     23  C   UNL     1      44.584  -5.305  18.198  0.00  0.00    +0.000 C 
ATOM     24  C   UNL     1      45.640  -5.879  18.088  0.00  0.00    +0.000 C 
BRANCH  24  25
ATOM     25  C   UNL     1      46.892  -6.552  17.910  0.00  0.00    +0.000 A 
ATOM     26  C   UNL     1      47.826  -6.135  16.970  0.00  0.00    +0.000 A 
ATOM     27  N   UNL     1      48.997  -6.790  16.760  0.00  0.00    +0.000 NA
ATOM     28  C   UNL     1      49.191  -7.882  17.533  0.00  0.00    +0.000 A 
ATOM     29  C   UNL     1      48.260  -8.297  18.474  0.00  0.00    +0.000 A 
ATOM     30  N   UNL     1      47.090  -7.646  18.683  0.00  0.00    +0.000 NA
ENDBRANCH  24  25
ENDBRANCH  20  23
ENDBRANCH  16  17
ENDBRANCH   3  16
TORSDOF 6
ENDMDL
MODEL 7
REMARK VINA RESULT:    -4.969      7.756      9.051
REMARK INTER + INTRA:          -7.470
REMARK INTER:                  -6.746
REMARK INTRA:                  -0.724
REMARK UNBOUND:                -0.759
REMARK  Name = 
REMARK  7 active torsions:
REMARK  status: ('A' for Active; 'I' for Inactive)
REMARK    1  A    between atoms: C_1  and  O_2
REMARK    2  A    between atoms: O_2  and  C_3
REMARK    3  A    between atoms: C_10  and  C_11
REMARK    4  A    between atoms: N_13  and  C_14
REMARK    5  A    between atoms: C_14  and  C_15
REMARK    6  A    between atoms: C_18  and  C_19
REMARK    7  A    between atoms: C_20  and  C_21
REMARK                            x       y       z     vdW  Elec       q    Type
REMARK                         _______ _______ _______ _____ _____    ______ ____
ROOT
ATOM      1  C   UNL     1      50.638   8.656  12.526  0.00  0.00    +0.000 C 
ATOM      2  O   UNL     1      50.112   9.717  12.199  0.00  0.00    +0.000 OA
ATOM      3  N   UNL     1      51.588   8.059  11.737  0.00  0.00    +0.000 N 
ATOM      4  H   UNL     1      52.011   7.193  12.036  0.00  0.00    +0.000 HD
ENDROOT
BRANCH   1  12
ATOM      5  C   UNL     1      48.207   6.376  13.376  0.00  0.00    +0.000 A 
ATOM      6  N   UNL     1      47.402   5.459  13.946  0.00  0.00    +0.000 NA
ATOM      7  C   UNL     1      47.597   5.170  15.235  0.00  0.00    +0.000 A 
ATOM      8  N   UNL     1      48.508   5.704  16.045  0.00  0.00    +0.000 NA
ATOM      9  C   UNL     1      49.296   6.604  15.432  0.00  0.00    +0.000 A 
ATOM     10  S   UNL     1      50.510   7.396  16.313  0.00  0.00    +0.000 S 
ATOM     11  C   UNL     1      51.008   8.268  14.940  0.00  0.00    +0.000 A 
ATOM     12  C   UNL     1      50.280   7.978  13.790  0.00  0.00    +0.000 A 
ATOM     13  C   UNL     1      49.239   6.997  14.098  0.00  0.00    +0.000 A 
BRANCH   5  15
ATOM     14  C   UNL     1      46.655   6.513  11.636  0.00  0.00    +0.000 C 
ATOM     15  O   UNL     1      48.011   6.667  12.043  0.00  0.00    +0.000 OA
ENDBRANCH   5  15
ENDBRANCH   1  12
BRANCH   3  16
ATOM     16  C   UNL     1      52.048   8.609  10.480  0.00  0.00    +0.000 C 
BRANCH  16  17
ATOM     17  C   UNL     1      52.644   7.532   9.597  0.00  0.00    +0.000 A 
ATOM     18  C   UNL     1      52.371   7.499   8.221  0.00  0.00    +0.000 A 
ATOM     19  C   UNL     1      52.850   6.454   7.413  0.00  0.00    +0.000 A 
ATOM     20  C   UNL     1      53.603   5.417   7.966  0.00  0.00    +0.000 A 
ATOM     21  C   UNL     1      53.904   5.454   9.329  0.00  0.00    +0.000 A 
ATOM     22  C   UNL     1      53.429   6.502  10.138  0.00  0.00    +0.000 A 
BRANCH  20  23
ATOM     23  C   UNL     1      54.015   4.301   7.158  0.00  0.00    +0.000 C 
ATOM     24  C   UNL     1      54.296   3.355   6.464  0.00  0.00    +0.000 C 
BRANCH  24  25
ATOM     25  C   UNL     1      54.586   2.231   5.624  0.00  0.00    +0.000 A 
ATOM     26  C   UNL     1      55.373   2.346   4.485  0.00  0.00    +0.000 A 
ATOM     27  N   UNL     1      55.620   1.300   3.655  0.00  0.00    +0.000 NA
ATOM     28  C   UNL     1      55.043   0.132   4.016  0.00  0.00    +0.000 A 
ATOM     29  C   UNL     1      54.260   0.016   5.156  0.00  0.00    +0.000 A 
ATOM     30  N   UNL     1      54.011   1.059   5.984  0.00  0.00    +0.000 NA
ENDBRANCH  24  25
ENDBRANCH  20  23
ENDBRANCH  16  17
ENDBRANCH   3  16
TORSDOF 6
ENDMDL
MODEL 8
REMARK VINA RESULT:    -4.888     10.651     11.862
REMARK INTER + INTRA:          -7.361
REMARK INTER:                  -6.227
REMARK INTRA:                  -1.135
REMARK UNBOUND:                -0.759
REMARK  Name = 
REMARK  7 active torsions:
REMARK  status: ('A' for Active; 'I' for Inactive)
REMARK    1  A    between atoms: C_1  and  O_2
REMARK    2  A    between atoms: O_2  and  C_3
REMARK    3  A    between atoms: C_10  and  C_11
REMARK    4  A    between atoms: N_13  and  C_14
REMARK    5  A    between atoms: C_14  and  C_15
REMARK    6  A    between atoms: C_18  and  C_19
REMARK    7  A    between atoms: C_20  and  C_21
REMARK                            x       y       z     vdW  Elec       q    Type
REMARK                         _______ _______ _______ _____ _____    ______ ____
ROOT
ATOM      1  C   UNL     1      37.626  -0.725  11.965  0.00  0.00    +0.000 C 
ATOM      2  O   UNL     1      37.701   0.485  12.161  0.00  0.00    +0.000 OA
ATOM      3  N   UNL     1      37.656  -1.619  13.005  0.00  0.00    +0.000 N 
ATOM      4  H   UNL     1      37.582  -2.607  12.815  0.00  0.00    +0.000 HD
ENDROOT
BRANCH   1  12
ATOM      5  C   UNL     1      39.179  -3.297  10.289  0.00  0.00    +0.000 A 
ATOM      6  N   UNL     1      39.582  -4.266   9.444  0.00  0.00    +0.000 NA
ATOM      7  C   UNL     1      39.008  -4.326   8.241  0.00  0.00    +0.000 A 
ATOM      8  N   UNL     1      38.068  -3.516   7.762  0.00  0.00    +0.000 NA
ATOM      9  C   UNL     1      37.687  -2.573   8.641  0.00  0.00    +0.000 A 
ATOM     10  S   UNL     1      36.503  -1.442   8.200  0.00  0.00    +0.000 S 
ATOM     11  C   UNL     1      36.579  -0.690   9.724  0.00  0.00    +0.000 A 
ATOM     12  C   UNL     1      37.489  -1.276  10.599  0.00  0.00    +0.000 A 
ATOM     13  C   UNL     1      38.166  -2.390   9.935  0.00  0.00    +0.000 A 
BRANCH   5  15
ATOM     14  C   UNL     1      40.903  -2.386  11.573  0.00  0.00    +0.000 C 
ATOM     15  O   UNL     1      39.765  -3.241  11.535  0.00  0.00    +0.000 OA
ENDBRANCH   5  15
ENDBRANCH   1  12
BRANCH   3  16
ATOM     16  C   UNL     1      37.774  -1.229  14.393  0.00  0.00    +0.000 C 
BRANCH  16  17
ATOM     17  C   UNL     1      38.844  -2.038  15.099  0.00  0.00    +0.000 A 
ATOM     18  C   UNL     1      39.786  -1.412  15.930  0.00  0.00    +0.000 A 
ATOM     19  C   UNL     1      40.832  -2.144  16.518  0.00  0.00    +0.000 A 
ATOM     20  C   UNL     1      40.961  -3.514  16.279  0.00  0.00    +0.000 A 
ATOM     21  C   UNL     1      40.013  -4.151  15.476  0.00  0.00    +0.000 A 
ATOM     22  C   UNL     1      38.964  -3.420  14.891  0.00  0.00    +0.000 A 
BRANCH  20  23
ATOM     23  C   UNL     1      42.083  -4.244  16.806  0.00  0.00    +0.000 C 
ATOM     24  C   UNL     1      42.985  -4.910  17.250  0.00  0.00    +0.000 C 
BRANCH  24  25
ATOM     25  C   UNL     1      44.030  -5.740  17.770  0.00  0.00    +0.000 A 
ATOM     26  C   UNL     1      44.464  -5.641  19.086  0.00  0.00    +0.000 A 
ATOM     27  N   UNL     1      45.483  -6.389  19.581  0.00  0.00    +0.000 NA
ATOM     28  C   UNL     1      46.051  -7.241  18.698  0.00  0.00    +0.000 A 
ATOM     29  C   UNL     1      45.617  -7.343  17.384  0.00  0.00    +0.000 A 
ATOM     30  N   UNL     1      44.601  -6.596  16.888  0.00  0.00    +0.000 NA
ENDBRANCH  24  25
ENDBRANCH  20  23
ENDBRANCH  16  17
ENDBRANCH   3  16
TORSDOF 6
ENDMDL
MODEL 9
REMARK VINA RESULT:    -4.785     10.495     11.223
REMARK INTER + INTRA:          -7.222
REMARK INTER:                  -6.281
REMARK INTRA:                  -0.940
REMARK UNBOUND:                -0.759
REMARK  Name = 
REMARK  7 active torsions:
REMARK  status: ('A' for Active; 'I' for Inactive)
REMARK    1  A    between atoms: C_1  and  O_2
REMARK    2  A    between atoms: O_2  and  C_3
REMARK    3  A    between atoms: C_10  and  C_11
REMARK    4  A    between atoms: N_13  and  C_14
REMARK    5  A    between atoms: C_14  and  C_15
REMARK    6  A    between atoms: C_18  and  C_19
REMARK    7  A    between atoms: C_20  and  C_21
REMARK                            x       y       z     vdW  Elec       q    Type
REMARK                         _______ _______ _______ _____ _____    ______ ____
ROOT
ATOM      1  C   UNL     1      37.858  -0.783  17.354  0.00  0.00    +0.000 C 
ATOM      2  O   UNL     1      36.995  -1.623  17.111  0.00  0.00    +0.000 OA
ATOM      3  N   UNL     1      39.014  -0.715  16.618  0.00  0.00    +0.000 N 
ATOM      4  H   UNL     1      39.700  -0.008  16.833  0.00  0.00    +0.000 HD
ENDROOT
BRANCH   1  12
ATOM      5  C   UNL     1      37.698   2.653  17.425  0.00  0.00    +0.000 A 
ATOM      6  N   UNL     1      37.549   3.959  17.717  0.00  0.00    +0.000 NA
ATOM      7  C   UNL     1      37.336   4.295  18.991  0.00  0.00    +0.000 A 
ATOM      8  N   UNL     1      37.264   3.472  20.034  0.00  0.00    +0.000 NA
ATOM      9  C   UNL     1      37.406   2.179  19.695  0.00  0.00    +0.000 A 
ATOM     10  S   UNL     1      37.352   0.985  20.899  0.00  0.00    +0.000 S 
ATOM     11  C   UNL     1      37.575  -0.252  19.752  0.00  0.00    +0.000 A 
ATOM     12  C   UNL     1      37.687   0.203  18.443  0.00  0.00    +0.000 A 
ATOM     13  C   UNL     1      37.608   1.664  18.419  0.00  0.00    +0.000 A 
BRANCH   5  15
ATOM     14  C   UNL     1      36.696   2.181  15.369  0.00  0.00    +0.000 C 
ATOM     15  O   UNL     1      37.907   2.306  16.108  0.00  0.00    +0.000 OA
ENDBRANCH   5  15
ENDBRANCH   1  12
BRANCH   3  16
ATOM     16  C   UNL     1      39.316  -1.604  15.516  0.00  0.00    +0.000 C 
BRANCH  16  17
ATOM     17  C   UNL     1      40.299  -2.678  15.935  0.00  0.00    +0.000 A 
ATOM     18  C   UNL     1      40.805  -2.718  17.243  0.00  0.00    +0.000 A 
ATOM     19  C   UNL     1      41.781  -3.659  17.612  0.00  0.00    +0.000 A 
ATOM     20  C   UNL     1      42.278  -4.571  16.678  0.00  0.00    +0.000 A 
ATOM     21  C   UNL     1      41.761  -4.557  15.381  0.00  0.00    +0.000 A 
ATOM     22  C   UNL     1      40.781  -3.620  15.012  0.00  0.00    +0.000 A 
BRANCH  20  23
ATOM     23  C   UNL     1      43.342  -5.472  17.032  0.00  0.00    +0.000 C 
ATOM     24  C   UNL     1      44.277  -6.187  17.296  0.00  0.00    +0.000 C 
BRANCH  24  25
ATOM     25  C   UNL     1      45.416  -7.003  17.595  0.00  0.00    +0.000 A 
ATOM     26  C   UNL     1      45.666  -7.477  18.876  0.00  0.00    +0.000 A 
ATOM     27  N   UNL     1      46.765  -8.214  19.184  0.00  0.00    +0.000 NA
ATOM     28  C   UNL     1      47.603  -8.454  18.151  0.00  0.00    +0.000 A 
ATOM     29  C   UNL     1      47.352  -7.983  16.870  0.00  0.00    +0.000 A 
ATOM     30  N   UNL     1      46.257  -7.246  16.562  0.00  0.00    +0.000 NA
ENDBRANCH  24  25
ENDBRANCH  20  23
ENDBRANCH  16  17
ENDBRANCH   3  16
TORSDOF 6
ENDMDL
