MODEL 1
REMARK VINA RESULT:    -8.911      0.000      0.000
REMARK INTER + INTRA:         -13.646
REMARK INTER:                 -12.557
REMARK INTRA:                  -1.089
REMARK UNBOUND:                -1.089
REMARK  Name = 
REMARK  7 active torsions:
REMARK  status: ('A' for Active; 'I' for Inactive)
REMARK    1  A    between atoms: C_2  and  C_20
REMARK    2  A    between atoms: N_3  and  C_4
REMARK    3  A    between atoms: C_4  and  C_5
REMARK    4  A    between atoms: C_8  and  C_9
REMARK    5  A    between atoms: C_9  and  O_10
REMARK    6  A    between atoms: O_10  and  C_11
REMARK    7  A    between atoms: C_11  and  C_12
REMARK                            x       y       z     vdW  Elec       q    Type
REMARK                         _______ _______ _______ _____ _____    ______ ____
ROOT
ATOM      1  C   UNL     1      46.680   7.986  13.014  0.00  0.00    +0.000 C 
ENDROOT
BRANCH   1   2
ATOM      2  C   UNL     1      45.840   6.907  12.391  0.00  0.00    +0.000 A 
ATOM      3  C   UNL     1      46.065   6.503  11.085  0.00  0.00    +0.000 A 
ATOM      4  C   UNL     1      45.291   5.476  10.562  0.00  0.00    +0.000 A 
ATOM      5  C   UNL     1      44.319   4.899  11.365  0.00  0.00    +0.000 A 
ATOM      6  N   UNL     1      44.098   5.341  12.625  0.00  0.00    +0.000 NA
ATOM      7  N   UNL     1      44.859   6.356  13.141  0.00  0.00    +0.000 NA
BRANCH   5   8
ATOM      8  C   UNL     1      43.460   3.768  10.862  0.00  0.00    +0.000 C 
BRANCH   8   9
ATOM      9  O   UNL     1      43.860   3.403   9.538  0.00  0.00    +0.000 OA
BRANCH   9  10
ATOM     10  C   UNL     1      44.655   2.219   9.532  0.00  0.00    +0.000 C 
BRANCH  10  11
ATOM     11  C   UNL     1      45.644   2.280   8.395  0.00  0.00    +0.000 A 
ATOM     12  C   UNL     1      46.396   1.147   8.063  0.00  0.00    +0.000 A 
ATOM     13  C   UNL     1      47.273   1.164   6.976  0.00  0.00    +0.000 A 
ATOM     14  C   UNL     1      47.403   2.318   6.204  0.00  0.00    +0.000 A 
ATOM     15  C   UNL     1      46.669   3.457   6.529  0.00  0.00    +0.000 A 
ATOM     16  C   UNL     1      45.797   3.442   7.622  0.00  0.00    +0.000 A 
ENDBRANCH  10  11
ENDBRANCH   9  10
ENDBRANCH   8   9
ENDBRANCH   5   8
ENDBRANCH   1   2
BRANCH   1  19
ATOM     17  O   UNL     1      48.934   6.363  13.290  0.00  0.00    +0.000 OA
ATOM     18  C   UNL     1      48.334   6.717  14.305  0.00  0.00    +0.000 C 
ATOM     19  N   UNL     1      47.253   7.554  14.260  0.00  0.00    +0.000 N 
ATOM     20  H   UNL     1      46.776   7.836  15.109  0.00  0.00    +0.000 HD
BRANCH  18  21
ATOM     21  C   UNL     1      48.761   6.305  15.633  0.00  0.00    +0.000 A 
ATOM     22  C   UNL     1      49.720   7.011  16.345  0.00  0.00    +0.000 A 
ATOM     23  S   UNL     1      50.042   6.330  17.882  0.00  0.00    +0.000 S 
ATOM     24  C   UNL     1      48.929   5.067  17.619  0.00  0.00    +0.000 A 
ATOM     25  N   UNL     1      48.715   4.105  18.558  0.00  0.00    +0.000 NA
ATOM     26  C   UNL     1      47.831   3.226  18.220  0.00  0.00    +0.000 A 
ATOM     27  N   UNL     1      47.144   3.216  17.036  0.00  0.00    +0.000 N 
ATOM     28  C   UNL     1      47.360   4.127  16.042  0.00  0.00    +0.000 A 
ATOM     29  O   UNL     1      46.757   4.051  14.980  0.00  0.00    +0.000 OA
ATOM     30  C   UNL     1      48.321   5.169  16.385  0.00  0.00    +0.000 A 
ATOM     31  H   UNL     1      46.471   2.494  16.824  0.00  0.00    +0.000 HD
ENDBRANCH  18  21
ENDBRANCH   1  19
TORSDOF 7
ENDMDL
MODEL 2
REMARK VINA RESULT:    -8.373      1.489      1.709
REMARK INTER + INTRA:         -12.889
REMARK INTER:                 -11.901
REMARK INTRA:                  -0.989
REMARK UNBOUND:                -1.089
REMARK  Name = 
REMARK  7 active torsions:
REMARK  status: ('A' for Active; 'I' for Inactive)
REMARK    1  A    between atoms: C_2  and  C_20
REMARK    2  A    between atoms: N_3  and  C_4
REMARK    3  A    between atoms: C_4  and  C_5
REMARK    4  A    between atoms: C_8  and  C_9
REMARK    5  A    between atoms: C_9  and  O_10
REMARK    6  A    between atoms: O_10  and  C_11
REMARK    7  A    between atoms: C_11  and  C_12
REMARK                            x       y       z     vdW  Elec       q    Type
REMARK                         _______ _______ _______ _____ _____    ______ ____
ROOT
ATOM      1  C   UNL     1      48.007   6.823  13.431  0.00  0.00    +0.000 C 
ENDROOT
BRANCH   1   2
ATOM      2  C   UNL     1      46.884   6.005  12.858  0.00  0.00    +0.000 A 
ATOM      3  C   UNL     1      46.274   6.377  11.671  0.00  0.00    +0.000 A 
ATOM      4  C   UNL     1      45.268   5.571  11.158  0.00  0.00    +0.000 A 
ATOM      5  C   UNL     1      44.907   4.429  11.857  0.00  0.00    +0.000 A 
ATOM      6  N   UNL     1      45.496   4.112  13.033  0.00  0.00    +0.000 NA
ATOM      7  N   UNL     1      46.487   4.908  13.542  0.00  0.00    +0.000 NA
BRANCH   5   8
ATOM      8  C   UNL     1      43.835   3.504  11.342  0.00  0.00    +0.000 C 
BRANCH   8   9
ATOM      9  O   UNL     1      43.960   3.350   9.925  0.00  0.00    +0.000 OA
BRANCH   9  10
ATOM     10  C   UNL     1      44.533   2.092   9.578  0.00  0.00    +0.000 C 
BRANCH  10  11
ATOM     11  C   UNL     1      45.558   2.287   8.487  0.00  0.00    +0.000 A 
ATOM     12  C   UNL     1      46.347   1.208   8.070  0.00  0.00    +0.000 A 
ATOM     13  C   UNL     1      47.258   1.352   7.021  0.00  0.00    +0.000 A 
ATOM     14  C   UNL     1      47.384   2.580   6.373  0.00  0.00    +0.000 A 
ATOM     15  C   UNL     1      46.614   3.666   6.783  0.00  0.00    +0.000 A 
ATOM     16  C   UNL     1      45.707   3.523   7.839  0.00  0.00    +0.000 A 
ENDBRANCH  10  11
ENDBRANCH   9  10
ENDBRANCH   8   9
ENDBRANCH   5   8
ENDBRANCH   1   2
BRANCH   1  19
ATOM     17  O   UNL     1      50.115   6.608  15.249  0.00  0.00    +0.000 OA
ATOM     18  C   UNL     1      48.975   6.778  15.683  0.00  0.00    +0.000 C 
ATOM     19  N   UNL     1      47.896   6.945  14.859  0.00  0.00    +0.000 N 
ATOM     20  H   UNL     1      46.967   7.087  15.238  0.00  0.00    +0.000 HD
BRANCH  18  21
ATOM     21  C   UNL     1      48.700   6.858  17.110  0.00  0.00    +0.000 A 
ATOM     22  C   UNL     1      48.374   8.057  17.725  0.00  0.00    +0.000 A 
ATOM     23  S   UNL     1      48.089   7.885  19.405  0.00  0.00    +0.000 S 
ATOM     24  C   UNL     1      48.421   6.216  19.349  0.00  0.00    +0.000 A 
ATOM     25  N   UNL     1      48.364   5.444  20.469  0.00  0.00    +0.000 NA
ATOM     26  C   UNL     1      48.625   4.196  20.264  0.00  0.00    +0.000 A 
ATOM     27  N   UNL     1      48.937   3.647  19.050  0.00  0.00    +0.000 N 
ATOM     28  C   UNL     1      49.058   4.386  17.907  0.00  0.00    +0.000 A 
ATOM     29  O   UNL     1      49.388   3.860  16.853  0.00  0.00    +0.000 OA
ATOM     30  C   UNL     1      48.736   5.798  18.072  0.00  0.00    +0.000 A 
ATOM     31  H   UNL     1      49.142   2.663  18.954  0.00  0.00    +0.000 HD
ENDBRANCH  18  21
ENDBRANCH   1  19
TORSDOF 7
ENDMDL
MODEL 3
REMARK VINA RESULT:    -7.875      2.228      3.320
REMARK INTER + INTRA:         -12.187
REMARK INTER:                 -11.164
REMARK INTRA:                  -1.023
REMARK UNBOUND:                -1.089
REMARK  Name = 
REMARK  7 active torsions:
REMARK  status: ('A' for Active; 'I' for Inactive)
REMARK    1  A    between atoms: C_2  and  C_20
REMARK    2  A    between atoms: N_3  and  C_4
REMARK    3  A    between atoms: C_4  and  C_5
REMARK    4  A    between atoms: C_8  and  C_9
REMARK    5  A    between atoms: C_9  and  O_10
REMARK    6  A    between atoms: O_10  and  C_11
REMARK    7  A    between atoms: C_11  and  C_12
REMARK                            x       y       z     vdW  Elec       q    Type
REMARK                         _______ _______ _______ _____ _____    ______ ____
ROOT
ATOM      1  C   UNL     1      47.551   3.794  15.037  0.00  0.00    +0.000 C 
ENDROOT
BRANCH   1   2
ATOM      2  C   UNL     1      46.655   4.142  13.882  0.00  0.00    +0.000 A 
ATOM      3  C   UNL     1      46.491   5.460  13.487  0.00  0.00    +0.000 A 
ATOM      4  C   UNL     1      45.685   5.732  12.391  0.00  0.00    +0.000 A 
ATOM      5  C   UNL     1      45.069   4.675  11.737  0.00  0.00    +0.000 A 
ATOM      6  N   UNL     1      45.219   3.402  12.170  0.00  0.00    +0.000 NA
ATOM      7  N   UNL     1      46.012   3.132  13.253  0.00  0.00    +0.000 NA
BRANCH   5   8
ATOM      8  C   UNL     1      44.198   4.905  10.530  0.00  0.00    +0.000 C 
BRANCH   8   9
ATOM      9  O   UNL     1      44.203   3.743   9.695  0.00  0.00    +0.000 OA
BRANCH   9  10
ATOM     10  C   UNL     1      44.538   4.063   8.346  0.00  0.00    +0.000 C 
BRANCH  10  11
ATOM     11  C   UNL     1      45.630   3.138   7.865  0.00  0.00    +0.000 A 
ATOM     12  C   UNL     1      45.709   1.833   8.365  0.00  0.00    +0.000 A 
ATOM     13  C   UNL     1      46.674   0.942   7.887  0.00  0.00    +0.000 A 
ATOM     14  C   UNL     1      47.568   1.349   6.898  0.00  0.00    +0.000 A 
ATOM     15  C   UNL     1      47.509   2.649   6.399  0.00  0.00    +0.000 A 
ATOM     16  C   UNL     1      46.547   3.542   6.882  0.00  0.00    +0.000 A 
ENDBRANCH  10  11
ENDBRANCH   9  10
ENDBRANCH   8   9
ENDBRANCH   5   8
ENDBRANCH   1   2
BRANCH   1  19
ATOM     17  O   UNL     1      49.487   4.189  17.009  0.00  0.00    +0.000 OA
ATOM     18  C   UNL     1      48.481   4.900  17.018  0.00  0.00    +0.000 C 
ATOM     19  N   UNL     1      47.511   4.806  16.057  0.00  0.00    +0.000 N 
ATOM     20  H   UNL     1      46.694   5.404  16.082  0.00  0.00    +0.000 HD
BRANCH  18  21
ATOM     21  C   UNL     1      48.274   5.925  18.029  0.00  0.00    +0.000 A 
ATOM     22  C   UNL     1      47.940   5.606  19.337  0.00  0.00    +0.000 A 
ATOM     23  S   UNL     1      47.759   6.987  20.332  0.00  0.00    +0.000 S 
ATOM     24  C   UNL     1      48.095   8.037  19.034  0.00  0.00    +0.000 A 
ATOM     25  N   UNL     1      48.098   9.389  19.199  0.00  0.00    +0.000 NA
ATOM     26  C   UNL     1      48.387  10.050  18.128  0.00  0.00    +0.000 A 
ATOM     27  N   UNL     1      48.671   9.492  16.911  0.00  0.00    +0.000 N 
ATOM     28  C   UNL     1      48.630   8.146  16.681  0.00  0.00    +0.000 A 
ATOM     29  O   UNL     1      48.843   7.694  15.565  0.00  0.00    +0.000 OA
ATOM     30  C   UNL     1      48.347   7.346  17.867  0.00  0.00    +0.000 A 
ATOM     31  H   UNL     1      48.879  10.063  16.105  0.00  0.00    +0.000 HD
ENDBRANCH  18  21
ENDBRANCH   1  19
TORSDOF 7
ENDMDL
MODEL 4
REMARK VINA RESULT:    -7.376      2.988      8.138
REMARK INTER + INTRA:         -11.483
REMARK INTER:                 -10.146
REMARK INTRA:                  -1.338
REMARK UNBOUND:                -1.089
REMARK  Name = 
REMARK  7 active torsions:
REMARK  status: ('A' for Active; 'I' for Inactive)
REMARK    1  A    between atoms: C_2  and  C_20
REMARK    2  A    between atoms: N_3  and  C_4
REMARK    3  A    between atoms: C_4  and  C_5
REMARK    4  A    between atoms: C_8  and  C_9
REMARK    5  A    between atoms: C_9  and  O_10
REMARK    6  A    between atoms: O_10  and  C_11
REMARK    7  A    between atoms: C_11  and  C_12
REMARK                            x       y       z     vdW  Elec       q    Type
REMARK                         _______ _______ _______ _____ _____    ______ ____
ROOT
ATOM      1  C   UNL     1      47.697   7.645  11.990  0.00  0.00    +0.000 C 
ENDROOT
BRANCH   1   2
ATOM      2  C   UNL     1      48.196   7.679  13.407  0.00  0.00    +0.000 A 
ATOM      3  C   UNL     1      47.934   8.769  14.222  0.00  0.00    +0.000 A 
ATOM      4  C   UNL     1      48.379   8.741  15.536  0.00  0.00    +0.000 A 
ATOM      5  C   UNL     1      49.075   7.627  15.980  0.00  0.00    +0.000 A 
ATOM      6  N   UNL     1      49.348   6.594  15.149  0.00  0.00    +0.000 NA
ATOM      7  N   UNL     1      48.911   6.621  13.852  0.00  0.00    +0.000 NA
BRANCH   5   8
ATOM      8  C   UNL     1      49.569   7.529  17.401  0.00  0.00    +0.000 C 
BRANCH   8   9
ATOM      9  O   UNL     1      48.514   7.079  18.255  0.00  0.00    +0.000 OA
BRANCH   9  10
ATOM     10  C   UNL     1      48.925   5.985  19.072  0.00  0.00    +0.000 C 
BRANCH  10  11
ATOM     11  C   UNL     1      48.849   4.704  18.279  0.00  0.00    +0.000 A 
ATOM     12  C   UNL     1      47.643   4.330  17.673  0.00  0.00    +0.000 A 
ATOM     13  C   UNL     1      47.566   3.180  16.884  0.00  0.00    +0.000 A 
ATOM     14  C   UNL     1      48.701   2.394  16.687  0.00  0.00    +0.000 A 
ATOM     15  C   UNL     1      49.905   2.747  17.292  0.00  0.00    +0.000 A 
ATOM     16  C   UNL     1      49.979   3.895  18.089  0.00  0.00    +0.000 A 
ENDBRANCH  10  11
ENDBRANCH   9  10
ENDBRANCH   8   9
ENDBRANCH   5   8
ENDBRANCH   1   2
BRANCH   1  19
ATOM     17  O   UNL     1      44.913   7.491  11.850  0.00  0.00    +0.000 OA
ATOM     18  C   UNL     1      45.568   6.456  11.724  0.00  0.00    +0.000 C 
ATOM     19  N   UNL     1      46.937   6.453  11.728  0.00  0.00    +0.000 N 
ATOM     20  H   UNL     1      47.456   5.590  11.618  0.00  0.00    +0.000 HD
BRANCH  18  21
ATOM     21  C   UNL     1      44.933   5.164  11.516  0.00  0.00    +0.000 A 
ATOM     22  C   UNL     1      44.220   4.529  12.521  0.00  0.00    +0.000 A 
ATOM     23  S   UNL     1      43.564   3.027  12.024  0.00  0.00    +0.000 S 
ATOM     24  C   UNL     1      44.239   3.183  10.468  0.00  0.00    +0.000 A 
ATOM     25  N   UNL     1      44.063   2.221   9.521  0.00  0.00    +0.000 NA
ATOM     26  C   UNL     1      44.621   2.490   8.387  0.00  0.00    +0.000 A 
ATOM     27  N   UNL     1      45.336   3.624   8.110  0.00  0.00    +0.000 N 
ATOM     28  C   UNL     1      45.584   4.593   9.041  0.00  0.00    +0.000 A 
ATOM     29  O   UNL     1      46.270   5.567   8.764  0.00  0.00    +0.000 OA
ATOM     30  C   UNL     1      44.944   4.360  10.330  0.00  0.00    +0.000 A 
ATOM     31  H   UNL     1      45.758   3.773   7.206  0.00  0.00    +0.000 HD
ENDBRANCH  18  21
ENDBRANCH   1  19
TORSDOF 7
ENDMDL
MODEL 5
REMARK VINA RESULT:    -7.052      4.855      8.841
REMARK INTER + INTRA:         -11.027
REMARK INTER:                 -10.040
REMARK INTRA:                  -0.987
REMARK UNBOUND:                -1.089
REMARK  Name = 
REMARK  7 active torsions:
REMARK  status: ('A' for Active; 'I' for Inactive)
REMARK    1  A    between atoms: C_2  and  C_20
REMARK    2  A    between atoms: N_3  and  C_4
REMARK    3  A    between atoms: C_4  and  C_5
REMARK    4  A    between atoms: C_8  and  C_9
REMARK    5  A    between atoms: C_9  and  O_10
REMARK    6  A    between atoms: O_10  and  C_11
REMARK    7  A    between atoms: C_11  and  C_12
REMARK                            x       y       z     vdW  Elec       q    Type
REMARK                         _______ _______ _______ _____ _____    ______ ____
ROOT
ATOM      1  C   UNL     1      48.574   5.918  16.948  0.00  0.00    +0.000 C 
ENDROOT
BRANCH   1   2
ATOM      2  C   UNL     1      49.339   4.638  17.127  0.00  0.00    +0.000 A 
ATOM      3  C   UNL     1      48.672   3.434  17.293  0.00  0.00    +0.000 A 
ATOM      4  C   UNL     1      49.418   2.270  17.415  0.00  0.00    +0.000 A 
ATOM      5  C   UNL     1      50.802   2.358  17.374  0.00  0.00    +0.000 A 
ATOM      6  N   UNL     1      51.425   3.552  17.249  0.00  0.00    +0.000 NA
ATOM      7  N   UNL     1      50.690   4.702  17.130  0.00  0.00    +0.000 NA
BRANCH   5   8
ATOM      8  C   UNL     1      51.665   1.128  17.483  0.00  0.00    +0.000 C 
BRANCH   8   9
ATOM      9  O   UNL     1      52.724   1.355  18.418  0.00  0.00    +0.000 OA
BRANCH   9  10
ATOM     10  C   UNL     1      54.006   1.237  17.805  0.00  0.00    +0.000 C 
BRANCH  10  11
ATOM     11  C   UNL     1      54.321  -0.220  17.571  0.00  0.00    +0.000 A 
ATOM     12  C   UNL     1      54.718  -0.653  16.300  0.00  0.00    +0.000 A 
ATOM     13  C   UNL     1      55.073  -1.986  16.077  0.00  0.00    +0.000 A 
ATOM     14  C   UNL     1      55.041  -2.900  17.129  0.00  0.00    +0.000 A 
ATOM     15  C   UNL     1      54.637  -2.487  18.397  0.00  0.00    +0.000 A 
ATOM     16  C   UNL     1      54.274  -1.154  18.618  0.00  0.00    +0.000 A 
ENDBRANCH  10  11
ENDBRANCH   9  10
ENDBRANCH   8   9
ENDBRANCH   5   8
ENDBRANCH   1   2
BRANCH   1  19
ATOM     17  O   UNL     1      49.298   6.570  14.332  0.00  0.00    +0.000 OA
ATOM     18  C   UNL     1      48.132   6.243  14.558  0.00  0.00    +0.000 C 
ATOM     19  N   UNL     1      47.709   5.859  15.801  0.00  0.00    +0.000 N 
ATOM     20  H   UNL     1      46.746   5.590  15.964  0.00  0.00    +0.000 HD
BRANCH  18  21
ATOM     21  C   UNL     1      47.129   6.199  13.506  0.00  0.00    +0.000 A 
ATOM     22  C   UNL     1      46.696   7.346  12.858  0.00  0.00    +0.000 A 
ATOM     23  S   UNL     1      45.519   7.027  11.657  0.00  0.00    +0.000 S 
ATOM     24  C   UNL     1      45.543   5.358  11.995  0.00  0.00    +0.000 A 
ATOM     25  N   UNL     1      44.748   4.486  11.316  0.00  0.00    +0.000 NA
ATOM     26  C   UNL     1      44.891   3.254  11.674  0.00  0.00    +0.000 A 
ATOM     27  N   UNL     1      45.749   2.810  12.643  0.00  0.00    +0.000 N 
ATOM     28  C   UNL     1      46.528   3.649  13.388  0.00  0.00    +0.000 A 
ATOM     29  O   UNL     1      47.245   3.213  14.278  0.00  0.00    +0.000 OA
ATOM     30  C   UNL     1      46.437   5.051  12.999  0.00  0.00    +0.000 A 
ATOM     31  H   UNL     1      45.808   1.832  12.887  0.00  0.00    +0.000 HD
ENDBRANCH  18  21
ENDBRANCH   1  19
TORSDOF 7
ENDMDL
MODEL 6
REMARK VINA RESULT:    -6.965      3.983      8.883
REMARK INTER + INTRA:         -10.904
REMARK INTER:                  -9.933
REMARK INTRA:                  -0.971
REMARK UNBOUND:                -1.089
REMARK  Name = 
REMARK  7 active torsions:
REMARK  status: ('A' for Active; 'I' for Inactive)
REMARK    1  A    between atoms: C_2  and  C_20
REMARK    2  A    between atoms: N_3  and  C_4
REMARK    3  A    between atoms: C_4  and  C_5
REMARK    4  A    between atoms: C_8  and  C_9
REMARK    5  A    between atoms: C_9  and  O_10
REMARK    6  A    between atoms: O_10  and  C_11
REMARK    7  A    between atoms: C_11  and  C_12
REMARK                            x       y       z     vdW  Elec       q    Type
REMARK                         _______ _______ _______ _____ _____    ______ ____
ROOT
ATOM      1  C   UNL     1      47.349   3.741  16.552  0.00  0.00    +0.000 C 
ENDROOT
BRANCH   1   2
ATOM      2  C   UNL     1      48.681   4.267  17.007  0.00  0.00    +0.000 A 
ATOM      3  C   UNL     1      49.266   3.793  18.170  0.00  0.00    +0.000 A 
ATOM      4  C   UNL     1      50.516   4.277  18.533  0.00  0.00    +0.000 A 
ATOM      5  C   UNL     1      51.126   5.221  17.720  0.00  0.00    +0.000 A 
ATOM      6  N   UNL     1      50.512   5.692  16.610  0.00  0.00    +0.000 NA
ATOM      7  N   UNL     1      49.278   5.217  16.253  0.00  0.00    +0.000 NA
BRANCH   5   8
ATOM      8  C   UNL     1      52.490   5.770  18.050  0.00  0.00    +0.000 C 
BRANCH   8   9
ATOM      9  O   UNL     1      53.494   5.051  17.330  0.00  0.00    +0.000 OA
BRANCH   9  10
ATOM     10  C   UNL     1      54.271   4.221  18.192  0.00  0.00    +0.000 C 
BRANCH  10  11
ATOM     11  C   UNL     1      54.202   2.792  17.715  0.00  0.00    +0.000 A 
ATOM     12  C   UNL     1      55.244   2.263  16.944  0.00  0.00    +0.000 A 
ATOM     13  C   UNL     1      55.229   0.924  16.543  0.00  0.00    +0.000 A 
ATOM     14  C   UNL     1      54.169   0.098  16.916  0.00  0.00    +0.000 A 
ATOM     15  C   UNL     1      53.119   0.613  17.673  0.00  0.00    +0.000 A 
ATOM     16  C   UNL     1      53.131   1.955  18.068  0.00  0.00    +0.000 A 
ENDBRANCH  10  11
ENDBRANCH   9  10
ENDBRANCH   8   9
ENDBRANCH   5   8
ENDBRANCH   1   2
BRANCH   1  19
ATOM     17  O   UNL     1      47.144   3.257  13.810  0.00  0.00    +0.000 OA
ATOM     18  C   UNL     1      46.722   4.325  14.254  0.00  0.00    +0.000 C 
ATOM     19  N   UNL     1      46.737   4.618  15.591  0.00  0.00    +0.000 N 
ATOM     20  H   UNL     1      46.381   5.502  15.934  0.00  0.00    +0.000 HD
BRANCH  18  21
ATOM     21  C   UNL     1      46.133   5.337  13.391  0.00  0.00    +0.000 A 
ATOM     22  C   UNL     1      46.812   6.500  13.059  0.00  0.00    +0.000 A 
ATOM     23  S   UNL     1      45.909   7.524  12.026  0.00  0.00    +0.000 S 
ATOM     24  C   UNL     1      44.587   6.451  12.023  0.00  0.00    +0.000 A 
ATOM     25  N   UNL     1      43.452   6.728  11.324  0.00  0.00    +0.000 NA
ATOM     26  C   UNL     1      42.546   5.811  11.405  0.00  0.00    +0.000 A 
ATOM     27  N   UNL     1      42.664   4.648  12.116  0.00  0.00    +0.000 N 
ATOM     28  C   UNL     1      43.760   4.347  12.875  0.00  0.00    +0.000 A 
ATOM     29  O   UNL     1      43.804   3.318  13.534  0.00  0.00    +0.000 OA
ATOM     30  C   UNL     1      44.834   5.331  12.789  0.00  0.00    +0.000 A 
ATOM     31  H   UNL     1      41.915   3.972  12.151  0.00  0.00    +0.000 HD
ENDBRANCH  18  21
ENDBRANCH   1  19
TORSDOF 7
ENDMDL
MODEL 7
REMARK VINA RESULT:    -6.475      3.749      8.384
REMARK INTER + INTRA:         -10.214
REMARK INTER:                  -8.971
REMARK INTRA:                  -1.243
REMARK UNBOUND:                -1.089
REMARK  Name = 
REMARK  7 active torsions:
REMARK  status: ('A' for Active; 'I' for Inactive)
REMARK    1  A    between atoms: C_2  and  C_20
REMARK    2  A    between atoms: N_3  and  C_4
REMARK    3  A    between atoms: C_4  and  C_5
REMARK    4  A    between atoms: C_8  and  C_9
REMARK    5  A    between atoms: C_9  and  O_10
REMARK    6  A    between atoms: O_10  and  C_11
REMARK    7  A    between atoms: C_11  and  C_12
REMARK                            x       y       z     vdW  Elec       q    Type
REMARK                         _______ _______ _______ _____ _____    ______ ____
ROOT
ATOM      1  C   UNL     1      47.180   3.419  16.782  0.00  0.00    +0.000 C 
ENDROOT
BRANCH   1   2
ATOM      2  C   UNL     1      48.519   3.774  17.363  0.00  0.00    +0.000 A 
ATOM      3  C   UNL     1      49.599   2.917  17.221  0.00  0.00    +0.000 A 
ATOM      4  C   UNL     1      50.828   3.302  17.739  0.00  0.00    +0.000 A 
ATOM      5  C   UNL     1      50.926   4.527  18.383  0.00  0.00    +0.000 A 
ATOM      6  N   UNL     1      49.844   5.325  18.538  0.00  0.00    +0.000 NA
ATOM      7  N   UNL     1      48.631   4.945  18.030  0.00  0.00    +0.000 NA
BRANCH   5   8
ATOM      8  C   UNL     1      52.236   5.009  18.949  0.00  0.00    +0.000 C 
BRANCH   8   9
ATOM      9  O   UNL     1      52.652   6.199  18.274  0.00  0.00    +0.000 OA
BRANCH   9  10
ATOM     10  C   UNL     1      53.333   5.906  17.056  0.00  0.00    +0.000 C 
BRANCH  10  11
ATOM     11  C   UNL     1      52.815   6.804  15.959  0.00  0.00    +0.000 A 
ATOM     12  C   UNL     1      51.441   7.045  15.846  0.00  0.00    +0.000 A 
ATOM     13  C   UNL     1      50.946   7.921  14.876  0.00  0.00    +0.000 A 
ATOM     14  C   UNL     1      51.826   8.571  14.012  0.00  0.00    +0.000 A 
ATOM     15  C   UNL     1      53.196   8.334  14.106  0.00  0.00    +0.000 A 
ATOM     16  C   UNL     1      53.690   7.450  15.072  0.00  0.00    +0.000 A 
ENDBRANCH  10  11
ENDBRANCH   9  10
ENDBRANCH   8   9
ENDBRANCH   5   8
ENDBRANCH   1   2
BRANCH   1  19
ATOM     17  O   UNL     1      47.202   3.087  14.010  0.00  0.00    +0.000 OA
ATOM     18  C   UNL     1      46.837   4.169  14.472  0.00  0.00    +0.000 C 
ATOM     19  N   UNL     1      46.748   4.395  15.819  0.00  0.00    +0.000 N 
ATOM     20  H   UNL     1      46.442   5.292  16.177  0.00  0.00    +0.000 HD
BRANCH  18  21
ATOM     21  C   UNL     1      46.431   5.273  13.617  0.00  0.00    +0.000 A 
ATOM     22  C   UNL     1      47.246   6.374  13.406  0.00  0.00    +0.000 A 
ATOM     23  S   UNL     1      46.545   7.530  12.356  0.00  0.00    +0.000 S 
ATOM     24  C   UNL     1      45.131   6.597  12.181  0.00  0.00    +0.000 A 
ATOM     25  N   UNL     1      44.096   7.019  11.403  0.00  0.00    +0.000 NA
ATOM     26  C   UNL     1      43.102   6.196  11.358  0.00  0.00    +0.000 A 
ATOM     27  N   UNL     1      43.042   4.996  12.014  0.00  0.00    +0.000 N 
ATOM     28  C   UNL     1      44.030   4.553  12.847  0.00  0.00    +0.000 A 
ATOM     29  O   UNL     1      43.913   3.496  13.451  0.00  0.00    +0.000 OA
ATOM     30  C   UNL     1      45.197   5.425  12.905  0.00  0.00    +0.000 A 
ATOM     31  H   UNL     1      42.230   4.400  11.947  0.00  0.00    +0.000 HD
ENDBRANCH  18  21
ENDBRANCH   1  19
TORSDOF 7
ENDMDL
MODEL 8
REMARK VINA RESULT:    -6.354      1.896      2.657
REMARK INTER + INTRA:         -10.044
REMARK INTER:                  -9.102
REMARK INTRA:                  -0.942
REMARK UNBOUND:                -1.089
REMARK  Name = 
REMARK  7 active torsions:
REMARK  status: ('A' for Active; 'I' for Inactive)
REMARK    1  A    between atoms: C_2  and  C_20
REMARK    2  A    between atoms: N_3  and  C_4
REMARK    3  A    between atoms: C_4  and  C_5
REMARK    4  A    between atoms: C_8  and  C_9
REMARK    5  A    between atoms: C_9  and  O_10
REMARK    6  A    between atoms: O_10  and  C_11
REMARK    7  A    between atoms: C_11  and  C_12
REMARK                            x       y       z     vdW  Elec       q    Type
REMARK                         _______ _______ _______ _____ _____    ______ ____
ROOT
ATOM      1  C   UNL     1      48.480   8.855  14.717  0.00  0.00    +0.000 C 
ENDROOT
BRANCH   1   2
ATOM      2  C   UNL     1      47.451   8.194  13.844  0.00  0.00    +0.000 A 
ATOM      3  C   UNL     1      46.337   8.896  13.410  0.00  0.00    +0.000 A 
ATOM      4  C   UNL     1      45.433   8.258  12.573  0.00  0.00    +0.000 A 
ATOM      5  C   UNL     1      45.675   6.942  12.209  0.00  0.00    +0.000 A 
ATOM      6  N   UNL     1      46.752   6.272  12.679  0.00  0.00    +0.000 NA
ATOM      7  N   UNL     1      47.644   6.899  13.507  0.00  0.00    +0.000 NA
BRANCH   5   8
ATOM      8  C   UNL     1      44.740   6.202  11.287  0.00  0.00    +0.000 C 
BRANCH   8   9
ATOM      9  O   UNL     1      45.381   5.028  10.780  0.00  0.00    +0.000 OA
BRANCH   9  10
ATOM     10  C   UNL     1      44.484   4.223  10.018  0.00  0.00    +0.000 C 
BRANCH  10  11
ATOM     11  C   UNL     1      45.262   3.426   8.999  0.00  0.00    +0.000 A 
ATOM     12  C   UNL     1      45.966   4.088   7.986  0.00  0.00    +0.000 A 
ATOM     13  C   UNL     1      46.742   3.372   7.070  0.00  0.00    +0.000 A 
ATOM     14  C   UNL     1      46.825   1.984   7.164  0.00  0.00    +0.000 A 
ATOM     15  C   UNL     1      46.122   1.310   8.161  0.00  0.00    +0.000 A 
ATOM     16  C   UNL     1      45.339   2.027   9.072  0.00  0.00    +0.000 A 
ENDBRANCH  10  11
ENDBRANCH   9  10
ENDBRANCH   8   9
ENDBRANCH   5   8
ENDBRANCH   1   2
BRANCH   1  19
ATOM     17  O   UNL     1      49.217   8.951  17.408  0.00  0.00    +0.000 OA
ATOM     18  C   UNL     1      49.651   8.035  16.709  0.00  0.00    +0.000 C 
ATOM     19  N   UNL     1      49.297   7.886  15.396  0.00  0.00    +0.000 N 
ATOM     20  H   UNL     1      49.663   7.122  14.840  0.00  0.00    +0.000 HD
BRANCH  18  21
ATOM     21  C   UNL     1      50.540   7.015  17.244  0.00  0.00    +0.000 A 
ATOM     22  C   UNL     1      51.813   7.321  17.703  0.00  0.00    +0.000 A 
ATOM     23  S   UNL     1      52.655   5.951  18.289  0.00  0.00    +0.000 S 
ATOM     24  C   UNL     1      51.351   4.920  17.918  0.00  0.00    +0.000 A 
ATOM     25  N   UNL     1      51.414   3.582  18.165  0.00  0.00    +0.000 NA
ATOM     26  C   UNL     1      50.342   2.937  17.846  0.00  0.00    +0.000 A 
ATOM     27  N   UNL     1      49.217   3.497  17.304  0.00  0.00    +0.000 N 
ATOM     28  C   UNL     1      49.124   4.823  16.989  0.00  0.00    +0.000 A 
ATOM     29  O   UNL     1      48.117   5.273  16.460  0.00  0.00    +0.000 OA
ATOM     30  C   UNL     1      50.293   5.610  17.365  0.00  0.00    +0.000 A 
ATOM     31  H   UNL     1      48.412   2.937  17.065  0.00  0.00    +0.000 HD
ENDBRANCH  18  21
ENDBRANCH   1  19
TORSDOF 7
ENDMDL
MODEL 9
REMARK VINA RESULT:    -6.316      3.168      8.500
REMARK INTER + INTRA:          -9.990
REMARK INTER:                  -9.153
REMARK INTRA:                  -0.837
REMARK UNBOUND:                -1.089
REMARK  Name = 
REMARK  7 active torsions:
REMARK  status: ('A' for Active; 'I' for Inactive)
REMARK    1  A    between atoms: C_2  and  C_20
REMARK    2  A    between atoms: N_3  and  C_4
REMARK    3  A    between atoms: C_4  and  C_5
REMARK    4  A    between atoms: C_8  and  C_9
REMARK    5  A    between atoms: C_9  and  O_10
REMARK    6  A    between atoms: O_10  and  C_11
REMARK    7  A    between atoms: C_11  and  C_12
REMARK                            x       y       z     vdW  Elec       q    Type
REMARK                         _______ _______ _______ _____ _____    ______ ____
ROOT
ATOM      1  C   UNL     1      45.162   6.693  11.385  0.00  0.00    +0.000 C 
ENDROOT
BRANCH   1   2
ATOM      2  C   UNL     1      46.316   7.026  12.288  0.00  0.00    +0.000 A 
ATOM      3  C   UNL     1      46.467   8.307  12.796  0.00  0.00    +0.000 A 
ATOM      4  C   UNL     1      47.525   8.561  13.659  0.00  0.00    +0.000 A 
ATOM      5  C   UNL     1      48.393   7.525  13.972  0.00  0.00    +0.000 A 
ATOM      6  N   UNL     1      48.240   6.295  13.430  0.00  0.00    +0.000 NA
ATOM      7  N   UNL     1      47.199   6.044  12.577  0.00  0.00    +0.000 NA
BRANCH   5   8
ATOM      8  C   UNL     1      49.548   7.734  14.916  0.00  0.00    +0.000 C 
BRANCH   8   9
ATOM      9  O   UNL     1      50.026   6.472  15.390  0.00  0.00    +0.000 OA
BRANCH   9  10
ATOM     10  C   UNL     1      49.874   6.345  16.802  0.00  0.00    +0.000 C 
BRANCH  10  11
ATOM     11  C   UNL     1      49.053   5.118  17.114  0.00  0.00    +0.000 A 
ATOM     12  C   UNL     1      49.384   4.318  18.214  0.00  0.00    +0.000 A 
ATOM     13  C   UNL     1      48.601   3.212  18.556  0.00  0.00    +0.000 A 
ATOM     14  C   UNL     1      47.472   2.899  17.799  0.00  0.00    +0.000 A 
ATOM     15  C   UNL     1      47.137   3.679  16.694  0.00  0.00    +0.000 A 
ATOM     16  C   UNL     1      47.926   4.781  16.349  0.00  0.00    +0.000 A 
ENDBRANCH  10  11
ENDBRANCH   9  10
ENDBRANCH   8   9
ENDBRANCH   5   8
ENDBRANCH   1   2
BRANCH   1  19
ATOM     17  O   UNL     1      43.207   5.082  10.213  0.00  0.00    +0.000 OA
ATOM     18  C   UNL     1      44.384   4.729  10.139  0.00  0.00    +0.000 C 
ATOM     19  N   UNL     1      45.407   5.488  10.640  0.00  0.00    +0.000 N 
ATOM     20  H   UNL     1      46.369   5.180  10.565  0.00  0.00    +0.000 HD
BRANCH  18  21
ATOM     21  C   UNL     1      44.777   3.499   9.470  0.00  0.00    +0.000 A 
ATOM     22  C   UNL     1      44.182   2.282   9.766  0.00  0.00    +0.000 A 
ATOM     23  S   UNL     1      44.814   0.989   8.839  0.00  0.00    +0.000 S 
ATOM     24  C   UNL     1      45.911   2.021   8.044  0.00  0.00    +0.000 A 
ATOM     25  N   UNL     1      46.776   1.546   7.106  0.00  0.00    +0.000 NA
ATOM     26  C   UNL     1      47.533   2.452   6.581  0.00  0.00    +0.000 A 
ATOM     27  N   UNL     1      47.510   3.782   6.903  0.00  0.00    +0.000 N 
ATOM     28  C   UNL     1      46.698   4.298   7.874  0.00  0.00    +0.000 A 
ATOM     29  O   UNL     1      46.745   5.485   8.164  0.00  0.00    +0.000 OA
ATOM     30  C   UNL     1      45.792   3.326   8.473  0.00  0.00    +0.000 A 
ATOM     31  H   UNL     1      48.135   4.441   6.465  0.00  0.00    +0.000 HD
ENDBRANCH  18  21
ENDBRANCH   1  19
TORSDOF 7
ENDMDL
