MODEL 1
REMARK VINA RESULT:    -5.089      0.000      0.000
REMARK INTER + INTRA:          -7.027
REMARK INTER:                  -6.427
REMARK INTRA:                  -0.600
REMARK UNBOUND:                -0.600
REMARK  Name = 
REMARK  6 active torsions:
REMARK  status: ('A' for Active; 'I' for Inactive)
REMARK    1  A    between atoms: C_1  and  C_2
REMARK    2  A    between atoms: C_2  and  C_13
REMARK    3  A    between atoms: C_3  and  C_4
REMARK    4  A    between atoms: C_7  and  C_8
REMARK    5  A    between atoms: C_16  and  C_17
REMARK    6  A    between atoms: C_17  and  N_18
REMARK                            x       y       z     vdW  Elec       q    Type
REMARK                         _______ _______ _______ _____ _____    ______ ____
ROOT
ATOM      1  C   UNL     1      47.194   9.488  12.223  0.00  0.00    +0.000 C 
ATOM      2  C   UNL     1      48.300   8.576  11.768  0.00  0.00    +0.000 C 
ATOM      3  C   UNL     1      48.246   7.232  11.689  0.00  0.00    +0.000 C 
ENDROOT
BRANCH   3   4
ATOM      4  C   UNL     1      47.075   6.431  12.054  0.00  0.00    +0.000 A 
ATOM      5  C   UNL     1      46.969   5.836  13.312  0.00  0.00    +0.000 A 
ATOM      6  C   UNL     1      45.854   5.050  13.611  0.00  0.00    +0.000 A 
ATOM      7  C   UNL     1      44.881   4.889  12.634  0.00  0.00    +0.000 A 
ATOM      8  N   UNL     1      44.943   5.460  11.398  0.00  0.00    +0.000 NA
ATOM      9  C   UNL     1      46.040   6.215  11.145  0.00  0.00    +0.000 A 
BRANCH   7  10
ATOM     10  C   UNL     1      43.682   4.032  12.913  0.00  0.00    +0.000 C 
ATOM     11  N   UNL     1      43.839   2.699  12.643  0.00  0.00    +0.000 N 
ATOM     12  O   UNL     1      42.634   4.483  13.357  0.00  0.00    +0.000 OA
ATOM     13  H   UNL     1      44.727   2.364  12.287  0.00  0.00    +0.000 HD
ATOM     14  H   UNL     1      43.080   2.059  12.822  0.00  0.00    +0.000 HD
ENDBRANCH   7  10
ENDBRANCH   3   4
BRANCH   2  15
ATOM     15  C   UNL     1      49.557   9.257  11.406  0.00  0.00    +0.000 A 
ATOM     16  C   UNL     1      50.769   8.559  11.388  0.00  0.00    +0.000 A 
ATOM     17  C   UNL     1      51.957   9.209  11.029  0.00  0.00    +0.000 A 
ATOM     18  C   UNL     1      51.954  10.567  10.683  0.00  0.00    +0.000 A 
ATOM     19  C   UNL     1      50.735  11.262  10.707  0.00  0.00    +0.000 A 
ATOM     20  C   UNL     1      49.548  10.614  11.065  0.00  0.00    +0.000 A 
BRANCH  18  21
ATOM     21  C   UNL     1      53.234  11.279  10.324  0.00  0.00    +0.000 C 
BRANCH  21  22
ATOM     22  N   UNL     1      54.006  10.546   9.325  0.00  0.00    +0.000 NA
ATOM     23  H   UNL     1      53.416  10.387   8.509  0.00  0.00    +0.000 HD
ATOM     24  H   UNL     1      54.239   9.627   9.693  0.00  0.00    +0.000 HD
ENDBRANCH  21  22
ENDBRANCH  18  21
ENDBRANCH   2  15
TORSDOF 5
ENDMDL
MODEL 2
REMARK VINA RESULT:    -4.904      3.393      8.356
REMARK INTER + INTRA:          -6.794
REMARK INTER:                  -6.196
REMARK INTRA:                  -0.598
REMARK UNBOUND:                -0.600
REMARK  Name = 
REMARK  6 active torsions:
REMARK  status: ('A' for Active; 'I' for Inactive)
REMARK    1  A    between atoms: C_1  and  C_2
REMARK    2  A    between atoms: C_2  and  C_13
REMARK    3  A    between atoms: C_3  and  C_4
REMARK    4  A    between atoms: C_7  and  C_8
REMARK    5  A    between atoms: C_16  and  C_17
REMARK    6  A    between atoms: C_17  and  N_18
REMARK                            x       y       z     vdW  Elec       q    Type
REMARK                         _______ _______ _______ _____ _____    ______ ____
ROOT
ATOM      1  C   UNL     1      46.892   8.621  12.506  0.00  0.00    +0.000 C 
ATOM      2  C   UNL     1      47.450   7.237  12.324  0.00  0.00    +0.000 C 
ATOM      3  C   UNL     1      48.752   6.894  12.327  0.00  0.00    +0.000 C 
ENDROOT
BRANCH   3   4
ATOM      4  C   UNL     1      49.855   7.843  12.500  0.00  0.00    +0.000 A 
ATOM      5  C   UNL     1      50.481   8.435  11.403  0.00  0.00    +0.000 A 
ATOM      6  C   UNL     1      51.551   9.308  11.607  0.00  0.00    +0.000 A 
ATOM      7  C   UNL     1      51.957   9.558  12.911  0.00  0.00    +0.000 A 
ATOM      8  N   UNL     1      51.367   9.007  14.010  0.00  0.00    +0.000 NA
ATOM      9  C   UNL     1      50.333   8.164  13.771  0.00  0.00    +0.000 A 
BRANCH   7  10
ATOM     10  C   UNL     1      53.119  10.471  13.166  0.00  0.00    +0.000 C 
ATOM     11  N   UNL     1      54.207  10.275  12.358  0.00  0.00    +0.000 N 
ATOM     12  O   UNL     1      53.103  11.338  14.030  0.00  0.00    +0.000 OA
ATOM     13  H   UNL     1      54.175   9.553  11.646  0.00  0.00    +0.000 HD
ATOM     14  H   UNL     1      55.019  10.864  12.460  0.00  0.00    +0.000 HD
ENDBRANCH   7  10
ENDBRANCH   3   4
BRANCH   2  15
ATOM     15  C   UNL     1      46.441   6.185  12.099  0.00  0.00    +0.000 A 
ATOM     16  C   UNL     1      46.071   5.316  13.130  0.00  0.00    +0.000 A 
ATOM     17  C   UNL     1      45.102   4.327  12.914  0.00  0.00    +0.000 A 
ATOM     18  C   UNL     1      44.488   4.191  11.661  0.00  0.00    +0.000 A 
ATOM     19  C   UNL     1      44.866   5.063  10.630  0.00  0.00    +0.000 A 
ATOM     20  C   UNL     1      45.834   6.050  10.845  0.00  0.00    +0.000 A 
BRANCH  18  21
ATOM     21  C   UNL     1      43.465   3.110  11.414  0.00  0.00    +0.000 C 
BRANCH  21  22
ATOM     22  N   UNL     1      43.457   2.111  12.477  0.00  0.00    +0.000 NA
ATOM     23  H   UNL     1      42.489   1.880  12.702  0.00  0.00    +0.000 HD
ATOM     24  H   UNL     1      43.857   2.518  13.320  0.00  0.00    +0.000 HD
ENDBRANCH  21  22
ENDBRANCH  18  21
ENDBRANCH   2  15
TORSDOF 5
ENDMDL
MODEL 3
REMARK VINA RESULT:    -4.866      4.453      8.197
REMARK INTER + INTRA:          -6.746
REMARK INTER:                  -6.114
REMARK INTRA:                  -0.632
REMARK UNBOUND:                -0.600
REMARK  Name = 
REMARK  6 active torsions:
REMARK  status: ('A' for Active; 'I' for Inactive)
REMARK    1  A    between atoms: C_1  and  C_2
REMARK    2  A    between atoms: C_2  and  C_13
REMARK    3  A    between atoms: C_3  and  C_4
REMARK    4  A    between atoms: C_7  and  C_8
REMARK    5  A    between atoms: C_16  and  C_17
REMARK    6  A    between atoms: C_17  and  N_18
REMARK                            x       y       z     vdW  Elec       q    Type
REMARK                         _______ _______ _______ _____ _____    ______ ____
ROOT
ATOM      1  C   UNL     1      47.934   7.894  11.821  0.00  0.00    +0.000 C 
ATOM      2  C   UNL     1      47.459   6.855  12.798  0.00  0.00    +0.000 C 
ATOM      3  C   UNL     1      47.819   6.752  14.092  0.00  0.00    +0.000 C 
ENDROOT
BRANCH   3   4
ATOM      4  C   UNL     1      48.762   7.652  14.761  0.00  0.00    +0.000 A 
ATOM      5  C   UNL     1      48.333   8.842  15.351  0.00  0.00    +0.000 A 
ATOM      6  C   UNL     1      49.267   9.690  15.949  0.00  0.00    +0.000 A 
ATOM      7  C   UNL     1      50.603   9.313  15.935  0.00  0.00    +0.000 A 
ATOM      8  N   UNL     1      51.061   8.156  15.377  0.00  0.00    +0.000 NA
ATOM      9  C   UNL     1      50.124   7.360  14.806  0.00  0.00    +0.000 A 
BRANCH   7  10
ATOM     10  C   UNL     1      51.636  10.212  16.546  0.00  0.00    +0.000 C 
ATOM     11  N   UNL     1      51.264  10.823  17.714  0.00  0.00    +0.000 N 
ATOM     12  O   UNL     1      52.739  10.390  16.047  0.00  0.00    +0.000 OA
ATOM     13  H   UNL     1      50.344  10.640  18.101  0.00  0.00    +0.000 HD
ATOM     14  H   UNL     1      51.913  11.429  18.192  0.00  0.00    +0.000 HD
ENDBRANCH   7  10
ENDBRANCH   3   4
BRANCH   2  15
ATOM     15  C   UNL     1      46.528   5.857  12.240  0.00  0.00    +0.000 A 
ATOM     16  C   UNL     1      46.008   6.007  10.950  0.00  0.00    +0.000 A 
ATOM     17  C   UNL     1      45.135   5.047  10.420  0.00  0.00    +0.000 A 
ATOM     18  C   UNL     1      44.766   3.923  11.172  0.00  0.00    +0.000 A 
ATOM     19  C   UNL     1      45.289   3.781  12.466  0.00  0.00    +0.000 A 
ATOM     20  C   UNL     1      46.161   4.739  12.996  0.00  0.00    +0.000 A 
BRANCH  18  21
ATOM     21  C   UNL     1      43.805   2.902  10.618  0.00  0.00    +0.000 C 
BRANCH  21  22
ATOM     22  N   UNL     1      43.064   2.219  11.673  0.00  0.00    +0.000 NA
ATOM     23  H   UNL     1      43.533   2.387  12.563  0.00  0.00    +0.000 HD
ATOM     24  H   UNL     1      43.104   1.215  11.513  0.00  0.00    +0.000 HD
ENDBRANCH  21  22
ENDBRANCH  18  21
ENDBRANCH   2  15
TORSDOF 5
ENDMDL
MODEL 4
REMARK VINA RESULT:    -4.821      5.184      6.258
REMARK INTER + INTRA:          -6.689
REMARK INTER:                  -6.472
REMARK INTRA:                  -0.217
REMARK UNBOUND:                -0.600
REMARK  Name = 
REMARK  6 active torsions:
REMARK  status: ('A' for Active; 'I' for Inactive)
REMARK    1  A    between atoms: C_1  and  C_2
REMARK    2  A    between atoms: C_2  and  C_13
REMARK    3  A    between atoms: C_3  and  C_4
REMARK    4  A    between atoms: C_7  and  C_8
REMARK    5  A    between atoms: C_16  and  C_17
REMARK    6  A    between atoms: C_17  and  N_18
REMARK                            x       y       z     vdW  Elec       q    Type
REMARK                         _______ _______ _______ _____ _____    ______ ____
ROOT
ATOM      1  C   UNL     1      47.150   3.950  16.888  0.00  0.00    +0.000 C 
ATOM      2  C   UNL     1      47.948   5.058  16.259  0.00  0.00    +0.000 C 
ATOM      3  C   UNL     1      47.839   5.501  14.991  0.00  0.00    +0.000 C 
ENDROOT
BRANCH   3   4
ATOM      4  C   UNL     1      46.910   4.950  14.002  0.00  0.00    +0.000 A 
ATOM      5  C   UNL     1      46.060   5.777  13.266  0.00  0.00    +0.000 A 
ATOM      6  C   UNL     1      45.164   5.212  12.358  0.00  0.00    +0.000 A 
ATOM      7  C   UNL     1      45.152   3.831  12.217  0.00  0.00    +0.000 A 
ATOM      8  N   UNL     1      45.971   2.989  12.909  0.00  0.00    +0.000 NA
ATOM      9  C   UNL     1      46.826   3.575  13.782  0.00  0.00    +0.000 A 
BRANCH   7  10
ATOM     10  C   UNL     1      44.185   3.189  11.267  0.00  0.00    +0.000 C 
ATOM     11  N   UNL     1      44.751   2.441  10.270  0.00  0.00    +0.000 N 
ATOM     12  O   UNL     1      42.971   3.314  11.372  0.00  0.00    +0.000 OA
ATOM     13  H   UNL     1      45.761   2.353  10.225  0.00  0.00    +0.000 HD
ATOM     14  H   UNL     1      44.162   1.966   9.604  0.00  0.00    +0.000 HD
ENDBRANCH   7  10
ENDBRANCH   3   4
BRANCH   2  15
ATOM     15  C   UNL     1      48.955   5.677  17.141  0.00  0.00    +0.000 A 
ATOM     16  C   UNL     1      48.778   5.691  18.528  0.00  0.00    +0.000 A 
ATOM     17  C   UNL     1      49.745   6.269  19.362  0.00  0.00    +0.000 A 
ATOM     18  C   UNL     1      50.904   6.843  18.822  0.00  0.00    +0.000 A 
ATOM     19  C   UNL     1      51.073   6.828  17.430  0.00  0.00    +0.000 A 
ATOM     20  C   UNL     1      50.108   6.252  16.596  0.00  0.00    +0.000 A 
BRANCH  18  21
ATOM     21  C   UNL     1      51.935   7.492  19.712  0.00  0.00    +0.000 C 
BRANCH  21  22
ATOM     22  N   UNL     1      51.324   8.355  20.717  0.00  0.00    +0.000 NA
ATOM     23  H   UNL     1      51.335   9.316  20.374  0.00  0.00    +0.000 HD
ATOM     24  H   UNL     1      51.897   8.345  21.558  0.00  0.00    +0.000 HD
ENDBRANCH  21  22
ENDBRANCH  18  21
ENDBRANCH   2  15
TORSDOF 5
ENDMDL
MODEL 5
REMARK VINA RESULT:    -4.799      3.440      4.131
REMARK INTER + INTRA:          -6.661
REMARK INTER:                  -6.280
REMARK INTRA:                  -0.381
REMARK UNBOUND:                -0.600
REMARK  Name = 
REMARK  6 active torsions:
REMARK  status: ('A' for Active; 'I' for Inactive)
REMARK    1  A    between atoms: C_1  and  C_2
REMARK    2  A    between atoms: C_2  and  C_13
REMARK    3  A    between atoms: C_3  and  C_4
REMARK    4  A    between atoms: C_7  and  C_8
REMARK    5  A    between atoms: C_16  and  C_17
REMARK    6  A    between atoms: C_17  and  N_18
REMARK                            x       y       z     vdW  Elec       q    Type
REMARK                         _______ _______ _______ _____ _____    ______ ____
ROOT
ATOM      1  C   UNL     1      49.157   7.055  12.162  0.00  0.00    +0.000 C 
ATOM      2  C   UNL     1      48.620   7.069  13.566  0.00  0.00    +0.000 C 
ATOM      3  C   UNL     1      47.547   6.391  14.017  0.00  0.00    +0.000 C 
ENDROOT
BRANCH   3   4
ATOM      4  C   UNL     1      46.710   5.523  13.186  0.00  0.00    +0.000 A 
ATOM      5  C   UNL     1      46.054   6.014  12.057  0.00  0.00    +0.000 A 
ATOM      6  C   UNL     1      45.237   5.165  11.310  0.00  0.00    +0.000 A 
ATOM      7  C   UNL     1      45.106   3.845  11.722  0.00  0.00    +0.000 A 
ATOM      8  N   UNL     1      45.737   3.324  12.813  0.00  0.00    +0.000 NA
ATOM      9  C   UNL     1      46.520   4.181  13.513  0.00  0.00    +0.000 A 
BRANCH   7  10
ATOM     10  C   UNL     1      44.218   2.911  10.957  0.00  0.00    +0.000 C 
ATOM     11  N   UNL     1      44.799   2.300   9.878  0.00  0.00    +0.000 N 
ATOM     12  O   UNL     1      43.053   2.699  11.270  0.00  0.00    +0.000 OA
ATOM     13  H   UNL     1      45.771   2.494   9.660  0.00  0.00    +0.000 HD
ATOM     14  H   UNL     1      44.267   1.645   9.326  0.00  0.00    +0.000 HD
ENDBRANCH   7  10
ENDBRANCH   3   4
BRANCH   2  15
ATOM     15  C   UNL     1      49.353   7.941  14.503  0.00  0.00    +0.000 A 
ATOM     16  C   UNL     1      48.718   9.027  15.115  0.00  0.00    +0.000 A 
ATOM     17  C   UNL     1      49.417   9.843  16.015  0.00  0.00    +0.000 A 
ATOM     18  C   UNL     1      50.762   9.588  16.316  0.00  0.00    +0.000 A 
ATOM     19  C   UNL     1      51.393   8.500  15.695  0.00  0.00    +0.000 A 
ATOM     20  C   UNL     1      50.697   7.684  14.797  0.00  0.00    +0.000 A 
BRANCH  18  21
ATOM     21  C   UNL     1      51.527  10.480  17.262  0.00  0.00    +0.000 C 
BRANCH  21  22
ATOM     22  N   UNL     1      52.956  10.188  17.253  0.00  0.00    +0.000 NA
ATOM     23  H   UNL     1      53.231   9.869  18.181  0.00  0.00    +0.000 HD
ATOM     24  H   UNL     1      53.471  11.050  17.082  0.00  0.00    +0.000 HD
ENDBRANCH  21  22
ENDBRANCH  18  21
ENDBRANCH   2  15
TORSDOF 5
ENDMDL
MODEL 6
REMARK VINA RESULT:    -4.606      4.680      8.061
REMARK INTER + INTRA:          -6.417
REMARK INTER:                  -5.802
REMARK INTRA:                  -0.615
REMARK UNBOUND:                -0.600
REMARK  Name = 
REMARK  6 active torsions:
REMARK  status: ('A' for Active; 'I' for Inactive)
REMARK    1  A    between atoms: C_1  and  C_2
REMARK    2  A    between atoms: C_2  and  C_13
REMARK    3  A    between atoms: C_3  and  C_4
REMARK    4  A    between atoms: C_7  and  C_8
REMARK    5  A    between atoms: C_16  and  C_17
REMARK    6  A    between atoms: C_17  and  N_18
REMARK                            x       y       z     vdW  Elec       q    Type
REMARK                         _______ _______ _______ _____ _____    ______ ____
ROOT
ATOM      1  C   UNL     1      47.509   4.980  15.333  0.00  0.00    +0.000 C 
ATOM      2  C   UNL     1      47.426   5.795  14.072  0.00  0.00    +0.000 C 
ATOM      3  C   UNL     1      48.017   6.985  13.849  0.00  0.00    +0.000 C 
ENDROOT
BRANCH   3   4
ATOM      4  C   UNL     1      48.845   7.692  14.829  0.00  0.00    +0.000 A 
ATOM      5  C   UNL     1      48.315   8.707  15.627  0.00  0.00    +0.000 A 
ATOM      6  C   UNL     1      49.142   9.382  16.525  0.00  0.00    +0.000 A 
ATOM      7  C   UNL     1      50.479   9.012  16.594  0.00  0.00    +0.000 A 
ATOM      8  N   UNL     1      51.033   8.020  15.840  0.00  0.00    +0.000 NA
ATOM      9  C   UNL     1      50.198   7.390  14.979  0.00  0.00    +0.000 A 
BRANCH   7  10
ATOM     10  C   UNL     1      51.402   9.732  17.531  0.00  0.00    +0.000 C 
ATOM     11  N   UNL     1      51.146  11.067  17.696  0.00  0.00    +0.000 N 
ATOM     12  O   UNL     1      52.320   9.172  18.118  0.00  0.00    +0.000 OA
ATOM     13  H   UNL     1      50.369  11.490  17.200  0.00  0.00    +0.000 HD
ATOM     14  H   UNL     1      51.716  11.612  18.324  0.00  0.00    +0.000 HD
ENDBRANCH   7  10
ENDBRANCH   3   4
BRANCH   2  15
ATOM     15  C   UNL     1      46.586   5.211  13.010  0.00  0.00    +0.000 A 
ATOM     16  C   UNL     1      46.061   3.922  13.141  0.00  0.00    +0.000 A 
ATOM     17  C   UNL     1      45.251   3.378  12.134  0.00  0.00    +0.000 A 
ATOM     18  C   UNL     1      44.956   4.115  10.978  0.00  0.00    +0.000 A 
ATOM     19  C   UNL     1      45.489   5.406  10.852  0.00  0.00    +0.000 A 
ATOM     20  C   UNL     1      46.297   5.950  11.857  0.00  0.00    +0.000 A 
BRANCH  18  21
ATOM     21  C   UNL     1      44.109   3.524   9.878  0.00  0.00    +0.000 C 
BRANCH  21  22
ATOM     22  N   UNL     1      43.869   4.478   8.801  0.00  0.00    +0.000 NA
ATOM     23  H   UNL     1      44.295   4.121   7.946  0.00  0.00    +0.000 HD
ATOM     24  H   UNL     1      44.347   5.351   9.016  0.00  0.00    +0.000 HD
ENDBRANCH  21  22
ENDBRANCH  18  21
ENDBRANCH   2  15
TORSDOF 5
ENDMDL
MODEL 7
REMARK VINA RESULT:    -4.519      5.412      8.044
REMARK INTER + INTRA:          -6.307
REMARK INTER:                  -5.679
REMARK INTRA:                  -0.628
REMARK UNBOUND:                -0.600
REMARK  Name = 
REMARK  6 active torsions:
REMARK  status: ('A' for Active; 'I' for Inactive)
REMARK    1  A    between atoms: C_1  and  C_2
REMARK    2  A    between atoms: C_2  and  C_13
REMARK    3  A    between atoms: C_3  and  C_4
REMARK    4  A    between atoms: C_7  and  C_8
REMARK    5  A    between atoms: C_16  and  C_17
REMARK    6  A    between atoms: C_17  and  N_18
REMARK                            x       y       z     vdW  Elec       q    Type
REMARK                         _______ _______ _______ _____ _____    ______ ____
ROOT
ATOM      1  C   UNL     1      47.321   4.127  15.976  0.00  0.00    +0.000 C 
ATOM      2  C   UNL     1      47.561   5.231  14.983  0.00  0.00    +0.000 C 
ATOM      3  C   UNL     1      48.347   6.310  15.162  0.00  0.00    +0.000 C 
ENDROOT
BRANCH   3   4
ATOM      4  C   UNL     1      49.100   6.588  16.388  0.00  0.00    +0.000 A 
ATOM      5  C   UNL     1      50.416   6.152  16.545  0.00  0.00    +0.000 A 
ATOM      6  C   UNL     1      51.089   6.406  17.740  0.00  0.00    +0.000 A 
ATOM      7  C   UNL     1      50.416   7.093  18.742  0.00  0.00    +0.000 A 
ATOM      8  N   UNL     1      49.134   7.544  18.625  0.00  0.00    +0.000 NA
ATOM      9  C   UNL     1      48.514   7.277  17.450  0.00  0.00    +0.000 A 
BRANCH   7  10
ATOM     10  C   UNL     1      51.100   7.362  20.049  0.00  0.00    +0.000 C 
ATOM     11  N   UNL     1      50.816   8.574  20.621  0.00  0.00    +0.000 N 
ATOM     12  O   UNL     1      51.858   6.559  20.577  0.00  0.00    +0.000 OA
ATOM     13  H   UNL     1      50.174   9.206  20.156  0.00  0.00    +0.000 HD
ATOM     14  H   UNL     1      51.228   8.816  21.510  0.00  0.00    +0.000 HD
ENDBRANCH   7  10
ENDBRANCH   3   4
BRANCH   2  15
ATOM     15  C   UNL     1      46.827   5.093  13.711  0.00  0.00    +0.000 A 
ATOM     16  C   UNL     1      46.117   3.924  13.419  0.00  0.00    +0.000 A 
ATOM     17  C   UNL     1      45.409   3.804  12.215  0.00  0.00    +0.000 A 
ATOM     18  C   UNL     1      45.403   4.851  11.283  0.00  0.00    +0.000 A 
ATOM     19  C   UNL     1      46.120   6.019  11.581  0.00  0.00    +0.000 A 
ATOM     20  C   UNL     1      46.827   6.139  12.783  0.00  0.00    +0.000 A 
BRANCH  18  21
ATOM     21  C   UNL     1      44.667   4.717   9.973  0.00  0.00    +0.000 C 
BRANCH  21  22
ATOM     22  N   UNL     1      45.493   5.120   8.839  0.00  0.00    +0.000 NA
ATOM     23  H   UNL     1      46.413   4.691   8.936  0.00  0.00    +0.000 HD
ATOM     24  H   UNL     1      45.640   6.126   8.874  0.00  0.00    +0.000 HD
ENDBRANCH  21  22
ENDBRANCH  18  21
ENDBRANCH   2  15
TORSDOF 5
ENDMDL
MODEL 8
REMARK VINA RESULT:    -4.396      3.917      4.676
REMARK INTER + INTRA:          -6.152
REMARK INTER:                  -5.635
REMARK INTRA:                  -0.518
REMARK UNBOUND:                -0.600
REMARK  Name = 
REMARK  6 active torsions:
REMARK  status: ('A' for Active; 'I' for Inactive)
REMARK    1  A    between atoms: C_1  and  C_2
REMARK    2  A    between atoms: C_2  and  C_13
REMARK    3  A    between atoms: C_3  and  C_4
REMARK    4  A    between atoms: C_7  and  C_8
REMARK    5  A    between atoms: C_16  and  C_17
REMARK    6  A    between atoms: C_17  and  N_18
REMARK                            x       y       z     vdW  Elec       q    Type
REMARK                         _______ _______ _______ _____ _____    ______ ____
ROOT
ATOM      1  C   UNL     1      47.673   4.942  16.456  0.00  0.00    +0.000 C 
ATOM      2  C   UNL     1      48.385   5.789  15.439  0.00  0.00    +0.000 C 
ATOM      3  C   UNL     1      47.987   6.023  14.173  0.00  0.00    +0.000 C 
ENDROOT
BRANCH   3   4
ATOM      4  C   UNL     1      46.773   5.463  13.573  0.00  0.00    +0.000 A 
ATOM      5  C   UNL     1      46.656   4.096  13.317  0.00  0.00    +0.000 A 
ATOM      6  C   UNL     1      45.498   3.605  12.713  0.00  0.00    +0.000 A 
ATOM      7  C   UNL     1      44.492   4.506  12.386  0.00  0.00    +0.000 A 
ATOM      8  N   UNL     1      44.564   5.846  12.628  0.00  0.00    +0.000 NA
ATOM      9  C   UNL     1      45.705   6.285  13.215  0.00  0.00    +0.000 A 
BRANCH   7  10
ATOM     10  C   UNL     1      43.245   4.016  11.714  0.00  0.00    +0.000 C 
ATOM     11  N   UNL     1      42.267   4.958  11.534  0.00  0.00    +0.000 N 
ATOM     12  O   UNL     1      43.103   2.858  11.343  0.00  0.00    +0.000 OA
ATOM     13  H   UNL     1      42.428   5.909  11.845  0.00  0.00    +0.000 HD
ATOM     14  H   UNL     1      41.406   4.704  11.073  0.00  0.00    +0.000 HD
ENDBRANCH   7  10
ENDBRANCH   3   4
BRANCH   2  15
ATOM     15  C   UNL     1      49.651   6.385  15.904  0.00  0.00    +0.000 A 
ATOM     16  C   UNL     1      50.303   5.886  17.037  0.00  0.00    +0.000 A 
ATOM     17  C   UNL     1      51.513   6.447  17.466  0.00  0.00    +0.000 A 
ATOM     18  C   UNL     1      52.090   7.519  16.771  0.00  0.00    +0.000 A 
ATOM     19  C   UNL     1      51.429   8.018  15.638  0.00  0.00    +0.000 A 
ATOM     20  C   UNL     1      50.221   7.457  15.209  0.00  0.00    +0.000 A 
BRANCH  18  21
ATOM     21  C   UNL     1      53.377   8.147  17.244  0.00  0.00    +0.000 C 
BRANCH  21  22
ATOM     22  N   UNL     1      53.756   9.298  16.432  0.00  0.00    +0.000 NA
ATOM     23  H   UNL     1      54.422   8.993  15.722  0.00  0.00    +0.000 HD
ATOM     24  H   UNL     1      54.248   9.970  17.016  0.00  0.00    +0.000 HD
ENDBRANCH  21  22
ENDBRANCH  18  21
ENDBRANCH   2  15
TORSDOF 5
ENDMDL
