MODEL 1
REMARK VINA RESULT:    -7.341      0.000      0.000
REMARK INTER + INTRA:         -11.874
REMARK INTER:                 -10.559
REMARK INTRA:                  -1.314
REMARK UNBOUND:                -1.314
REMARK  Name = 
REMARK  8 active torsions:
REMARK  status: ('A' for Active; 'I' for Inactive)
REMARK    1  A    between atoms: N_1  and  C_2
REMARK    2  A    between atoms: C_2  and  C_3
REMARK    3  A    between atoms: C_3  and  N_4
REMARK    4  A    between atoms: C_3  and  C_17
REMARK    5  A    between atoms: C_5  and  C_7
REMARK    6  A    between atoms: C_20  and  C_21
REMARK    7  A    between atoms: C_21  and  N_22
REMARK    8  A    between atoms: C_23  and  C_25
REMARK                            x       y       z     vdW  Elec       q    Type
REMARK                         _______ _______ _______ _____ _____    ______ ____
ROOT
ATOM      1  C   UNL     1      46.567   7.797  12.760  0.00  0.00    +0.000 C 
ENDROOT
BRANCH   1   2
ATOM      2  C   UNL     1      45.901   6.678  11.948  0.00  0.00    +0.000 A 
ATOM      3  C   UNL     1      44.963   5.839  12.566  0.00  0.00    +0.000 A 
ATOM      4  C   UNL     1      44.394   4.759  11.879  0.00  0.00    +0.000 A 
ATOM      5  C   UNL     1      44.745   4.485  10.551  0.00  0.00    +0.000 A 
ATOM      6  C   UNL     1      45.638   5.352   9.908  0.00  0.00    +0.000 A 
ATOM      7  C   UNL     1      46.212   6.431  10.598  0.00  0.00    +0.000 A 
BRANCH   5   8
ATOM      8  C   UNL     1      44.198   3.268   9.849  0.00  0.00    +0.000 C 
BRANCH   8   9
ATOM      9  N   UNL     1      44.701   3.123   8.502  0.00  0.00    +0.000 N 
ATOM     10  C   UNL     1      45.490   2.037   8.171  0.00  0.00    +0.000 C 
ATOM     11  O   UNL     1      45.802   1.173   8.990  0.00  0.00    +0.000 OA
ATOM     12  H   UNL     1      44.256   3.652   7.762  0.00  0.00    +0.000 HD
BRANCH  10  13
ATOM     13  C   UNL     1      45.935   1.986   6.691  0.00  0.00    +0.000 C 
ATOM     14  C   UNL     1      46.422   3.330   6.179  0.00  0.00    +0.000 C 
ATOM     15  C   UNL     1      47.849   3.406   6.695  0.00  0.00    +0.000 C 
ATOM     16  C   UNL     1      48.302   1.957   6.805  0.00  0.00    +0.000 C 
ATOM     17  N   UNL     1      47.128   1.127   6.514  0.00  0.00    +0.000 NA
ATOM     18  H   UNL     1      47.084   0.359   7.190  0.00  0.00    +0.000 HD
ENDBRANCH  10  13
ENDBRANCH   8   9
ENDBRANCH   5   8
ENDBRANCH   1   2
BRANCH   1  19
ATOM     19  N   UNL     1      47.087   7.254  14.003  0.00  0.00    +0.000 N 
ATOM     20  C   UNL     1      48.308   6.649  14.127  0.00  0.00    +0.000 C 
ATOM     21  O   UNL     1      49.034   6.396  13.169  0.00  0.00    +0.000 OA
ATOM     22  H   UNL     1      46.576   7.509  14.839  0.00  0.00    +0.000 HD
BRANCH  20  23
ATOM     23  C   UNL     1      48.682   6.271  15.495  0.00  0.00    +0.000 A 
ATOM     24  C   UNL     1      49.590   7.027  16.222  0.00  0.00    +0.000 A 
ATOM     25  S   UNL     1      49.967   6.350  17.745  0.00  0.00    +0.000 S 
ATOM     26  C   UNL     1      48.893   5.051  17.498  0.00  0.00    +0.000 A 
ATOM     27  N   UNL     1      48.754   4.061  18.421  0.00  0.00    +0.000 NA
ATOM     28  C   UNL     1      47.901   3.145  18.096  0.00  0.00    +0.000 A 
ATOM     29  N   UNL     1      47.158   3.143  16.946  0.00  0.00    +0.000 N 
ATOM     30  C   UNL     1      47.240   4.136  16.003  0.00  0.00    +0.000 A 
ATOM     31  O   UNL     1      46.531   4.118  15.007  0.00  0.00    +0.000 OA
ATOM     32  C   UNL     1      48.235   5.152  16.289  0.00  0.00    +0.000 A 
ATOM     33  H   UNL     1      46.492   2.407  16.758  0.00  0.00    +0.000 HD
ENDBRANCH  20  23
ENDBRANCH   1  19
BRANCH   1  34
ATOM     34  C   UNL     1      45.611   9.007  12.997  0.00  0.00    +0.000 C 
BRANCH  34  35
ATOM     35  N   UNL     1      44.524   9.118  12.014  0.00  0.00    +0.000 NA
ATOM     36  H   UNL     1      44.612   8.361  11.338  0.00  0.00    +0.000 HD
ATOM     37  H   UNL     1      44.625   9.987  11.490  0.00  0.00    +0.000 HD
ENDBRANCH  34  35
ENDBRANCH   1  34
TORSDOF 8
ENDMDL
MODEL 2
REMARK VINA RESULT:    -6.862      2.545      4.262
REMARK INTER + INTRA:         -11.185
REMARK INTER:                  -9.762
REMARK INTRA:                  -1.423
REMARK UNBOUND:                -1.314
REMARK  Name = 
REMARK  8 active torsions:
REMARK  status: ('A' for Active; 'I' for Inactive)
REMARK    1  A    between atoms: N_1  and  C_2
REMARK    2  A    between atoms: C_2  and  C_3
REMARK    3  A    between atoms: C_3  and  N_4
REMARK    4  A    between atoms: C_3  and  C_17
REMARK    5  A    between atoms: C_5  and  C_7
REMARK    6  A    between atoms: C_20  and  C_21
REMARK    7  A    between atoms: C_21  and  N_22
REMARK    8  A    between atoms: C_23  and  C_25
REMARK                            x       y       z     vdW  Elec       q    Type
REMARK                         _______ _______ _______ _____ _____    ______ ____
ROOT
ATOM      1  C   UNL     1      47.266   4.340  15.873  0.00  0.00    +0.000 C 
ENDROOT
BRANCH   1   2
ATOM      2  C   UNL     1      46.870   4.765  14.453  0.00  0.00    +0.000 A 
ATOM      3  C   UNL     1      47.366   5.966  13.925  0.00  0.00    +0.000 A 
ATOM      4  C   UNL     1      46.963   6.424  12.665  0.00  0.00    +0.000 A 
ATOM      5  C   UNL     1      46.053   5.694  11.890  0.00  0.00    +0.000 A 
ATOM      6  C   UNL     1      45.596   4.466  12.384  0.00  0.00    +0.000 A 
ATOM      7  C   UNL     1      45.996   4.009  13.650  0.00  0.00    +0.000 A 
BRANCH   5   8
ATOM      8  C   UNL     1      45.555   6.240  10.575  0.00  0.00    +0.000 C 
BRANCH   8   9
ATOM      9  N   UNL     1      44.960   5.225   9.736  0.00  0.00    +0.000 N 
ATOM     10  C   UNL     1      45.612   4.804   8.591  0.00  0.00    +0.000 C 
ATOM     11  O   UNL     1      46.693   5.272   8.237  0.00  0.00    +0.000 OA
ATOM     12  H   UNL     1      44.228   4.645  10.126  0.00  0.00    +0.000 HD
BRANCH  10  13
ATOM     13  C   UNL     1      44.882   3.693   7.801  0.00  0.00    +0.000 C 
ATOM     14  C   UNL     1      45.820   2.895   6.912  0.00  0.00    +0.000 C 
ATOM     15  C   UNL     1      46.461   1.909   7.875  0.00  0.00    +0.000 C 
ATOM     16  C   UNL     1      45.427   1.706   8.973  0.00  0.00    +0.000 C 
ATOM     17  N   UNL     1      44.339   2.654   8.706  0.00  0.00    +0.000 NA
ATOM     18  H   UNL     1      44.057   3.097   9.584  0.00  0.00    +0.000 HD
ENDBRANCH  10  13
ENDBRANCH   8   9
ENDBRANCH   5   8
ENDBRANCH   1   2
BRANCH   1  19
ATOM     19  N   UNL     1      48.129   5.350  16.461  0.00  0.00    +0.000 N 
ATOM     20  C   UNL     1      48.119   5.693  17.786  0.00  0.00    +0.000 C 
ATOM     21  O   UNL     1      47.291   5.266  18.586  0.00  0.00    +0.000 OA
ATOM     22  H   UNL     1      48.888   5.672  15.873  0.00  0.00    +0.000 HD
BRANCH  20  23
ATOM     23  C   UNL     1      49.149   6.658  18.188  0.00  0.00    +0.000 A 
ATOM     24  C   UNL     1      48.813   7.816  18.875  0.00  0.00    +0.000 A 
ATOM     25  S   UNL     1      50.146   8.851  19.147  0.00  0.00    +0.000 S 
ATOM     26  C   UNL     1      51.219   7.761  18.396  0.00  0.00    +0.000 A 
ATOM     27  N   UNL     1      52.541   8.053  18.255  0.00  0.00    +0.000 NA
ATOM     28  C   UNL     1      53.231   7.128  17.668  0.00  0.00    +0.000 A 
ATOM     29  N   UNL     1      52.724   5.933  17.235  0.00  0.00    +0.000 N 
ATOM     30  C   UNL     1      51.406   5.582  17.387  0.00  0.00    +0.000 A 
ATOM     31  O   UNL     1      51.001   4.488  17.021  0.00  0.00    +0.000 OA
ATOM     32  C   UNL     1      50.576   6.614  17.977  0.00  0.00    +0.000 A 
ATOM     33  H   UNL     1      53.320   5.242  16.800  0.00  0.00    +0.000 HD
ENDBRANCH  20  23
ENDBRANCH   1  19
BRANCH   1  34
ATOM     34  C   UNL     1      47.909   2.919  15.909  0.00  0.00    +0.000 C 
BRANCH  34  35
ATOM     35  N   UNL     1      48.670   2.633  17.132  0.00  0.00    +0.000 NA
ATOM     36  H   UNL     1      48.060   2.760  17.938  0.00  0.00    +0.000 HD
ATOM     37  H   UNL     1      49.425   3.311  17.232  0.00  0.00    +0.000 HD
ENDBRANCH  34  35
ENDBRANCH   1  34
TORSDOF 8
ENDMDL
MODEL 3
REMARK VINA RESULT:    -6.755      3.359      7.907
REMARK INTER + INTRA:         -11.031
REMARK INTER:                  -9.883
REMARK INTRA:                  -1.149
REMARK UNBOUND:                -1.314
REMARK  Name = 
REMARK  8 active torsions:
REMARK  status: ('A' for Active; 'I' for Inactive)
REMARK    1  A    between atoms: N_1  and  C_2
REMARK    2  A    between atoms: C_2  and  C_3
REMARK    3  A    between atoms: C_3  and  N_4
REMARK    4  A    between atoms: C_3  and  C_17
REMARK    5  A    between atoms: C_5  and  C_7
REMARK    6  A    between atoms: C_20  and  C_21
REMARK    7  A    between atoms: C_21  and  N_22
REMARK    8  A    between atoms: C_23  and  C_25
REMARK                            x       y       z     vdW  Elec       q    Type
REMARK                         _______ _______ _______ _____ _____    ______ ____
ROOT
ATOM      1  C   UNL     1      48.204   8.148  12.208  0.00  0.00    +0.000 C 
ENDROOT
BRANCH   1   2
ATOM      2  C   UNL     1      48.470   7.954  13.707  0.00  0.00    +0.000 A 
ATOM      3  C   UNL     1      48.531   6.658  14.238  0.00  0.00    +0.000 A 
ATOM      4  C   UNL     1      48.692   6.445  15.614  0.00  0.00    +0.000 A 
ATOM      5  C   UNL     1      48.800   7.523  16.501  0.00  0.00    +0.000 A 
ATOM      6  C   UNL     1      48.798   8.821  15.973  0.00  0.00    +0.000 A 
ATOM      7  C   UNL     1      48.631   9.034  14.596  0.00  0.00    +0.000 A 
BRANCH   5   8
ATOM      8  C   UNL     1      48.882   7.287  17.988  0.00  0.00    +0.000 C 
BRANCH   8   9
ATOM      9  N   UNL     1      49.097   5.898  18.325  0.00  0.00    +0.000 N 
ATOM     10  C   UNL     1      48.016   5.066  18.550  0.00  0.00    +0.000 C 
ATOM     11  O   UNL     1      46.853   5.462  18.488  0.00  0.00    +0.000 OA
ATOM     12  H   UNL     1      50.001   5.488  18.125  0.00  0.00    +0.000 HD
BRANCH  10  13
ATOM     13  C   UNL     1      48.383   3.598  18.870  0.00  0.00    +0.000 C 
ATOM     14  C   UNL     1      47.669   2.606  17.970  0.00  0.00    +0.000 C 
ATOM     15  C   UNL     1      48.499   2.626  16.697  0.00  0.00    +0.000 C 
ATOM     16  C   UNL     1      49.902   3.000  17.152  0.00  0.00    +0.000 C 
ATOM     17  N   UNL     1      49.809   3.322  18.581  0.00  0.00    +0.000 NA
ATOM     18  H   UNL     1      50.353   4.168  18.770  0.00  0.00    +0.000 HD
ENDBRANCH  10  13
ENDBRANCH   8   9
ENDBRANCH   5   8
ENDBRANCH   1   2
BRANCH   1  19
ATOM     19  N   UNL     1      47.478   7.000  11.690  0.00  0.00    +0.000 N 
ATOM     20  C   UNL     1      46.129   6.984  11.462  0.00  0.00    +0.000 C 
ATOM     21  O   UNL     1      45.380   7.900  11.789  0.00  0.00    +0.000 OA
ATOM     22  H   UNL     1      48.051   6.252  11.321  0.00  0.00    +0.000 HD
BRANCH  20  23
ATOM     23  C   UNL     1      45.618   5.761  10.833  0.00  0.00    +0.000 A 
ATOM     24  C   UNL     1      45.817   5.515   9.481  0.00  0.00    +0.000 A 
ATOM     25  S   UNL     1      45.045   4.092   8.932  0.00  0.00    +0.000 S 
ATOM     26  C   UNL     1      44.462   3.737  10.493  0.00  0.00    +0.000 A 
ATOM     27  N   UNL     1      43.679   2.649  10.726  0.00  0.00    +0.000 NA
ATOM     28  C   UNL     1      43.315   2.508  11.960  0.00  0.00    +0.000 A 
ATOM     29  N   UNL     1      43.684   3.340  12.982  0.00  0.00    +0.000 N 
ATOM     30  C   UNL     1      44.499   4.429  12.801  0.00  0.00    +0.000 A 
ATOM     31  O   UNL     1      44.838   5.126  13.746  0.00  0.00    +0.000 OA
ATOM     32  C   UNL     1      44.877   4.670  11.422  0.00  0.00    +0.000 A 
ATOM     33  H   UNL     1      43.382   3.166  13.930  0.00  0.00    +0.000 HD
ENDBRANCH  20  23
ENDBRANCH   1  19
BRANCH   1  34
ATOM     34  C   UNL     1      49.512   8.431  11.407  0.00  0.00    +0.000 C 
BRANCH  34  35
ATOM     35  N   UNL     1      50.541   7.391  11.544  0.00  0.00    +0.000 NA
ATOM     36  H   UNL     1      50.538   7.049  12.504  0.00  0.00    +0.000 HD
ATOM     37  H   UNL     1      51.462   7.798  11.385  0.00  0.00    +0.000 HD
ENDBRANCH  34  35
ENDBRANCH   1  34
TORSDOF 8
ENDMDL
MODEL 4
REMARK VINA RESULT:    -6.755      3.791      6.312
REMARK INTER + INTRA:         -11.030
REMARK INTER:                  -9.576
REMARK INTRA:                  -1.454
REMARK UNBOUND:                -1.314
REMARK  Name = 
REMARK  8 active torsions:
REMARK  status: ('A' for Active; 'I' for Inactive)
REMARK    1  A    between atoms: N_1  and  C_2
REMARK    2  A    between atoms: C_2  and  C_3
REMARK    3  A    between atoms: C_3  and  N_4
REMARK    4  A    between atoms: C_3  and  C_17
REMARK    5  A    between atoms: C_5  and  C_7
REMARK    6  A    between atoms: C_20  and  C_21
REMARK    7  A    between atoms: C_21  and  N_22
REMARK    8  A    between atoms: C_23  and  C_25
REMARK                            x       y       z     vdW  Elec       q    Type
REMARK                         _______ _______ _______ _____ _____    ______ ____
ROOT
ATOM      1  C   UNL     1      49.067   4.654  17.796  0.00  0.00    +0.000 C 
ENDROOT
BRANCH   1   2
ATOM      2  C   UNL     1      48.601   5.265  16.468  0.00  0.00    +0.000 A 
ATOM      3  C   UNL     1      47.594   4.629  15.729  0.00  0.00    +0.000 A 
ATOM      4  C   UNL     1      47.200   5.114  14.475  0.00  0.00    +0.000 A 
ATOM      5  C   UNL     1      47.800   6.253  13.923  0.00  0.00    +0.000 A 
ATOM      6  C   UNL     1      48.767   6.927  14.679  0.00  0.00    +0.000 A 
ATOM      7  C   UNL     1      49.165   6.438  15.933  0.00  0.00    +0.000 A 
BRANCH   5   8
ATOM      8  C   UNL     1      47.434   6.715  12.534  0.00  0.00    +0.000 C 
BRANCH   8   9
ATOM      9  N   UNL     1      46.524   5.815  11.864  0.00  0.00    +0.000 N 
ATOM     10  C   UNL     1      45.347   6.298  11.323  0.00  0.00    +0.000 C 
ATOM     11  O   UNL     1      45.023   7.482  11.396  0.00  0.00    +0.000 OA
ATOM     12  H   UNL     1      46.874   4.916  11.559  0.00  0.00    +0.000 HD
BRANCH  10  13
ATOM     13  C   UNL     1      44.479   5.236  10.607  0.00  0.00    +0.000 C 
ATOM     14  C   UNL     1      44.423   3.920  11.362  0.00  0.00    +0.000 C 
ATOM     15  C   UNL     1      43.376   4.176  12.435  0.00  0.00    +0.000 C 
ATOM     16  C   UNL     1      42.453   5.228  11.836  0.00  0.00    +0.000 C 
ATOM     17  N   UNL     1      43.056   5.641  10.563  0.00  0.00    +0.000 NA
ATOM     18  H   UNL     1      43.005   6.659  10.483  0.00  0.00    +0.000 HD
ENDBRANCH  10  13
ENDBRANCH   8   9
ENDBRANCH   5   8
ENDBRANCH   1   2
BRANCH   1  19
ATOM     19  N   UNL     1      50.454   4.235  17.680  0.00  0.00    +0.000 N 
ATOM     20  C   UNL     1      51.336   4.200  18.725  0.00  0.00    +0.000 C 
ATOM     21  O   UNL     1      51.075   4.637  19.842  0.00  0.00    +0.000 OA
ATOM     22  H   UNL     1      50.702   3.783  16.809  0.00  0.00    +0.000 HD
BRANCH  20  23
ATOM     23  C   UNL     1      52.656   3.640  18.410  0.00  0.00    +0.000 A 
ATOM     24  C   UNL     1      53.815   4.363  18.654  0.00  0.00    +0.000 A 
ATOM     25  S   UNL     1      55.230   3.574  18.110  0.00  0.00    +0.000 S 
ATOM     26  C   UNL     1      54.341   2.222  17.575  0.00  0.00    +0.000 A 
ATOM     27  N   UNL     1      54.950   1.170  16.964  0.00  0.00    +0.000 NA
ATOM     28  C   UNL     1      54.146   0.218  16.616  0.00  0.00    +0.000 A 
ATOM     29  N   UNL     1      52.797   0.212  16.848  0.00  0.00    +0.000 N 
ATOM     30  C   UNL     1      52.145   1.234  17.490  0.00  0.00    +0.000 A 
ATOM     31  O   UNL     1      50.945   1.173  17.712  0.00  0.00    +0.000 OA
ATOM     32  C   UNL     1      52.992   2.358  17.838  0.00  0.00    +0.000 A 
ATOM     33  H   UNL     1      52.224  -0.573  16.568  0.00  0.00    +0.000 HD
ENDBRANCH  20  23
ENDBRANCH   1  19
BRANCH   1  34
ATOM     34  C   UNL     1      48.138   3.495  18.274  0.00  0.00    +0.000 C 
BRANCH  34  35
ATOM     35  N   UNL     1      48.284   3.152  19.695  0.00  0.00    +0.000 NA
ATOM     36  H   UNL     1      48.106   2.156  19.814  0.00  0.00    +0.000 HD
ATOM     37  H   UNL     1      47.572   3.639  20.239  0.00  0.00    +0.000 HD
ENDBRANCH  34  35
ENDBRANCH   1  34
TORSDOF 8
ENDMDL
MODEL 5
REMARK VINA RESULT:    -6.615      4.949      7.154
REMARK INTER + INTRA:         -10.830
REMARK INTER:                  -9.614
REMARK INTRA:                  -1.215
REMARK UNBOUND:                -1.314
REMARK  Name = 
REMARK  8 active torsions:
REMARK  status: ('A' for Active; 'I' for Inactive)
REMARK    1  A    between atoms: N_1  and  C_2
REMARK    2  A    between atoms: C_2  and  C_3
REMARK    3  A    between atoms: C_3  and  N_4
REMARK    4  A    between atoms: C_3  and  C_17
REMARK    5  A    between atoms: C_5  and  C_7
REMARK    6  A    between atoms: C_20  and  C_21
REMARK    7  A    between atoms: C_21  and  N_22
REMARK    8  A    between atoms: C_23  and  C_25
REMARK                            x       y       z     vdW  Elec       q    Type
REMARK                         _______ _______ _______ _____ _____    ______ ____
ROOT
ATOM      1  C   UNL     1      50.668   8.428  11.546  0.00  0.00    +0.000 C 
ENDROOT
BRANCH   1   2
ATOM      2  C   UNL     1      49.441   7.705  12.117  0.00  0.00    +0.000 A 
ATOM      3  C   UNL     1      49.436   7.303  13.460  0.00  0.00    +0.000 A 
ATOM      4  C   UNL     1      48.367   6.571  13.993  0.00  0.00    +0.000 A 
ATOM      5  C   UNL     1      47.268   6.220  13.199  0.00  0.00    +0.000 A 
ATOM      6  C   UNL     1      47.238   6.666  11.872  0.00  0.00    +0.000 A 
ATOM      7  C   UNL     1      48.311   7.395  11.336  0.00  0.00    +0.000 A 
BRANCH   5   8
ATOM      8  C   UNL     1      46.165   5.355  13.756  0.00  0.00    +0.000 C 
BRANCH   8   9
ATOM      9  N   UNL     1      45.139   5.058  12.783  0.00  0.00    +0.000 N 
ATOM     10  C   UNL     1      44.933   3.754  12.371  0.00  0.00    +0.000 C 
ATOM     11  O   UNL     1      45.604   2.813  12.794  0.00  0.00    +0.000 OA
ATOM     12  H   UNL     1      44.413   5.745  12.623  0.00  0.00    +0.000 HD
BRANCH  10  13
ATOM     13  C   UNL     1      43.784   3.570  11.352  0.00  0.00    +0.000 C 
ATOM     14  C   UNL     1      43.796   4.625  10.260  0.00  0.00    +0.000 C 
ATOM     15  C   UNL     1      44.852   4.116   9.292  0.00  0.00    +0.000 C 
ATOM     16  C   UNL     1      44.843   2.604   9.464  0.00  0.00    +0.000 C 
ATOM     17  N   UNL     1      43.939   2.314  10.583  0.00  0.00    +0.000 NA
ATOM     18  H   UNL     1      44.369   1.609  11.188  0.00  0.00    +0.000 HD
ENDBRANCH  10  13
ENDBRANCH   8   9
ENDBRANCH   5   8
ENDBRANCH   1   2
BRANCH   1  19
ATOM     19  N   UNL     1      51.643   7.450  11.093  0.00  0.00    +0.000 N 
ATOM     20  C   UNL     1      52.536   7.668  10.079  0.00  0.00    +0.000 C 
ATOM     21  O   UNL     1      52.518   8.670   9.370  0.00  0.00    +0.000 OA
ATOM     22  H   UNL     1      51.764   6.644  11.692  0.00  0.00    +0.000 HD
BRANCH  20  23
ATOM     23  C   UNL     1      53.503   6.588   9.857  0.00  0.00    +0.000 A 
ATOM     24  C   UNL     1      54.374   6.191  10.862  0.00  0.00    +0.000 A 
ATOM     25  S   UNL     1      55.489   4.997  10.357  0.00  0.00    +0.000 S 
ATOM     26  C   UNL     1      54.811   4.942   8.795  0.00  0.00    +0.000 A 
ATOM     27  N   UNL     1      55.325   4.133   7.829  0.00  0.00    +0.000 NA
ATOM     28  C   UNL     1      54.704   4.197   6.695  0.00  0.00    +0.000 A 
ATOM     29  N   UNL     1      53.603   4.973   6.451  0.00  0.00    +0.000 N 
ATOM     30  C   UNL     1      53.030   5.777   7.404  0.00  0.00    +0.000 A 
ATOM     31  O   UNL     1      52.024   6.426   7.158  0.00  0.00    +0.000 OA
ATOM     32  C   UNL     1      53.732   5.794   8.673  0.00  0.00    +0.000 A 
ATOM     33  H   UNL     1      53.150   4.964   5.548  0.00  0.00    +0.000 HD
ENDBRANCH  20  23
ENDBRANCH   1  19
BRANCH   1  34
ATOM     34  C   UNL     1      51.279   9.446  12.558  0.00  0.00    +0.000 C 
BRANCH  34  35
ATOM     35  N   UNL     1      51.999  10.562  11.929  0.00  0.00    +0.000 NA
ATOM     36  H   UNL     1      52.258  11.236  12.649  0.00  0.00    +0.000 HD
ATOM     37  H   UNL     1      51.377  11.052  11.286  0.00  0.00    +0.000 HD
ENDBRANCH  34  35
ENDBRANCH   1  34
TORSDOF 8
ENDMDL
MODEL 6
REMARK VINA RESULT:    -6.600      4.210      9.766
REMARK INTER + INTRA:         -10.808
REMARK INTER:                  -9.799
REMARK INTRA:                  -1.009
REMARK UNBOUND:                -1.314
REMARK  Name = 
REMARK  8 active torsions:
REMARK  status: ('A' for Active; 'I' for Inactive)
REMARK    1  A    between atoms: N_1  and  C_2
REMARK    2  A    between atoms: C_2  and  C_3
REMARK    3  A    between atoms: C_3  and  N_4
REMARK    4  A    between atoms: C_3  and  C_17
REMARK    5  A    between atoms: C_5  and  C_7
REMARK    6  A    between atoms: C_20  and  C_21
REMARK    7  A    between atoms: C_21  and  N_22
REMARK    8  A    between atoms: C_23  and  C_25
REMARK                            x       y       z     vdW  Elec       q    Type
REMARK                         _______ _______ _______ _____ _____    ______ ____
ROOT
ATOM      1  C   UNL     1      47.581   4.147  17.183  0.00  0.00    +0.000 C 
ENDROOT
BRANCH   1   2
ATOM      2  C   UNL     1      49.030   3.650  17.264  0.00  0.00    +0.000 A 
ATOM      3  C   UNL     1      49.317   2.304  16.994  0.00  0.00    +0.000 A 
ATOM      4  C   UNL     1      50.615   1.798  17.136  0.00  0.00    +0.000 A 
ATOM      5  C   UNL     1      51.669   2.623  17.550  0.00  0.00    +0.000 A 
ATOM      6  C   UNL     1      51.403   3.981  17.767  0.00  0.00    +0.000 A 
ATOM      7  C   UNL     1      50.101   4.487  17.630  0.00  0.00    +0.000 A 
BRANCH   5   8
ATOM      8  C   UNL     1      53.043   2.050  17.788  0.00  0.00    +0.000 C 
BRANCH   8   9
ATOM      9  N   UNL     1      54.018   3.057  18.142  0.00  0.00    +0.000 N 
ATOM     10  C   UNL     1      54.560   3.077  19.413  0.00  0.00    +0.000 C 
ATOM     11  O   UNL     1      54.237   2.268  20.282  0.00  0.00    +0.000 OA
ATOM     12  H   UNL     1      54.490   3.552  17.397  0.00  0.00    +0.000 HD
BRANCH  10  13
ATOM     13  C   UNL     1      55.613   4.185  19.651  0.00  0.00    +0.000 C 
ATOM     14  C   UNL     1      55.318   5.451  18.866  0.00  0.00    +0.000 C 
ATOM     15  C   UNL     1      54.267   6.150  19.712  0.00  0.00    +0.000 C 
ATOM     16  C   UNL     1      54.539   5.687  21.136  0.00  0.00    +0.000 C 
ATOM     17  N   UNL     1      55.588   4.664  21.052  0.00  0.00    +0.000 NA
ATOM     18  H   UNL     1      55.342   3.881  21.663  0.00  0.00    +0.000 HD
ENDBRANCH  10  13
ENDBRANCH   8   9
ENDBRANCH   5   8
ENDBRANCH   1   2
BRANCH   1  19
ATOM     19  N   UNL     1      47.401   4.930  15.972  0.00  0.00    +0.000 N 
ATOM     20  C   UNL     1      47.251   4.391  14.723  0.00  0.00    +0.000 C 
ATOM     21  O   UNL     1      47.378   3.193  14.488  0.00  0.00    +0.000 OA
ATOM     22  H   UNL     1      47.202   5.913  16.113  0.00  0.00    +0.000 HD
BRANCH  20  23
ATOM     23  C   UNL     1      46.973   5.358  13.655  0.00  0.00    +0.000 A 
ATOM     24  C   UNL     1      47.939   6.265  13.243  0.00  0.00    +0.000 A 
ATOM     25  S   UNL     1      47.371   7.370  12.069  0.00  0.00    +0.000 S 
ATOM     26  C   UNL     1      45.832   6.641  12.043  0.00  0.00    +0.000 A 
ATOM     27  N   UNL     1      44.831   7.127  11.260  0.00  0.00    +0.000 NA
ATOM     28  C   UNL     1      43.720   6.468  11.344  0.00  0.00    +0.000 A 
ATOM     29  N   UNL     1      43.531   5.354  12.117  0.00  0.00    +0.000 N 
ATOM     30  C   UNL     1      44.520   4.808  12.895  0.00  0.00    +0.000 A 
ATOM     31  O   UNL     1      44.322   3.790  13.542  0.00  0.00    +0.000 OA
ATOM     32  C   UNL     1      45.765   5.553  12.890  0.00  0.00    +0.000 A 
ATOM     33  H   UNL     1      42.643   4.871  12.125  0.00  0.00    +0.000 HD
ENDBRANCH  20  23
ENDBRANCH   1  19
BRANCH   1  34
ATOM     34  C   UNL     1      47.151   4.930  18.462  0.00  0.00    +0.000 C 
BRANCH  34  35
ATOM     35  N   UNL     1      47.211   6.392  18.324  0.00  0.00    +0.000 NA
ATOM     36  H   UNL     1      48.132   6.713  18.618  0.00  0.00    +0.000 HD
ATOM     37  H   UNL     1      46.538   6.823  18.957  0.00  0.00    +0.000 HD
ENDBRANCH  34  35
ENDBRANCH   1  34
TORSDOF 8
ENDMDL
MODEL 7
REMARK VINA RESULT:    -6.551      4.052      6.833
REMARK INTER + INTRA:         -10.737
REMARK INTER:                  -9.422
REMARK INTRA:                  -1.315
REMARK UNBOUND:                -1.314
REMARK  Name = 
REMARK  8 active torsions:
REMARK  status: ('A' for Active; 'I' for Inactive)
REMARK    1  A    between atoms: N_1  and  C_2
REMARK    2  A    between atoms: C_2  and  C_3
REMARK    3  A    between atoms: C_3  and  N_4
REMARK    4  A    between atoms: C_3  and  C_17
REMARK    5  A    between atoms: C_5  and  C_7
REMARK    6  A    between atoms: C_20  and  C_21
REMARK    7  A    between atoms: C_21  and  N_22
REMARK    8  A    between atoms: C_23  and  C_25
REMARK                            x       y       z     vdW  Elec       q    Type
REMARK                         _______ _______ _______ _____ _____    ______ ____
ROOT
ATOM      1  C   UNL     1      49.581   4.826  19.292  0.00  0.00    +0.000 C 
ENDROOT
BRANCH   1   2
ATOM      2  C   UNL     1      48.836   4.571  17.974  0.00  0.00    +0.000 A 
ATOM      3  C   UNL     1      48.444   3.267  17.642  0.00  0.00    +0.000 A 
ATOM      4  C   UNL     1      47.834   2.985  16.413  0.00  0.00    +0.000 A 
ATOM      5  C   UNL     1      47.595   4.000  15.478  0.00  0.00    +0.000 A 
ATOM      6  C   UNL     1      47.932   5.315  15.825  0.00  0.00    +0.000 A 
ATOM      7  C   UNL     1      48.548   5.596  17.054  0.00  0.00    +0.000 A 
BRANCH   5   8
ATOM      8  C   UNL     1      47.021   3.674  14.122  0.00  0.00    +0.000 C 
BRANCH   8   9
ATOM      9  N   UNL     1      45.723   4.271  13.903  0.00  0.00    +0.000 N 
ATOM     10  C   UNL     1      45.580   5.299  12.990  0.00  0.00    +0.000 C 
ATOM     11  O   UNL     1      46.528   5.750  12.348  0.00  0.00    +0.000 OA
ATOM     12  H   UNL     1      44.902   3.761  14.204  0.00  0.00    +0.000 HD
BRANCH  10  13
ATOM     13  C   UNL     1      44.135   5.826  12.829  0.00  0.00    +0.000 C 
ATOM     14  C   UNL     1      43.840   6.302  11.418  0.00  0.00    +0.000 C 
ATOM     15  C   UNL     1      43.545   5.014  10.667  0.00  0.00    +0.000 C 
ATOM     16  C   UNL     1      43.002   4.062  11.724  0.00  0.00    +0.000 C 
ATOM     17  N   UNL     1      43.141   4.744  13.015  0.00  0.00    +0.000 NA
ATOM     18  H   UNL     1      43.501   4.082  13.708  0.00  0.00    +0.000 HD
ENDBRANCH  10  13
ENDBRANCH   8   9
ENDBRANCH   5   8
ENDBRANCH   1   2
BRANCH   1  19
ATOM     19  N   UNL     1      50.781   4.008  19.339  0.00  0.00    +0.000 N 
ATOM     20  C   UNL     1      51.962   4.338  18.733  0.00  0.00    +0.000 C 
ATOM     21  O   UNL     1      52.087   5.303  17.983  0.00  0.00    +0.000 OA
ATOM     22  H   UNL     1      50.765   3.250  20.010  0.00  0.00    +0.000 HD
BRANCH  20  23
ATOM     23  C   UNL     1      53.078   3.424  19.000  0.00  0.00    +0.000 A 
ATOM     24  C   UNL     1      54.126   3.799  19.828  0.00  0.00    +0.000 A 
ATOM     25  S   UNL     1      55.371   2.631  19.914  0.00  0.00    +0.000 S 
ATOM     26  C   UNL     1      54.526   1.570  18.883  0.00  0.00    +0.000 A 
ATOM     27  N   UNL     1      55.056   0.374  18.509  0.00  0.00    +0.000 NA
ATOM     28  C   UNL     1      54.297  -0.324  17.727  0.00  0.00    +0.000 A 
ATOM     29  N   UNL     1      53.049   0.054  17.309  0.00  0.00    +0.000 N 
ATOM     30  C   UNL     1      52.461   1.234  17.689  0.00  0.00    +0.000 A 
ATOM     31  O   UNL     1      51.329   1.518  17.325  0.00  0.00    +0.000 OA
ATOM     32  C   UNL     1      53.301   2.085  18.509  0.00  0.00    +0.000 A 
ATOM     33  H   UNL     1      52.497  -0.546  16.713  0.00  0.00    +0.000 HD
ENDBRANCH  20  23
ENDBRANCH   1  19
BRANCH   1  34
ATOM     34  C   UNL     1      48.669   4.613  20.539  0.00  0.00    +0.000 C 
BRANCH  34  35
ATOM     35  N   UNL     1      47.476   5.470  20.567  0.00  0.00    +0.000 NA
ATOM     36  H   UNL     1      47.077   5.450  21.504  0.00  0.00    +0.000 HD
ATOM     37  H   UNL     1      46.766   5.088  19.942  0.00  0.00    +0.000 HD
ENDBRANCH  34  35
ENDBRANCH   1  34
TORSDOF 8
ENDMDL
MODEL 8
REMARK VINA RESULT:    -6.551      2.897      8.445
REMARK INTER + INTRA:         -10.737
REMARK INTER:                  -9.796
REMARK INTRA:                  -0.941
REMARK UNBOUND:                -1.314
REMARK  Name = 
REMARK  8 active torsions:
REMARK  status: ('A' for Active; 'I' for Inactive)
REMARK    1  A    between atoms: N_1  and  C_2
REMARK    2  A    between atoms: C_2  and  C_3
REMARK    3  A    between atoms: C_3  and  N_4
REMARK    4  A    between atoms: C_3  and  C_17
REMARK    5  A    between atoms: C_5  and  C_7
REMARK    6  A    between atoms: C_20  and  C_21
REMARK    7  A    between atoms: C_21  and  N_22
REMARK    8  A    between atoms: C_23  and  C_25
REMARK                            x       y       z     vdW  Elec       q    Type
REMARK                         _______ _______ _______ _____ _____    ______ ____
ROOT
ATOM      1  C   UNL     1      47.574   7.744  12.404  0.00  0.00    +0.000 C 
ENDROOT
BRANCH   1   2
ATOM      2  C   UNL     1      48.037   7.827  13.865  0.00  0.00    +0.000 A 
ATOM      3  C   UNL     1      48.652   6.716  14.461  0.00  0.00    +0.000 A 
ATOM      4  C   UNL     1      49.015   6.728  15.814  0.00  0.00    +0.000 A 
ATOM      5  C   UNL     1      48.777   7.854  16.612  0.00  0.00    +0.000 A 
ATOM      6  C   UNL     1      48.216   8.988  16.012  0.00  0.00    +0.000 A 
ATOM      7  C   UNL     1      47.847   8.974  14.658  0.00  0.00    +0.000 A 
BRANCH   5   8
ATOM      8  C   UNL     1      49.087   7.826  18.088  0.00  0.00    +0.000 C 
BRANCH   8   9
ATOM      9  N   UNL     1      49.423   6.504  18.566  0.00  0.00    +0.000 N 
ATOM     10  C   UNL     1      48.420   5.621  18.921  0.00  0.00    +0.000 C 
ATOM     11  O   UNL     1      47.227   5.917  18.859  0.00  0.00    +0.000 OA
ATOM     12  H   UNL     1      50.351   6.146  18.379  0.00  0.00    +0.000 HD
BRANCH  10  13
ATOM     13  C   UNL     1      48.914   4.232  19.385  0.00  0.00    +0.000 C 
ATOM     14  C   UNL     1      48.291   3.094  18.595  0.00  0.00    +0.000 C 
ATOM     15  C   UNL     1      49.119   3.058  17.321  0.00  0.00    +0.000 C 
ATOM     16  C   UNL     1      50.484   3.598  17.727  0.00  0.00    +0.000 C 
ATOM     17  N   UNL     1      50.359   4.053  19.116  0.00  0.00    +0.000 NA
ATOM     18  H   UNL     1      50.826   4.958  19.216  0.00  0.00    +0.000 HD
ENDBRANCH  10  13
ENDBRANCH   8   9
ENDBRANCH   5   8
ENDBRANCH   1   2
BRANCH   1  19
ATOM     19  N   UNL     1      46.716   6.584  12.230  0.00  0.00    +0.000 N 
ATOM     20  C   UNL     1      45.474   6.625  11.657  0.00  0.00    +0.000 C 
ATOM     21  O   UNL     1      44.912   7.670  11.345  0.00  0.00    +0.000 OA
ATOM     22  H   UNL     1      47.158   5.687  12.387  0.00  0.00    +0.000 HD
BRANCH  20  23
ATOM     23  C   UNL     1      44.825   5.321  11.480  0.00  0.00    +0.000 A 
ATOM     24  C   UNL     1      44.012   4.788  12.470  0.00  0.00    +0.000 A 
ATOM     25  S   UNL     1      43.449   3.215  12.107  0.00  0.00    +0.000 S 
ATOM     26  C   UNL     1      44.236   3.219  10.596  0.00  0.00    +0.000 A 
ATOM     27  N   UNL     1      44.191   2.138   9.772  0.00  0.00    +0.000 NA
ATOM     28  C   UNL     1      44.833   2.289   8.659  0.00  0.00    +0.000 A 
ATOM     29  N   UNL     1      45.492   3.430   8.287  0.00  0.00    +0.000 N 
ATOM     30  C   UNL     1      45.535   4.556   9.070  0.00  0.00    +0.000 A 
ATOM     31  O   UNL     1      46.101   5.569   8.685  0.00  0.00    +0.000 OA
ATOM     32  C   UNL     1      44.888   4.412  10.360  0.00  0.00    +0.000 A 
ATOM     33  H   UNL     1      45.960   3.493   7.393  0.00  0.00    +0.000 HD
ENDBRANCH  20  23
ENDBRANCH   1  19
BRANCH   1  34
ATOM     34  C   UNL     1      48.770   7.751  11.402  0.00  0.00    +0.000 C 
BRANCH  34  35
ATOM     35  N   UNL     1      49.632   8.937  11.501  0.00  0.00    +0.000 NA
ATOM     36  H   UNL     1      50.213   8.993  10.666  0.00  0.00    +0.000 HD
ATOM     37  H   UNL     1      50.270   8.830  12.290  0.00  0.00    +0.000 HD
ENDBRANCH  34  35
ENDBRANCH   1  34
TORSDOF 8
ENDMDL
MODEL 9
REMARK VINA RESULT:    -6.523      2.173      3.012
REMARK INTER + INTRA:         -10.697
REMARK INTER:                  -9.444
REMARK INTRA:                  -1.253
REMARK UNBOUND:                -1.314
REMARK  Name = 
REMARK  8 active torsions:
REMARK  status: ('A' for Active; 'I' for Inactive)
REMARK    1  A    between atoms: N_1  and  C_2
REMARK    2  A    between atoms: C_2  and  C_3
REMARK    3  A    between atoms: C_3  and  N_4
REMARK    4  A    between atoms: C_3  and  C_17
REMARK    5  A    between atoms: C_5  and  C_7
REMARK    6  A    between atoms: C_20  and  C_21
REMARK    7  A    between atoms: C_21  and  N_22
REMARK    8  A    between atoms: C_23  and  C_25
REMARK                            x       y       z     vdW  Elec       q    Type
REMARK                         _______ _______ _______ _____ _____    ______ ____
ROOT
ATOM      1  C   UNL     1      49.034   6.936  13.604  0.00  0.00    +0.000 C 
ENDROOT
BRANCH   1   2
ATOM      2  C   UNL     1      47.703   6.468  12.999  0.00  0.00    +0.000 A 
ATOM      3  C   UNL     1      47.319   6.930  11.732  0.00  0.00    +0.000 A 
ATOM      4  C   UNL     1      46.076   6.588  11.184  0.00  0.00    +0.000 A 
ATOM      5  C   UNL     1      45.179   5.771  11.885  0.00  0.00    +0.000 A 
ATOM      6  C   UNL     1      45.579   5.260  13.126  0.00  0.00    +0.000 A 
ATOM      7  C   UNL     1      46.822   5.607  13.678  0.00  0.00    +0.000 A 
BRANCH   5   8
ATOM      8  C   UNL     1      43.808   5.483  11.327  0.00  0.00    +0.000 C 
BRANCH   8   9
ATOM      9  N   UNL     1      43.851   4.761  10.076  0.00  0.00    +0.000 N 
ATOM     10  C   UNL     1      44.277   3.446  10.051  0.00  0.00    +0.000 C 
ATOM     11  O   UNL     1      44.642   2.850  11.063  0.00  0.00    +0.000 OA
ATOM     12  H   UNL     1      43.320   5.122   9.294  0.00  0.00    +0.000 HD
BRANCH  10  13
ATOM     13  C   UNL     1      44.245   2.782   8.655  0.00  0.00    +0.000 C 
ATOM     14  C   UNL     1      44.881   3.646   7.580  0.00  0.00    +0.000 C 
ATOM     15  C   UNL     1      46.368   3.392   7.761  0.00  0.00    +0.000 C 
ATOM     16  C   UNL     1      46.457   1.990   8.346  0.00  0.00    +0.000 C 
ATOM     17  N   UNL     1      45.081   1.560   8.618  0.00  0.00    +0.000 NA
ATOM     18  H   UNL     1      45.045   1.109   9.535  0.00  0.00    +0.000 HD
ENDBRANCH  10  13
ENDBRANCH   8   9
ENDBRANCH   5   8
ENDBRANCH   1   2
BRANCH   1  19
ATOM     19  N   UNL     1      48.861   7.193  15.023  0.00  0.00    +0.000 N 
ATOM     20  C   UNL     1      49.884   7.215  15.931  0.00  0.00    +0.000 C 
ATOM     21  O   UNL     1      51.037   6.897  15.654  0.00  0.00    +0.000 OA
ATOM     22  H   UNL     1      47.952   7.545  15.295  0.00  0.00    +0.000 HD
BRANCH  20  23
ATOM     23  C   UNL     1      49.502   7.602  17.294  0.00  0.00    +0.000 A 
ATOM     24  C   UNL     1      49.966   8.782  17.858  0.00  0.00    +0.000 A 
ATOM     25  S   UNL     1      49.492   8.985  19.487  0.00  0.00    +0.000 S 
ATOM     26  C   UNL     1      48.613   7.525  19.473  0.00  0.00    +0.000 A 
ATOM     27  N   UNL     1      47.974   7.073  20.586  0.00  0.00    +0.000 NA
ATOM     28  C   UNL     1      47.347   5.952  20.422  0.00  0.00    +0.000 A 
ATOM     29  N   UNL     1      47.280   5.261  19.243  0.00  0.00    +0.000 N 
ATOM     30  C   UNL     1      47.879   5.696  18.087  0.00  0.00    +0.000 A 
ATOM     31  O   UNL     1      47.764   5.069  17.044  0.00  0.00    +0.000 OA
ATOM     32  C   UNL     1      48.654   6.913  18.237  0.00  0.00    +0.000 A 
ATOM     33  H   UNL     1      46.757   4.399  19.174  0.00  0.00    +0.000 HD
ENDBRANCH  20  23
ENDBRANCH   1  19
BRANCH   1  34
ATOM     34  C   UNL     1      49.629   8.165  12.849  0.00  0.00    +0.000 C 
BRANCH  34  35
ATOM     35  N   UNL     1      51.075   8.079  12.603  0.00  0.00    +0.000 NA
ATOM     36  H   UNL     1      51.554   8.738  13.216  0.00  0.00    +0.000 HD
ATOM     37  H   UNL     1      51.277   8.374  11.648  0.00  0.00    +0.000 HD
ENDBRANCH  34  35
ENDBRANCH   1  34
TORSDOF 8
ENDMDL
