MODEL 1
REMARK VINA RESULT:    -8.554      0.000      0.000
REMARK INTER + INTRA:         -13.060
REMARK INTER:                 -12.054
REMARK INTRA:                  -1.006
REMARK UNBOUND:                -1.006
REMARK  Name = 
REMARK  9 active torsions:
REMARK  status: ('A' for Active; 'I' for Inactive)
REMARK    1  A    between atoms: C_1  and  C_2
REMARK    2  A    between atoms: C_4  and  O_5
REMARK    3  A    between atoms: O_5  and  C_6
REMARK    4  A    between atoms: C_6  and  C_7
REMARK    5  A    between atoms: C_7  and  C_8
REMARK    6  A    between atoms: C_7  and  C_9
REMARK    7  A    between atoms: C_13  and  N_14
REMARK    8  A    between atoms: N_14  and  C_15
REMARK    9  A    between atoms: C_22  and  C_23
REMARK                            x       y       z     vdW  Elec       q    Type
REMARK                         _______ _______ _______ _____ _____    ______ ____
ROOT
ATOM      1  C   UNL     1      43.892   3.051  11.596  0.00  0.00    +0.000 C 
ENDROOT
BRANCH   1   2
ATOM      2  C   UNL     1      43.637   4.331  12.419  0.00  0.00    +0.000 C 
ATOM      3  C   UNL     1      42.628   5.259  11.734  0.00  0.00    +0.000 C 
BRANCH   2   4
ATOM      4  C   UNL     1      44.947   5.057  12.699  0.00  0.00    +0.000 A 
ATOM      5  C   UNL     1      45.448   6.030  11.823  0.00  0.00    +0.000 A 
ATOM      6  C   UNL     1      46.676   6.646  12.071  0.00  0.00    +0.000 A 
ATOM      7  C   UNL     1      47.424   6.292  13.193  0.00  0.00    +0.000 A 
ATOM      8  C   UNL     1      46.945   5.335  14.088  0.00  0.00    +0.000 A 
ATOM      9  C   UNL     1      45.701   4.735  13.840  0.00  0.00    +0.000 A 
BRANCH   8  10
ATOM     10  N   UNL     1      47.667   4.928  15.232  0.00  0.00    +0.000 N 
ATOM     11  H   UNL     1      48.534   4.479  14.939  0.00  0.00    +0.000 HD
BRANCH  10  12
ATOM     12  C   UNL     1      47.089   4.321  16.403  0.00  0.00    +0.000 C 
ATOM     13  C   UNL     1      47.624   4.894  17.725  0.00  0.00    +0.000 C 
ATOM     14  O   UNL     1      48.002   3.569  18.188  0.00  0.00    +0.000 OA
ATOM     15  C   UNL     1      47.824   3.046  16.847  0.00  0.00    +0.000 C 
ENDBRANCH  10  12
ENDBRANCH   8  10
ENDBRANCH   2   4
ENDBRANCH   1   2
BRANCH   1  16
ATOM     16  O   UNL     1      43.553   3.246  10.218  0.00  0.00    +0.000 OA
BRANCH  16  20
ATOM     17  C   UNL     1      46.589   0.175   7.774  0.00  0.00    +0.000 C 
ATOM     18  C   UNL     1      46.101   1.573   8.050  0.00  0.00    +0.000 A 
ATOM     19  C   UNL     1      45.068   1.735   8.999  0.00  0.00    +0.000 A 
ATOM     20  C   UNL     1      44.555   2.996   9.312  0.00  0.00    +0.000 A 
ATOM     21  C   UNL     1      45.082   4.115   8.668  0.00  0.00    +0.000 A 
ATOM     22  C   UNL     1      46.107   3.977   7.725  0.00  0.00    +0.000 A 
ATOM     23  C   UNL     1      46.618   2.707   7.399  0.00  0.00    +0.000 A 
BRANCH  23  24
ATOM     24  C   UNL     1      47.718   2.591   6.391  0.00  0.00    +0.000 C 
ATOM     25  N   UNL     1      47.432   2.964   5.106  0.00  0.00    +0.000 N 
ATOM     26  O   UNL     1      48.829   2.163   6.667  0.00  0.00    +0.000 OA
ATOM     27  H   UNL     1      46.491   3.124   4.775  0.00  0.00    +0.000 HD
ATOM     28  H   UNL     1      48.151   2.789   4.421  0.00  0.00    +0.000 HD
ENDBRANCH  23  24
ENDBRANCH  16  20
ENDBRANCH   1  16
TORSDOF 7
ENDMDL
MODEL 2
REMARK VINA RESULT:    -7.344      1.880      8.056
REMARK INTER + INTRA:         -11.355
REMARK INTER:                 -10.360
REMARK INTRA:                  -0.995
REMARK UNBOUND:                -1.006
REMARK  Name = 
REMARK  9 active torsions:
REMARK  status: ('A' for Active; 'I' for Inactive)
REMARK    1  A    between atoms: C_1  and  C_2
REMARK    2  A    between atoms: C_4  and  O_5
REMARK    3  A    between atoms: O_5  and  C_6
REMARK    4  A    between atoms: C_6  and  C_7
REMARK    5  A    between atoms: C_7  and  C_8
REMARK    6  A    between atoms: C_7  and  C_9
REMARK    7  A    between atoms: C_13  and  N_14
REMARK    8  A    between atoms: N_14  and  C_15
REMARK    9  A    between atoms: C_22  and  C_23
REMARK                            x       y       z     vdW  Elec       q    Type
REMARK                         _______ _______ _______ _____ _____    ______ ____
ROOT
ATOM      1  C   UNL     1      46.985   6.396  11.580  0.00  0.00    +0.000 C 
ENDROOT
BRANCH   1   2
ATOM      2  C   UNL     1      45.601   6.505  10.906  0.00  0.00    +0.000 C 
ATOM      3  C   UNL     1      44.532   7.020  11.875  0.00  0.00    +0.000 C 
BRANCH   2   4
ATOM      4  C   UNL     1      45.194   5.167  10.300  0.00  0.00    +0.000 A 
ATOM      5  C   UNL     1      44.414   4.246  11.014  0.00  0.00    +0.000 A 
ATOM      6  C   UNL     1      44.096   3.005  10.462  0.00  0.00    +0.000 A 
ATOM      7  C   UNL     1      44.560   2.662   9.192  0.00  0.00    +0.000 A 
ATOM      8  C   UNL     1      45.329   3.563   8.454  0.00  0.00    +0.000 A 
ATOM      9  C   UNL     1      45.628   4.816   9.011  0.00  0.00    +0.000 A 
BRANCH   8  10
ATOM     10  N   UNL     1      45.836   3.263   7.171  0.00  0.00    +0.000 N 
ATOM     11  H   UNL     1      45.217   2.595   6.713  0.00  0.00    +0.000 HD
BRANCH  10  12
ATOM     12  C   UNL     1      47.226   3.041   6.862  0.00  0.00    +0.000 C 
ATOM     13  C   UNL     1      47.482   2.680   5.390  0.00  0.00    +0.000 C 
ATOM     14  O   UNL     1      48.185   1.467   5.772  0.00  0.00    +0.000 OA
ATOM     15  C   UNL     1      47.680   1.597   7.126  0.00  0.00    +0.000 C 
ENDBRANCH  10  12
ENDBRANCH   8  10
ENDBRANCH   2   4
ENDBRANCH   1   2
BRANCH   1  16
ATOM     16  O   UNL     1      46.954   6.922  12.912  0.00  0.00    +0.000 OA
BRANCH  16  20
ATOM     17  C   UNL     1      49.020   5.762  17.271  0.00  0.00    +0.000 C 
ATOM     18  C   UNL     1      48.234   5.349  16.055  0.00  0.00    +0.000 A 
ATOM     19  C   UNL     1      47.976   6.330  15.073  0.00  0.00    +0.000 A 
ATOM     20  C   UNL     1      47.251   6.032  13.916  0.00  0.00    +0.000 A 
ATOM     21  C   UNL     1      46.775   4.734  13.736  0.00  0.00    +0.000 A 
ATOM     22  C   UNL     1      47.020   3.746  14.697  0.00  0.00    +0.000 A 
ATOM     23  C   UNL     1      47.740   4.046  15.868  0.00  0.00    +0.000 A 
BRANCH  23  24
ATOM     24  C   UNL     1      47.991   2.968  16.875  0.00  0.00    +0.000 C 
ATOM     25  N   UNL     1      47.018   2.745  17.810  0.00  0.00    +0.000 N 
ATOM     26  O   UNL     1      49.022   2.312  16.903  0.00  0.00    +0.000 OA
ATOM     27  H   UNL     1      46.249   3.382  17.969  0.00  0.00    +0.000 HD
ATOM     28  H   UNL     1      47.243   2.084  18.539  0.00  0.00    +0.000 HD
ENDBRANCH  23  24
ENDBRANCH  16  20
ENDBRANCH   1  16
TORSDOF 7
ENDMDL
MODEL 3
REMARK VINA RESULT:    -6.544      2.294      8.582
REMARK INTER + INTRA:         -10.227
REMARK INTER:                  -9.455
REMARK INTRA:                  -0.772
REMARK UNBOUND:                -1.006
REMARK  Name = 
REMARK  9 active torsions:
REMARK  status: ('A' for Active; 'I' for Inactive)
REMARK    1  A    between atoms: C_1  and  C_2
REMARK    2  A    between atoms: C_4  and  O_5
REMARK    3  A    between atoms: O_5  and  C_6
REMARK    4  A    between atoms: C_6  and  C_7
REMARK    5  A    between atoms: C_7  and  C_8
REMARK    6  A    between atoms: C_7  and  C_9
REMARK    7  A    between atoms: C_13  and  N_14
REMARK    8  A    between atoms: N_14  and  C_15
REMARK    9  A    between atoms: C_22  and  C_23
REMARK                            x       y       z     vdW  Elec       q    Type
REMARK                         _______ _______ _______ _____ _____    ______ ____
ROOT
ATOM      1  C   UNL     1      47.906   5.905  13.034  0.00  0.00    +0.000 C 
ENDROOT
BRANCH   1   2
ATOM      2  C   UNL     1      46.866   6.702  12.220  0.00  0.00    +0.000 C 
ATOM      3  C   UNL     1      46.425   7.977  12.947  0.00  0.00    +0.000 C 
BRANCH   2   4
ATOM      4  C   UNL     1      45.668   5.825  11.878  0.00  0.00    +0.000 A 
ATOM      5  C   UNL     1      44.854   5.273  12.876  0.00  0.00    +0.000 A 
ATOM      6  C   UNL     1      43.793   4.429  12.545  0.00  0.00    +0.000 A 
ATOM      7  C   UNL     1      43.536   4.118  11.209  0.00  0.00    +0.000 A 
ATOM      8  C   UNL     1      44.323   4.661  10.193  0.00  0.00    +0.000 A 
ATOM      9  C   UNL     1      45.375   5.523  10.537  0.00  0.00    +0.000 A 
BRANCH   8  10
ATOM     10  N   UNL     1      44.116   4.368   8.827  0.00  0.00    +0.000 N 
ATOM     11  H   UNL     1      43.172   4.648   8.563  0.00  0.00    +0.000 HD
BRANCH  10  12
ATOM     12  C   UNL     1      44.551   3.166   8.164  0.00  0.00    +0.000 C 
ATOM     13  C   UNL     1      45.163   2.123   9.113  0.00  0.00    +0.000 C 
ATOM     14  O   UNL     1      46.379   2.062   8.320  0.00  0.00    +0.000 OA
ATOM     15  C   UNL     1      45.981   3.264   7.611  0.00  0.00    +0.000 C 
ENDBRANCH  10  12
ENDBRANCH   8  10
ENDBRANCH   2   4
ENDBRANCH   1   2
BRANCH   1  16
ATOM     16  O   UNL     1      48.511   6.724  14.042  0.00  0.00    +0.000 OA
BRANCH  16  20
ATOM     17  C   UNL     1      47.174   3.307  17.382  0.00  0.00    +0.000 C 
ATOM     18  C   UNL     1      47.798   4.640  17.066  0.00  0.00    +0.000 A 
ATOM     19  C   UNL     1      47.851   5.039  15.712  0.00  0.00    +0.000 A 
ATOM     20  C   UNL     1      48.416   6.258  15.331  0.00  0.00    +0.000 A 
ATOM     21  C   UNL     1      48.937   7.096  16.318  0.00  0.00    +0.000 A 
ATOM     22  C   UNL     1      48.893   6.721  17.666  0.00  0.00    +0.000 A 
ATOM     23  C   UNL     1      48.335   5.488  18.051  0.00  0.00    +0.000 A 
BRANCH  23  24
ATOM     24  C   UNL     1      48.297   5.116  19.500  0.00  0.00    +0.000 C 
ATOM     25  N   UNL     1      47.238   5.574  20.236  0.00  0.00    +0.000 N 
ATOM     26  O   UNL     1      49.171   4.454  20.039  0.00  0.00    +0.000 OA
ATOM     27  H   UNL     1      46.604   6.287  19.905  0.00  0.00    +0.000 HD
ATOM     28  H   UNL     1      47.276   5.398  21.229  0.00  0.00    +0.000 HD
ENDBRANCH  23  24
ENDBRANCH  16  20
ENDBRANCH   1  16
TORSDOF 7
ENDMDL
MODEL 4
REMARK VINA RESULT:    -6.211      3.679      5.893
REMARK INTER + INTRA:          -9.759
REMARK INTER:                  -8.943
REMARK INTRA:                  -0.816
REMARK UNBOUND:                -1.006
REMARK  Name = 
REMARK  9 active torsions:
REMARK  status: ('A' for Active; 'I' for Inactive)
REMARK    1  A    between atoms: C_1  and  C_2
REMARK    2  A    between atoms: C_4  and  O_5
REMARK    3  A    between atoms: O_5  and  C_6
REMARK    4  A    between atoms: C_6  and  C_7
REMARK    5  A    between atoms: C_7  and  C_8
REMARK    6  A    between atoms: C_7  and  C_9
REMARK    7  A    between atoms: C_13  and  N_14
REMARK    8  A    between atoms: N_14  and  C_15
REMARK    9  A    between atoms: C_22  and  C_23
REMARK                            x       y       z     vdW  Elec       q    Type
REMARK                         _______ _______ _______ _____ _____    ______ ____
ROOT
ATOM      1  C   UNL     1      48.649   7.030  13.540  0.00  0.00    +0.000 C 
ENDROOT
BRANCH   1   2
ATOM      2  C   UNL     1      49.448   7.885  14.546  0.00  0.00    +0.000 C 
ATOM      3  C   UNL     1      50.512   8.741  13.851  0.00  0.00    +0.000 C 
BRANCH   2   4
ATOM      4  C   UNL     1      50.070   7.004  15.622  0.00  0.00    +0.000 A 
ATOM      5  C   UNL     1      51.451   7.005  15.862  0.00  0.00    +0.000 A 
ATOM      6  C   UNL     1      52.009   6.152  16.816  0.00  0.00    +0.000 A 
ATOM      7  C   UNL     1      51.194   5.280  17.538  0.00  0.00    +0.000 A 
ATOM      8  C   UNL     1      49.814   5.264  17.327  0.00  0.00    +0.000 A 
ATOM      9  C   UNL     1      49.262   6.139  16.379  0.00  0.00    +0.000 A 
BRANCH   8  10
ATOM     10  N   UNL     1      48.945   4.392  18.019  0.00  0.00    +0.000 N 
ATOM     11  H   UNL     1      49.022   4.566  19.021  0.00  0.00    +0.000 HD
BRANCH  10  12
ATOM     12  C   UNL     1      48.749   3.000  17.706  0.00  0.00    +0.000 C 
ATOM     13  C   UNL     1      49.987   2.323  17.095  0.00  0.00    +0.000 C 
ATOM     14  O   UNL     1      49.220   1.880  15.943  0.00  0.00    +0.000 OA
ATOM     15  C   UNL     1      48.139   2.774  16.314  0.00  0.00    +0.000 C 
ENDBRANCH  10  12
ENDBRANCH   8  10
ENDBRANCH   2   4
ENDBRANCH   1   2
BRANCH   1  16
ATOM     16  O   UNL     1      47.248   7.316  13.616  0.00  0.00    +0.000 OA
BRANCH  16  20
ATOM     17  C   UNL     1      43.009   5.700  11.606  0.00  0.00    +0.000 C 
ATOM     18  C   UNL     1      44.349   5.404  12.226  0.00  0.00    +0.000 A 
ATOM     19  C   UNL     1      45.148   6.499  12.623  0.00  0.00    +0.000 A 
ATOM     20  C   UNL     1      46.405   6.312  13.203  0.00  0.00    +0.000 A 
ATOM     21  C   UNL     1      46.874   5.012  13.390  0.00  0.00    +0.000 A 
ATOM     22  C   UNL     1      46.098   3.913  13.005  0.00  0.00    +0.000 A 
ATOM     23  C   UNL     1      44.837   4.098  12.411  0.00  0.00    +0.000 A 
BRANCH  23  24
ATOM     24  C   UNL     1      44.027   2.903  12.014  0.00  0.00    +0.000 C 
ATOM     25  N   UNL     1      44.136   2.474  10.720  0.00  0.00    +0.000 N 
ATOM     26  O   UNL     1      43.273   2.327  12.784  0.00  0.00    +0.000 OA
ATOM     27  H   UNL     1      44.572   3.023   9.992  0.00  0.00    +0.000 HD
ATOM     28  H   UNL     1      43.513   1.730  10.443  0.00  0.00    +0.000 HD
ENDBRANCH  23  24
ENDBRANCH  16  20
ENDBRANCH   1  16
TORSDOF 7
ENDMDL
MODEL 5
REMARK VINA RESULT:    -5.962      2.749      4.956
REMARK INTER + INTRA:          -9.408
REMARK INTER:                  -8.707
REMARK INTRA:                  -0.701
REMARK UNBOUND:                -1.006
REMARK  Name = 
REMARK  9 active torsions:
REMARK  status: ('A' for Active; 'I' for Inactive)
REMARK    1  A    between atoms: C_1  and  C_2
REMARK    2  A    between atoms: C_4  and  O_5
REMARK    3  A    between atoms: O_5  and  C_6
REMARK    4  A    between atoms: C_6  and  C_7
REMARK    5  A    between atoms: C_7  and  C_8
REMARK    6  A    between atoms: C_7  and  C_9
REMARK    7  A    between atoms: C_13  and  N_14
REMARK    8  A    between atoms: N_14  and  C_15
REMARK    9  A    between atoms: C_22  and  C_23
REMARK                            x       y       z     vdW  Elec       q    Type
REMARK                         _______ _______ _______ _____ _____    ______ ____
ROOT
ATOM      1  C   UNL     1      47.230   8.545  12.442  0.00  0.00    +0.000 C 
ENDROOT
BRANCH   1   2
ATOM      2  C   UNL     1      48.663   8.389  12.993  0.00  0.00    +0.000 C 
ATOM      3  C   UNL     1      49.430   7.269  12.283  0.00  0.00    +0.000 C 
BRANCH   2   4
ATOM      4  C   UNL     1      48.635   8.166  14.500  0.00  0.00    +0.000 A 
ATOM      5  C   UNL     1      48.381   9.216  15.392  0.00  0.00    +0.000 A 
ATOM      6  C   UNL     1      48.412   9.003  16.771  0.00  0.00    +0.000 A 
ATOM      7  C   UNL     1      48.706   7.737  17.278  0.00  0.00    +0.000 A 
ATOM      8  C   UNL     1      48.952   6.670  16.413  0.00  0.00    +0.000 A 
ATOM      9  C   UNL     1      48.901   6.892  15.029  0.00  0.00    +0.000 A 
BRANCH   8  10
ATOM     10  N   UNL     1      49.269   5.372  16.871  0.00  0.00    +0.000 N 
ATOM     11  H   UNL     1      49.702   4.845  16.114  0.00  0.00    +0.000 HD
BRANCH  10  12
ATOM     12  C   UNL     1      48.421   4.559  17.706  0.00  0.00    +0.000 C 
ATOM     13  C   UNL     1      48.602   3.049  17.486  0.00  0.00    +0.000 C 
ATOM     14  O   UNL     1      47.181   2.880  17.230  0.00  0.00    +0.000 OA
ATOM     15  C   UNL     1      47.030   4.317  17.099  0.00  0.00    +0.000 C 
ENDBRANCH  10  12
ENDBRANCH   8  10
ENDBRANCH   2   4
ENDBRANCH   1   2
BRANCH   1  16
ATOM     16  O   UNL     1      46.302   7.742  13.181  0.00  0.00    +0.000 OA
BRANCH  16  20
ATOM     17  C   UNL     1      45.553   5.027   9.096  0.00  0.00    +0.000 C 
ATOM     18  C   UNL     1      45.401   5.206  10.584  0.00  0.00    +0.000 A 
ATOM     19  C   UNL     1      45.920   6.384  11.162  0.00  0.00    +0.000 A 
ATOM     20  C   UNL     1      45.825   6.627  12.535  0.00  0.00    +0.000 A 
ATOM     21  C   UNL     1      45.200   5.679  13.344  0.00  0.00    +0.000 A 
ATOM     22  C   UNL     1      44.676   4.505  12.791  0.00  0.00    +0.000 A 
ATOM     23  C   UNL     1      44.781   4.252  11.411  0.00  0.00    +0.000 A 
BRANCH  23  24
ATOM     24  C   UNL     1      44.207   2.990  10.846  0.00  0.00    +0.000 C 
ATOM     25  N   UNL     1      45.008   2.255  10.016  0.00  0.00    +0.000 N 
ATOM     26  O   UNL     1      43.067   2.617  11.079  0.00  0.00    +0.000 OA
ATOM     27  H   UNL     1      45.869   2.609   9.624  0.00  0.00    +0.000 HD
ATOM     28  H   UNL     1      44.575   1.461   9.568  0.00  0.00    +0.000 HD
ENDBRANCH  23  24
ENDBRANCH  16  20
ENDBRANCH   1  16
TORSDOF 7
ENDMDL
MODEL 6
REMARK VINA RESULT:    -5.929      3.233      8.100
REMARK INTER + INTRA:          -9.362
REMARK INTER:                  -8.209
REMARK INTRA:                  -1.153
REMARK UNBOUND:                -1.006
REMARK  Name = 
REMARK  9 active torsions:
REMARK  status: ('A' for Active; 'I' for Inactive)
REMARK    1  A    between atoms: C_1  and  C_2
REMARK    2  A    between atoms: C_4  and  O_5
REMARK    3  A    between atoms: O_5  and  C_6
REMARK    4  A    between atoms: C_6  and  C_7
REMARK    5  A    between atoms: C_7  and  C_8
REMARK    6  A    between atoms: C_7  and  C_9
REMARK    7  A    between atoms: C_13  and  N_14
REMARK    8  A    between atoms: N_14  and  C_15
REMARK    9  A    between atoms: C_22  and  C_23
REMARK                            x       y       z     vdW  Elec       q    Type
REMARK                         _______ _______ _______ _____ _____    ______ ____
ROOT
ATOM      1  C   UNL     1      49.870   7.556  12.939  0.00  0.00    +0.000 C 
ENDROOT
BRANCH   1   2
ATOM      2  C   UNL     1      49.073   8.290  11.840  0.00  0.00    +0.000 C 
ATOM      3  C   UNL     1      49.296   9.805  11.887  0.00  0.00    +0.000 C 
BRANCH   2   4
ATOM      4  C   UNL     1      47.590   7.951  11.938  0.00  0.00    +0.000 A 
ATOM      5  C   UNL     1      46.650   8.893  12.379  0.00  0.00    +0.000 A 
ATOM      6  C   UNL     1      45.304   8.548  12.512  0.00  0.00    +0.000 A 
ATOM      7  C   UNL     1      44.881   7.252  12.214  0.00  0.00    +0.000 A 
ATOM      8  C   UNL     1      45.792   6.297  11.764  0.00  0.00    +0.000 A 
ATOM      9  C   UNL     1      47.139   6.660  11.616  0.00  0.00    +0.000 A 
BRANCH   8  10
ATOM     10  N   UNL     1      45.420   4.968  11.463  0.00  0.00    +0.000 N 
ATOM     11  H   UNL     1      46.104   4.566  10.822  0.00  0.00    +0.000 HD
BRANCH  10  12
ATOM     12  C   UNL     1      44.076   4.525  11.198  0.00  0.00    +0.000 C 
ATOM     13  C   UNL     1      43.434   3.762  12.368  0.00  0.00    +0.000 C 
ATOM     14  O   UNL     1      43.139   2.625  11.512  0.00  0.00    +0.000 OA
ATOM     15  C   UNL     1      44.017   3.162  10.490  0.00  0.00    +0.000 C 
ENDBRANCH  10  12
ENDBRANCH   8  10
ENDBRANCH   2   4
ENDBRANCH   1   2
BRANCH   1  16
ATOM     16  O   UNL     1      49.458   7.977  14.245  0.00  0.00    +0.000 OA
BRANCH  16  20
ATOM     17  C   UNL     1      47.051   4.199  16.378  0.00  0.00    +0.000 C 
ATOM     18  C   UNL     1      48.249   5.109  16.319  0.00  0.00    +0.000 A 
ATOM     19  C   UNL     1      48.274   6.102  15.316  0.00  0.00    +0.000 A 
ATOM     20  C   UNL     1      49.350   6.985  15.189  0.00  0.00    +0.000 A 
ATOM     21  C   UNL     1      50.418   6.876  16.079  0.00  0.00    +0.000 A 
ATOM     22  C   UNL     1      50.413   5.901  17.082  0.00  0.00    +0.000 A 
ATOM     23  C   UNL     1      49.336   5.002  17.205  0.00  0.00    +0.000 A 
BRANCH  23  24
ATOM     24  C   UNL     1      49.356   3.973  18.291  0.00  0.00    +0.000 C 
ATOM     25  N   UNL     1      49.962   2.778  18.010  0.00  0.00    +0.000 N 
ATOM     26  O   UNL     1      48.841   4.151  19.384  0.00  0.00    +0.000 OA
ATOM     27  H   UNL     1      50.216   2.495  17.075  0.00  0.00    +0.000 HD
ATOM     28  H   UNL     1      49.882   2.061  18.716  0.00  0.00    +0.000 HD
ENDBRANCH  23  24
ENDBRANCH  16  20
ENDBRANCH   1  16
TORSDOF 7
ENDMDL
MODEL 7
REMARK VINA RESULT:    -5.589      2.566      8.221
REMARK INTER + INTRA:          -8.882
REMARK INTER:                  -7.875
REMARK INTRA:                  -1.007
REMARK UNBOUND:                -1.006
REMARK  Name = 
REMARK  9 active torsions:
REMARK  status: ('A' for Active; 'I' for Inactive)
REMARK    1  A    between atoms: C_1  and  C_2
REMARK    2  A    between atoms: C_4  and  O_5
REMARK    3  A    between atoms: O_5  and  C_6
REMARK    4  A    between atoms: C_6  and  C_7
REMARK    5  A    between atoms: C_7  and  C_8
REMARK    6  A    between atoms: C_7  and  C_9
REMARK    7  A    between atoms: C_13  and  N_14
REMARK    8  A    between atoms: N_14  and  C_15
REMARK    9  A    between atoms: C_22  and  C_23
REMARK                            x       y       z     vdW  Elec       q    Type
REMARK                         _______ _______ _______ _____ _____    ______ ____
ROOT
ATOM      1  C   UNL     1      48.997   7.120  13.040  0.00  0.00    +0.000 C 
ENDROOT
BRANCH   1   2
ATOM      2  C   UNL     1      48.311   7.880  11.885  0.00  0.00    +0.000 C 
ATOM      3  C   UNL     1      48.400   9.398  12.068  0.00  0.00    +0.000 C 
BRANCH   2   4
ATOM      4  C   UNL     1      46.863   7.430  11.734  0.00  0.00    +0.000 A 
ATOM      5  C   UNL     1      45.797   8.328  11.885  0.00  0.00    +0.000 A 
ATOM      6  C   UNL     1      44.476   7.886  11.795  0.00  0.00    +0.000 A 
ATOM      7  C   UNL     1      44.202   6.538  11.560  0.00  0.00    +0.000 A 
ATOM      8  C   UNL     1      45.243   5.624  11.394  0.00  0.00    +0.000 A 
ATOM      9  C   UNL     1      46.567   6.082  11.469  0.00  0.00    +0.000 A 
BRANCH   8  10
ATOM     10  N   UNL     1      45.023   4.248  11.170  0.00  0.00    +0.000 N 
ATOM     11  H   UNL     1      45.856   3.726  11.440  0.00  0.00    +0.000 HD
BRANCH  10  12
ATOM     12  C   UNL     1      44.365   3.693  10.015  0.00  0.00    +0.000 C 
ATOM     13  C   UNL     1      44.998   2.386   9.510  0.00  0.00    +0.000 C 
ATOM     14  O   UNL     1      45.161   2.938   8.176  0.00  0.00    +0.000 OA
ATOM     15  C   UNL     1      44.887   4.267   8.688  0.00  0.00    +0.000 C 
ENDBRANCH  10  12
ENDBRANCH   8  10
ENDBRANCH   2   4
ENDBRANCH   1   2
BRANCH   1  16
ATOM     16  O   UNL     1      48.263   7.265  14.262  0.00  0.00    +0.000 OA
BRANCH  16  20
ATOM     17  C   UNL     1      50.828   5.484  18.117  0.00  0.00    +0.000 C 
ATOM     18  C   UNL     1      49.700   5.342  17.130  0.00  0.00    +0.000 A 
ATOM     19  C   UNL     1      49.528   6.367  16.174  0.00  0.00    +0.000 A 
ATOM     20  C   UNL     1      48.504   6.315  15.225  0.00  0.00    +0.000 A 
ATOM     21  C   UNL     1      47.637   5.223  15.228  0.00  0.00    +0.000 A 
ATOM     22  C   UNL     1      47.791   4.195  16.166  0.00  0.00    +0.000 A 
ATOM     23  C   UNL     1      48.814   4.250  17.130  0.00  0.00    +0.000 A 
BRANCH  23  24
ATOM     24  C   UNL     1      48.957   3.134  18.117  0.00  0.00    +0.000 C 
ATOM     25  N   UNL     1      48.278   3.252  19.299  0.00  0.00    +0.000 N 
ATOM     26  O   UNL     1      49.662   2.156  17.916  0.00  0.00    +0.000 OA
ATOM     27  H   UNL     1      47.854   4.115  19.608  0.00  0.00    +0.000 HD
ATOM     28  H   UNL     1      48.461   2.540  19.991  0.00  0.00    +0.000 HD
ENDBRANCH  23  24
ENDBRANCH  16  20
ENDBRANCH   1  16
TORSDOF 7
ENDMDL
MODEL 8
REMARK VINA RESULT:    -5.573      3.576      6.544
REMARK INTER + INTRA:          -8.860
REMARK INTER:                  -8.172
REMARK INTRA:                  -0.687
REMARK UNBOUND:                -1.006
REMARK  Name = 
REMARK  9 active torsions:
REMARK  status: ('A' for Active; 'I' for Inactive)
REMARK    1  A    between atoms: C_1  and  C_2
REMARK    2  A    between atoms: C_4  and  O_5
REMARK    3  A    between atoms: O_5  and  C_6
REMARK    4  A    between atoms: C_6  and  C_7
REMARK    5  A    between atoms: C_7  and  C_8
REMARK    6  A    between atoms: C_7  and  C_9
REMARK    7  A    between atoms: C_13  and  N_14
REMARK    8  A    between atoms: N_14  and  C_15
REMARK    9  A    between atoms: C_22  and  C_23
REMARK                            x       y       z     vdW  Elec       q    Type
REMARK                         _______ _______ _______ _____ _____    ______ ____
ROOT
ATOM      1  C   UNL     1      47.398   4.389  15.957  0.00  0.00    +0.000 C 
ENDROOT
BRANCH   1   2
ATOM      2  C   UNL     1      48.581   4.076  16.897  0.00  0.00    +0.000 C 
ATOM      3  C   UNL     1      48.711   2.575  17.173  0.00  0.00    +0.000 C 
BRANCH   2   4
ATOM      4  C   UNL     1      48.457   4.864  18.195  0.00  0.00    +0.000 A 
ATOM      5  C   UNL     1      48.717   4.273  19.439  0.00  0.00    +0.000 A 
ATOM      6  C   UNL     1      48.546   4.996  20.621  0.00  0.00    +0.000 A 
ATOM      7  C   UNL     1      48.105   6.319  20.575  0.00  0.00    +0.000 A 
ATOM      8  C   UNL     1      47.849   6.937  19.351  0.00  0.00    +0.000 A 
ATOM      9  C   UNL     1      48.042   6.206  18.168  0.00  0.00    +0.000 A 
BRANCH   8  10
ATOM     10  N   UNL     1      47.387   8.267  19.248  0.00  0.00    +0.000 N 
ATOM     11  H   UNL     1      46.375   8.281  19.365  0.00  0.00    +0.000 HD
BRANCH  10  12
ATOM     12  C   UNL     1      47.853   9.232  18.285  0.00  0.00    +0.000 C 
ATOM     13  C   UNL     1      49.307   9.677  18.508  0.00  0.00    +0.000 C 
ATOM     14  O   UNL     1      48.912  11.075  18.547  0.00  0.00    +0.000 OA
ATOM     15  C   UNL     1      47.521  10.682  18.674  0.00  0.00    +0.000 C 
ENDBRANCH  10  12
ENDBRANCH   8  10
ENDBRANCH   2   4
ENDBRANCH   1   2
BRANCH   1  16
ATOM     16  O   UNL     1      47.678   3.970  14.616  0.00  0.00    +0.000 OA
BRANCH  16  20
ATOM     17  C   UNL     1      45.114   7.282  11.955  0.00  0.00    +0.000 C 
ATOM     18  C   UNL     1      45.410   5.848  12.309  0.00  0.00    +0.000 A 
ATOM     19  C   UNL     1      46.395   5.602  13.290  0.00  0.00    +0.000 A 
ATOM     20  C   UNL     1      46.734   4.302  13.674  0.00  0.00    +0.000 A 
ATOM     21  C   UNL     1      46.079   3.229  13.070  0.00  0.00    +0.000 A 
ATOM     22  C   UNL     1      45.099   3.451  12.096  0.00  0.00    +0.000 A 
ATOM     23  C   UNL     1      44.764   4.759  11.698  0.00  0.00    +0.000 A 
BRANCH  23  24
ATOM     24  C   UNL     1      43.708   4.966  10.658  0.00  0.00    +0.000 C 
ATOM     25  N   UNL     1      44.054   4.721   9.357  0.00  0.00    +0.000 N 
ATOM     26  O   UNL     1      42.581   5.357  10.924  0.00  0.00    +0.000 OA
ATOM     27  H   UNL     1      45.010   4.600   9.055  0.00  0.00    +0.000 HD
ATOM     28  H   UNL     1      43.363   4.958   8.660  0.00  0.00    +0.000 HD
ENDBRANCH  23  24
ENDBRANCH  16  20
ENDBRANCH   1  16
TORSDOF 7
ENDMDL
