MODEL 1
REMARK VINA RESULT:    -6.392      0.000      0.000
REMARK INTER + INTRA:          -8.404
REMARK INTER:                  -7.700
REMARK INTRA:                  -0.704
REMARK UNBOUND:                -0.704
REMARK  Name = 
REMARK  4 active torsions:
REMARK  status: ('A' for Active; 'I' for Inactive)
REMARK    1  A    between atoms: N_1  and  C_2
REMARK    2  A    between atoms: C_2  and  C_3
REMARK    3  A    between atoms: C_6  and  C_7
REMARK    4  A    between atoms: C_7  and  N_8
REMARK                            x       y       z     vdW  Elec       q    Type
REMARK                         _______ _______ _______ _____ _____    ______ ____
ROOT
ATOM      1  C   UNL     1      48.043   7.750  12.322  0.00  0.00    +0.000 C 
ATOM      2  C   UNL     1      47.583   6.293  12.136  0.00  0.00    +0.000 C 
ATOM      3  C   UNL     1      46.371   5.949  13.002  0.00  0.00    +0.000 C 
ATOM      4  C   UNL     1      45.177   6.886  12.752  0.00  0.00    +0.000 C 
ATOM      5  C   UNL     1      45.624   8.353  12.918  0.00  0.00    +0.000 C 
ATOM      6  C   UNL     1      46.861   8.707  12.084  0.00  0.00    +0.000 C 
ENDROOT
BRANCH   1   7
ATOM      7  C   UNL     1      48.695   8.003  13.697  0.00  0.00    +0.000 C 
BRANCH   7   8
ATOM      8  N   UNL     1      49.743   7.027  13.980  0.00  0.00    +0.000 NA
ATOM      9  H   UNL     1      50.585   7.507  14.289  0.00  0.00    +0.000 HD
ATOM     10  H   UNL     1      49.992   6.530  13.126  0.00  0.00    +0.000 HD
ENDBRANCH   7   8
ENDBRANCH   1   7
BRANCH   4  11
ATOM     11  C   UNL     1      44.508   6.672  11.379  0.00  0.00    +0.000 C 
BRANCH  11  12
ATOM     12  N   UNL     1      44.192   5.285  11.062  0.00  0.00    +0.000 N 
ATOM     13  C   UNL     1      43.368   4.491  11.822  0.00  0.00    +0.000 A 
ATOM     14  C   UNL     1      43.420   3.213  11.317  0.00  0.00    +0.000 A 
ATOM     15  C   UNL     1      44.277   3.234  10.184  0.00  0.00    +0.000 A 
ATOM     16  C   UNL     1      44.699   2.246   9.271  0.00  0.00    +0.000 A 
ATOM     17  C   UNL     1      45.554   2.600   8.222  0.00  0.00    +0.000 A 
ATOM     18  C   UNL     1      45.998   3.912   8.085  0.00  0.00    +0.000 A 
ATOM     19  C   UNL     1      45.608   4.906   8.989  0.00  0.00    +0.000 A 
ATOM     20  C   UNL     1      44.741   4.544  10.033  0.00  0.00    +0.000 A 
ENDBRANCH  11  12
ENDBRANCH   4  11
TORSDOF 4
ENDMDL
MODEL 2
REMARK VINA RESULT:    -6.331      2.206      5.831
REMARK INTER + INTRA:          -8.330
REMARK INTER:                  -7.624
REMARK INTRA:                  -0.706
REMARK UNBOUND:                -0.704
REMARK  Name = 
REMARK  4 active torsions:
REMARK  status: ('A' for Active; 'I' for Inactive)
REMARK    1  A    between atoms: N_1  and  C_2
REMARK    2  A    between atoms: C_2  and  C_3
REMARK    3  A    between atoms: C_6  and  C_7
REMARK    4  A    between atoms: C_7  and  N_8
REMARK                            x       y       z     vdW  Elec       q    Type
REMARK                         _______ _______ _______ _____ _____    ______ ____
ROOT
ATOM      1  C   UNL     1      47.130   3.016   7.240  0.00  0.00    +0.000 C 
ATOM      2  C   UNL     1      46.400   4.242   7.816  0.00  0.00    +0.000 C 
ATOM      3  C   UNL     1      44.902   3.997   7.997  0.00  0.00    +0.000 C 
ATOM      4  C   UNL     1      44.602   2.776   8.882  0.00  0.00    +0.000 C 
ATOM      5  C   UNL     1      45.339   1.539   8.329  0.00  0.00    +0.000 C 
ATOM      6  C   UNL     1      46.837   1.778   8.107  0.00  0.00    +0.000 C 
ENDROOT
BRANCH   1   7
ATOM      7  C   UNL     1      46.786   2.752   5.760  0.00  0.00    +0.000 C 
BRANCH   7   8
ATOM      8  N   UNL     1      47.986   2.502   4.968  0.00  0.00    +0.000 NA
ATOM      9  H   UNL     1      48.390   3.387   4.668  0.00  0.00    +0.000 HD
ATOM     10  H   UNL     1      47.740   1.997   4.118  0.00  0.00    +0.000 HD
ENDBRANCH   7   8
ENDBRANCH   1   7
BRANCH   4  11
ATOM     11  C   UNL     1      44.948   2.997  10.368  0.00  0.00    +0.000 C 
BRANCH  11  12
ATOM     12  N   UNL     1      44.356   4.190  10.963  0.00  0.00    +0.000 N 
ATOM     13  C   UNL     1      43.010   4.352  11.184  0.00  0.00    +0.000 A 
ATOM     14  C   UNL     1      42.799   5.642  11.610  0.00  0.00    +0.000 A 
ATOM     15  C   UNL     1      44.065   6.281  11.690  0.00  0.00    +0.000 A 
ATOM     16  C   UNL     1      44.474   7.575  12.068  0.00  0.00    +0.000 A 
ATOM     17  C   UNL     1      45.836   7.896  12.059  0.00  0.00    +0.000 A 
ATOM     18  C   UNL     1      46.781   6.953  11.668  0.00  0.00    +0.000 A 
ATOM     19  C   UNL     1      46.398   5.667  11.271  0.00  0.00    +0.000 A 
ATOM     20  C   UNL     1      45.030   5.350  11.293  0.00  0.00    +0.000 A 
ENDBRANCH  11  12
ENDBRANCH   4  11
TORSDOF 4
ENDMDL
MODEL 3
REMARK VINA RESULT:    -5.547      2.240      6.021
REMARK INTER + INTRA:          -7.386
REMARK INTER:                  -6.876
REMARK INTRA:                  -0.510
REMARK UNBOUND:                -0.704
REMARK  Name = 
REMARK  4 active torsions:
REMARK  status: ('A' for Active; 'I' for Inactive)
REMARK    1  A    between atoms: N_1  and  C_2
REMARK    2  A    between atoms: C_2  and  C_3
REMARK    3  A    between atoms: C_6  and  C_7
REMARK    4  A    between atoms: C_7  and  N_8
REMARK                            x       y       z     vdW  Elec       q    Type
REMARK                         _______ _______ _______ _____ _____    ______ ____
ROOT
ATOM      1  C   UNL     1      43.758   3.868  12.559  0.00  0.00    +0.000 C 
ATOM      2  C   UNL     1      45.264   4.189  12.543  0.00  0.00    +0.000 C 
ATOM      3  C   UNL     1      45.635   5.186  11.444  0.00  0.00    +0.000 C 
ATOM      4  C   UNL     1      44.844   6.502  11.543  0.00  0.00    +0.000 C 
ATOM      5  C   UNL     1      43.332   6.198  11.577  0.00  0.00    +0.000 C 
ATOM      6  C   UNL     1      42.946   5.172  12.649  0.00  0.00    +0.000 C 
ENDROOT
BRANCH   1   7
ATOM      7  C   UNL     1      43.313   3.018  11.352  0.00  0.00    +0.000 C 
BRANCH   7   8
ATOM      8  N   UNL     1      42.959   1.660  11.755  0.00  0.00    +0.000 NA
ATOM      9  H   UNL     1      41.949   1.581  11.846  0.00  0.00    +0.000 HD
ATOM     10  H   UNL     1      43.347   1.462  12.676  0.00  0.00    +0.000 HD
ENDBRANCH   7   8
ENDBRANCH   1   7
BRANCH   4  11
ATOM     11  C   UNL     1      45.253   7.373  12.748  0.00  0.00    +0.000 C 
BRANCH  11  12
ATOM     12  N   UNL     1      46.125   8.494  12.425  0.00  0.00    +0.000 N 
ATOM     13  C   UNL     1      45.681   9.776  12.205  0.00  0.00    +0.000 A 
ATOM     14  C   UNL     1      46.748  10.531  11.778  0.00  0.00    +0.000 A 
ATOM     15  C   UNL     1      47.894   9.691  11.773  0.00  0.00    +0.000 A 
ATOM     16  C   UNL     1      49.249   9.904  11.447  0.00  0.00    +0.000 A 
ATOM     17  C   UNL     1      50.159   8.849  11.570  0.00  0.00    +0.000 A 
ATOM     18  C   UNL     1      49.734   7.595  11.998  0.00  0.00    +0.000 A 
ATOM     19  C   UNL     1      48.392   7.355  12.311  0.00  0.00    +0.000 A 
ATOM     20  C   UNL     1      47.486   8.422  12.194  0.00  0.00    +0.000 A 
ENDBRANCH  11  12
ENDBRANCH   4  11
TORSDOF 4
ENDMDL
MODEL 4
REMARK VINA RESULT:    -5.439      2.115      6.257
REMARK INTER + INTRA:          -7.256
REMARK INTER:                  -6.916
REMARK INTRA:                  -0.340
REMARK UNBOUND:                -0.704
REMARK  Name = 
REMARK  4 active torsions:
REMARK  status: ('A' for Active; 'I' for Inactive)
REMARK    1  A    between atoms: N_1  and  C_2
REMARK    2  A    between atoms: C_2  and  C_3
REMARK    3  A    between atoms: C_6  and  C_7
REMARK    4  A    between atoms: C_7  and  N_8
REMARK                            x       y       z     vdW  Elec       q    Type
REMARK                         _______ _______ _______ _____ _____    ______ ____
ROOT
ATOM      1  C   UNL     1      44.844   3.713  11.188  0.00  0.00    +0.000 C 
ATOM      2  C   UNL     1      45.167   4.989  10.391  0.00  0.00    +0.000 C 
ATOM      3  C   UNL     1      44.821   6.262  11.165  0.00  0.00    +0.000 C 
ATOM      4  C   UNL     1      45.521   6.335  12.533  0.00  0.00    +0.000 C 
ATOM      5  C   UNL     1      45.222   5.055  13.339  0.00  0.00    +0.000 C 
ATOM      6  C   UNL     1      45.528   3.767  12.565  0.00  0.00    +0.000 C 
ENDROOT
BRANCH   1   7
ATOM      7  C   UNL     1      43.329   3.461  11.329  0.00  0.00    +0.000 C 
BRANCH   7   8
ATOM      8  N   UNL     1      43.052   2.096  11.768  0.00  0.00    +0.000 NA
ATOM      9  H   UNL     1      43.890   1.527  11.668  0.00  0.00    +0.000 HD
ATOM     10  H   UNL     1      42.346   1.676  11.165  0.00  0.00    +0.000 HD
ENDBRANCH   7   8
ENDBRANCH   1   7
BRANCH   4  11
ATOM     11  C   UNL     1      47.042   6.572  12.430  0.00  0.00    +0.000 C 
BRANCH  11  12
ATOM     12  N   UNL     1      47.434   7.965  12.261  0.00  0.00    +0.000 N 
ATOM     13  C   UNL     1      46.574   9.028  12.394  0.00  0.00    +0.000 A 
ATOM     14  C   UNL     1      47.242  10.169  12.017  0.00  0.00    +0.000 A 
ATOM     15  C   UNL     1      48.571   9.796  11.678  0.00  0.00    +0.000 A 
ATOM     16  C   UNL     1      49.697  10.521  11.238  0.00  0.00    +0.000 A 
ATOM     17  C   UNL     1      50.899   9.846  11.004  0.00  0.00    +0.000 A 
ATOM     18  C   UNL     1      50.985   8.470  11.188  0.00  0.00    +0.000 A 
ATOM     19  C   UNL     1      49.876   7.726  11.606  0.00  0.00    +0.000 A 
ATOM     20  C   UNL     1      48.675   8.413  11.850  0.00  0.00    +0.000 A 
ENDBRANCH  11  12
ENDBRANCH   4  11
TORSDOF 4
ENDMDL
MODEL 5
REMARK VINA RESULT:    -5.403      2.993      6.719
REMARK INTER + INTRA:          -7.213
REMARK INTER:                  -6.808
REMARK INTRA:                  -0.405
REMARK UNBOUND:                -0.704
REMARK  Name = 
REMARK  4 active torsions:
REMARK  status: ('A' for Active; 'I' for Inactive)
REMARK    1  A    between atoms: N_1  and  C_2
REMARK    2  A    between atoms: C_2  and  C_3
REMARK    3  A    between atoms: C_6  and  C_7
REMARK    4  A    between atoms: C_7  and  N_8
REMARK                            x       y       z     vdW  Elec       q    Type
REMARK                         _______ _______ _______ _____ _____    ______ ____
ROOT
ATOM      1  C   UNL     1      44.992   4.385  10.850  0.00  0.00    +0.000 C 
ATOM      2  C   UNL     1      45.816   5.670  10.650  0.00  0.00    +0.000 C 
ATOM      3  C   UNL     1      45.649   6.655  11.808  0.00  0.00    +0.000 C 
ATOM      4  C   UNL     1      46.008   6.037  13.170  0.00  0.00    +0.000 C 
ATOM      5  C   UNL     1      45.204   4.738  13.380  0.00  0.00    +0.000 C 
ATOM      6  C   UNL     1      45.330   3.753  12.213  0.00  0.00    +0.000 C 
ENDROOT
BRANCH   1   7
ATOM      7  C   UNL     1      43.474   4.616  10.705  0.00  0.00    +0.000 C 
BRANCH   7   8
ATOM      8  N   UNL     1      42.708   3.551  11.346  0.00  0.00    +0.000 NA
ATOM      9  H   UNL     1      42.487   3.817  12.304  0.00  0.00    +0.000 HD
ATOM     10  H   UNL     1      43.273   2.706  11.406  0.00  0.00    +0.000 HD
ENDBRANCH   7   8
ENDBRANCH   1   7
BRANCH   4  11
ATOM     11  C   UNL     1      47.518   5.778  13.346  0.00  0.00    +0.000 C 
BRANCH  11  12
ATOM     12  N   UNL     1      48.036   6.060  14.679  0.00  0.00    +0.000 N 
ATOM     13  C   UNL     1      48.729   7.199  15.009  0.00  0.00    +0.000 A 
ATOM     14  C   UNL     1      49.193   7.060  16.296  0.00  0.00    +0.000 A 
ATOM     15  C   UNL     1      48.734   5.808  16.785  0.00  0.00    +0.000 A 
ATOM     16  C   UNL     1      48.880   5.136  18.015  0.00  0.00    +0.000 A 
ATOM     17  C   UNL     1      48.272   3.889  18.194  0.00  0.00    +0.000 A 
ATOM     18  C   UNL     1      47.539   3.306  17.165  0.00  0.00    +0.000 A 
ATOM     19  C   UNL     1      47.394   3.945  15.929  0.00  0.00    +0.000 A 
ATOM     20  C   UNL     1      48.000   5.202  15.761  0.00  0.00    +0.000 A 
ENDBRANCH  11  12
ENDBRANCH   4  11
TORSDOF 4
ENDMDL
MODEL 6
REMARK VINA RESULT:    -5.224      1.183      2.016
REMARK INTER + INTRA:          -6.997
REMARK INTER:                  -6.487
REMARK INTRA:                  -0.509
REMARK UNBOUND:                -0.704
REMARK  Name = 
REMARK  4 active torsions:
REMARK  status: ('A' for Active; 'I' for Inactive)
REMARK    1  A    between atoms: N_1  and  C_2
REMARK    2  A    between atoms: C_2  and  C_3
REMARK    3  A    between atoms: C_6  and  C_7
REMARK    4  A    between atoms: C_7  and  N_8
REMARK                            x       y       z     vdW  Elec       q    Type
REMARK                         _______ _______ _______ _____ _____    ______ ____
ROOT
ATOM      1  C   UNL     1      48.692   8.002  14.338  0.00  0.00    +0.000 C 
ATOM      2  C   UNL     1      48.174   8.952  13.243  0.00  0.00    +0.000 C 
ATOM      3  C   UNL     1      48.231   8.323  11.851  0.00  0.00    +0.000 C 
ATOM      4  C   UNL     1      47.459   6.995  11.767  0.00  0.00    +0.000 C 
ATOM      5  C   UNL     1      47.953   6.036  12.869  0.00  0.00    +0.000 C 
ATOM      6  C   UNL     1      47.938   6.662  14.268  0.00  0.00    +0.000 C 
ENDROOT
BRANCH   1   7
ATOM      7  C   UNL     1      50.217   7.785  14.273  0.00  0.00    +0.000 C 
BRANCH   7   8
ATOM      8  N   UNL     1      50.807   7.730  15.608  0.00  0.00    +0.000 NA
ATOM      9  H   UNL     1      51.431   6.929  15.675  0.00  0.00    +0.000 HD
ATOM     10  H   UNL     1      50.076   7.584  16.302  0.00  0.00    +0.000 HD
ENDBRANCH   7   8
ENDBRANCH   1   7
BRANCH   4  11
ATOM     11  C   UNL     1      45.929   7.171  11.844  0.00  0.00    +0.000 C 
BRANCH  11  12
ATOM     12  N   UNL     1      45.165   5.932  11.763  0.00  0.00    +0.000 N 
ATOM     13  C   UNL     1      44.465   5.391  12.813  0.00  0.00    +0.000 A 
ATOM     14  C   UNL     1      43.999   4.156  12.426  0.00  0.00    +0.000 A 
ATOM     15  C   UNL     1      44.396   3.951  11.077  0.00  0.00    +0.000 A 
ATOM     16  C   UNL     1      44.204   2.897  10.161  0.00  0.00    +0.000 A 
ATOM     17  C   UNL     1      44.717   3.012   8.865  0.00  0.00    +0.000 A 
ATOM     18  C   UNL     1      45.423   4.148   8.482  0.00  0.00    +0.000 A 
ATOM     19  C   UNL     1      45.642   5.200   9.379  0.00  0.00    +0.000 A 
ATOM     20  C   UNL     1      45.115   5.081  10.676  0.00  0.00    +0.000 A 
ENDBRANCH  11  12
ENDBRANCH   4  11
TORSDOF 4
ENDMDL
MODEL 7
REMARK VINA RESULT:    -5.025      2.404      6.139
REMARK INTER + INTRA:          -6.757
REMARK INTER:                  -6.425
REMARK INTRA:                  -0.332
REMARK UNBOUND:                -0.704
REMARK  Name = 
REMARK  4 active torsions:
REMARK  status: ('A' for Active; 'I' for Inactive)
REMARK    1  A    between atoms: N_1  and  C_2
REMARK    2  A    between atoms: C_2  and  C_3
REMARK    3  A    between atoms: C_6  and  C_7
REMARK    4  A    between atoms: C_7  and  N_8
REMARK                            x       y       z     vdW  Elec       q    Type
REMARK                         _______ _______ _______ _____ _____    ______ ____
ROOT
ATOM      1  C   UNL     1      44.237   3.103   9.432  0.00  0.00    +0.000 C 
ATOM      2  C   UNL     1      43.913   3.232  10.931  0.00  0.00    +0.000 C 
ATOM      3  C   UNL     1      45.055   3.876  11.720  0.00  0.00    +0.000 C 
ATOM      4  C   UNL     1      45.449   5.258  11.173  0.00  0.00    +0.000 C 
ATOM      5  C   UNL     1      45.760   5.151   9.666  0.00  0.00    +0.000 C 
ATOM      6  C   UNL     1      44.642   4.474   8.864  0.00  0.00    +0.000 C 
ENDROOT
BRANCH   1   7
ATOM      7  C   UNL     1      45.314   2.039   9.139  0.00  0.00    +0.000 C 
BRANCH   7   8
ATOM      8  N   UNL     1      46.039   2.337   7.907  0.00  0.00    +0.000 NA
ATOM      9  H   UNL     1      45.387   2.379   7.127  0.00  0.00    +0.000 HD
ATOM     10  H   UNL     1      46.689   1.581   7.697  0.00  0.00    +0.000 HD
ENDBRANCH   7   8
ENDBRANCH   1   7
BRANCH   4  11
ATOM     11  C   UNL     1      44.388   6.346  11.434  0.00  0.00    +0.000 C 
BRANCH  11  12
ATOM     12  N   UNL     1      44.923   7.684  11.651  0.00  0.00    +0.000 N 
ATOM     13  C   UNL     1      46.079   7.946  12.346  0.00  0.00    +0.000 A 
ATOM     14  C   UNL     1      46.195   9.310  12.483  0.00  0.00    +0.000 A 
ATOM     15  C   UNL     1      45.092   9.904  11.814  0.00  0.00    +0.000 A 
ATOM     16  C   UNL     1      44.688  11.240  11.611  0.00  0.00    +0.000 A 
ATOM     17  C   UNL     1      43.531  11.502  10.871  0.00  0.00    +0.000 A 
ATOM     18  C   UNL     1      42.773  10.458  10.349  0.00  0.00    +0.000 A 
ATOM     19  C   UNL     1      43.143   9.124  10.553  0.00  0.00    +0.000 A 
ATOM     20  C   UNL     1      44.313   8.869  11.288  0.00  0.00    +0.000 A 
ENDBRANCH  11  12
ENDBRANCH   4  11
TORSDOF 4
ENDMDL
MODEL 8
REMARK VINA RESULT:    -4.916      3.845      5.426
REMARK INTER + INTRA:          -6.626
REMARK INTER:                  -6.193
REMARK INTRA:                  -0.433
REMARK UNBOUND:                -0.704
REMARK  Name = 
REMARK  4 active torsions:
REMARK  status: ('A' for Active; 'I' for Inactive)
REMARK    1  A    between atoms: N_1  and  C_2
REMARK    2  A    between atoms: C_2  and  C_3
REMARK    3  A    between atoms: C_6  and  C_7
REMARK    4  A    between atoms: C_7  and  N_8
REMARK                            x       y       z     vdW  Elec       q    Type
REMARK                         _______ _______ _______ _____ _____    ______ ____
ROOT
ATOM      1  C   UNL     1      49.411   4.008  18.071  0.00  0.00    +0.000 C 
ATOM      2  C   UNL     1      48.325   3.025  17.600  0.00  0.00    +0.000 C 
ATOM      3  C   UNL     1      47.008   3.727  17.268  0.00  0.00    +0.000 C 
ATOM      4  C   UNL     1      47.174   4.833  16.211  0.00  0.00    +0.000 C 
ATOM      5  C   UNL     1      48.272   5.819  16.659  0.00  0.00    +0.000 C 
ATOM      6  C   UNL     1      49.589   5.129  17.031  0.00  0.00    +0.000 C 
ENDROOT
BRANCH   1   7
ATOM      7  C   UNL     1      49.130   4.588  19.472  0.00  0.00    +0.000 C 
BRANCH   7   8
ATOM      8  N   UNL     1      48.584   3.575  20.371  0.00  0.00    +0.000 NA
ATOM      9  H   UNL     1      49.333   3.170  20.927  0.00  0.00    +0.000 HD
ATOM     10  H   UNL     1      48.184   2.811  19.828  0.00  0.00    +0.000 HD
ENDBRANCH   7   8
ENDBRANCH   1   7
BRANCH   4  11
ATOM     11  C   UNL     1      47.472   4.290  14.799  0.00  0.00    +0.000 C 
BRANCH  11  12
ATOM     12  N   UNL     1      47.076   5.173  13.708  0.00  0.00    +0.000 N 
ATOM     13  C   UNL     1      47.907   6.103  13.132  0.00  0.00    +0.000 A 
ATOM     14  C   UNL     1      47.164   6.854  12.252  0.00  0.00    +0.000 A 
ATOM     15  C   UNL     1      45.840   6.339  12.261  0.00  0.00    +0.000 A 
ATOM     16  C   UNL     1      44.661   6.688  11.570  0.00  0.00    +0.000 A 
ATOM     17  C   UNL     1      43.492   5.952  11.792  0.00  0.00    +0.000 A 
ATOM     18  C   UNL     1      43.484   4.894  12.696  0.00  0.00    +0.000 A 
ATOM     19  C   UNL     1      44.636   4.542  13.407  0.00  0.00    +0.000 A 
ATOM     20  C   UNL     1      45.808   5.278  13.170  0.00  0.00    +0.000 A 
ENDBRANCH  11  12
ENDBRANCH   4  11
TORSDOF 4
ENDMDL
MODEL 9
REMARK VINA RESULT:    -4.850      1.848      5.884
REMARK INTER + INTRA:          -6.547
REMARK INTER:                  -6.314
REMARK INTRA:                  -0.233
REMARK UNBOUND:                -0.704
REMARK  Name = 
REMARK  4 active torsions:
REMARK  status: ('A' for Active; 'I' for Inactive)
REMARK    1  A    between atoms: N_1  and  C_2
REMARK    2  A    between atoms: C_2  and  C_3
REMARK    3  A    between atoms: C_6  and  C_7
REMARK    4  A    between atoms: C_7  and  N_8
REMARK                            x       y       z     vdW  Elec       q    Type
REMARK                         _______ _______ _______ _____ _____    ______ ____
ROOT
ATOM      1  C   UNL     1      44.431   2.888   9.122  0.00  0.00    +0.000 C 
ATOM      2  C   UNL     1      43.994   2.811  10.596  0.00  0.00    +0.000 C 
ATOM      3  C   UNL     1      44.987   3.497  11.535  0.00  0.00    +0.000 C 
ATOM      4  C   UNL     1      45.237   4.969  11.163  0.00  0.00    +0.000 C 
ATOM      5  C   UNL     1      45.660   5.067   9.683  0.00  0.00    +0.000 C 
ATOM      6  C   UNL     1      44.695   4.353   8.730  0.00  0.00    +0.000 C 
ENDROOT
BRANCH   1   7
ATOM      7  C   UNL     1      45.654   2.000   8.812  0.00  0.00    +0.000 C 
BRANCH   7   8
ATOM      8  N   UNL     1      46.282   2.378   7.549  0.00  0.00    +0.000 NA
ATOM      9  H   UNL     1      46.909   3.166   7.700  0.00  0.00    +0.000 HD
ATOM     10  H   UNL     1      45.572   2.698   6.892  0.00  0.00    +0.000 HD
ENDBRANCH   7   8
ENDBRANCH   1   7
BRANCH   4  11
ATOM     11  C   UNL     1      44.029   5.885  11.446  0.00  0.00    +0.000 C 
BRANCH  11  12
ATOM     12  N   UNL     1      44.342   7.307  11.515  0.00  0.00    +0.000 N 
ATOM     13  C   UNL     1      43.597   8.289  10.910  0.00  0.00    +0.000 A 
ATOM     14  C   UNL     1      44.264   9.483  11.054  0.00  0.00    +0.000 A 
ATOM     15  C   UNL     1      45.441   9.229  11.808  0.00  0.00    +0.000 A 
ATOM     16  C   UNL     1      46.491  10.048  12.270  0.00  0.00    +0.000 A 
ATOM     17  C   UNL     1      47.522   9.483  13.026  0.00  0.00    +0.000 A 
ATOM     18  C   UNL     1      47.524   8.121  13.311  0.00  0.00    +0.000 A 
ATOM     19  C   UNL     1      46.503   7.283  12.849  0.00  0.00    +0.000 A 
ATOM     20  C   UNL     1      45.465   7.861  12.099  0.00  0.00    +0.000 A 
ENDBRANCH  11  12
ENDBRANCH   4  11
TORSDOF 4
ENDMDL
