MODEL 1
REMARK VINA RESULT:    -7.402      0.000      0.000
REMARK INTER + INTRA:         -10.298
REMARK INTER:                  -9.566
REMARK INTRA:                  -0.732
REMARK UNBOUND:                -0.732
REMARK  Name = 
REMARK  5 active torsions:
REMARK  status: ('A' for Active; 'I' for Inactive)
REMARK    1  A    between atoms: C_3  and  C_4
REMARK    2  A    between atoms: C_4  and  C_5
REMARK    3  A    between atoms: C_5  and  N_6
REMARK    4  A    between atoms: N_6  and  C_7
REMARK    5  A    between atoms: C_14  and  N_15
REMARK                            x       y       z     vdW  Elec       q    Type
REMARK                         _______ _______ _______ _____ _____    ______ ____
ROOT
ATOM      1  C   UNL     1      46.321   4.281  13.630  0.00  0.00    +0.000 A 
ATOM      2  C   UNL     1      45.315   4.019  12.709  0.00  0.00    +0.000 A 
ATOM      3  C   UNL     1      45.110   4.869  11.612  0.00  0.00    +0.000 A 
ATOM      4  C   UNL     1      45.947   5.995  11.472  0.00  0.00    +0.000 A 
ATOM      5  C   UNL     1      46.955   6.295  12.402  0.00  0.00    +0.000 A 
ATOM      6  C   UNL     1      47.126   5.402  13.472  0.00  0.00    +0.000 A 
ENDROOT
BRANCH   5   7
ATOM      7  N   UNL     1      47.803   7.388  12.294  0.00  0.00    +0.000 N 
ATOM      8  C   UNL     1      47.371   8.738  12.653  0.00  0.00    +0.000 C 
ATOM      9  C   UNL     1      48.094   9.729  11.734  0.00  0.00    +0.000 C 
ATOM     10  C   UNL     1      49.612   9.533  11.752  0.00  0.00    +0.000 C 
ATOM     11  C   UNL     1      49.995   8.074  11.510  0.00  0.00    +0.000 C 
ATOM     12  C   UNL     1      49.241   7.146  12.459  0.00  0.00    +0.000 C 
ENDBRANCH   5   7
BRANCH   3  13
ATOM     13  C   UNL     1      44.022   4.628  10.578  0.00  0.00    +0.000 C 
BRANCH  13  14
ATOM     14  C   UNL     1      44.266   3.404   9.686  0.00  0.00    +0.000 C 
BRANCH  14  15
ATOM     15  N   UNL     1      44.823   3.757   8.378  0.00  0.00    +0.000 N 
ATOM     16  H   UNL     1      45.105   4.734   8.331  0.00  0.00    +0.000 HD
BRANCH  15  17
ATOM     17  C   UNL     1      45.858   2.913   7.919  0.00  0.00    +0.000 A 
ATOM     18  C   UNL     1      45.932   1.551   8.228  0.00  0.00    +0.000 A 
ATOM     19  C   UNL     1      46.962   0.785   7.701  0.00  0.00    +0.000 A 
ATOM     20  N   UNL     1      47.902   1.268   6.868  0.00  0.00    +0.000 NA
ATOM     21  C   UNL     1      47.785   2.569   6.530  0.00  0.00    +0.000 A 
ATOM     22  C   UNL     1      46.790   3.411   7.007  0.00  0.00    +0.000 A 
ENDBRANCH  15  17
ENDBRANCH  14  15
ENDBRANCH  13  14
ENDBRANCH   3  13
TORSDOF 5
ENDMDL
MODEL 2
REMARK VINA RESULT:    -7.280      2.015      6.843
REMARK INTER + INTRA:         -10.140
REMARK INTER:                  -9.272
REMARK INTRA:                  -0.868
REMARK UNBOUND:                -0.732
REMARK  Name = 
REMARK  5 active torsions:
REMARK  status: ('A' for Active; 'I' for Inactive)
REMARK    1  A    between atoms: C_3  and  C_4
REMARK    2  A    between atoms: C_4  and  C_5
REMARK    3  A    between atoms: C_5  and  N_6
REMARK    4  A    between atoms: N_6  and  C_7
REMARK    5  A    between atoms: C_14  and  N_15
REMARK                            x       y       z     vdW  Elec       q    Type
REMARK                         _______ _______ _______ _____ _____    ______ ____
ROOT
ATOM      1  C   UNL     1      43.487   3.111  11.615  0.00  0.00    +0.000 A 
ATOM      2  C   UNL     1      43.615   4.461  11.915  0.00  0.00    +0.000 A 
ATOM      3  C   UNL     1      44.391   5.304  11.106  0.00  0.00    +0.000 A 
ATOM      4  C   UNL     1      45.039   4.746   9.985  0.00  0.00    +0.000 A 
ATOM      5  C   UNL     1      44.944   3.380   9.674  0.00  0.00    +0.000 A 
ATOM      6  C   UNL     1      44.142   2.586  10.509  0.00  0.00    +0.000 A 
ENDROOT
BRANCH   5   7
ATOM      7  N   UNL     1      45.560   2.795   8.576  0.00  0.00    +0.000 N 
ATOM      8  C   UNL     1      45.620   1.344   8.407  0.00  0.00    +0.000 C 
ATOM      9  C   UNL     1      46.930   1.002   7.688  0.00  0.00    +0.000 C 
ATOM     10  C   UNL     1      47.098   1.790   6.387  0.00  0.00    +0.000 C 
ATOM     11  C   UNL     1      46.885   3.288   6.604  0.00  0.00    +0.000 C 
ATOM     12  C   UNL     1      45.564   3.554   7.320  0.00  0.00    +0.000 C 
ENDBRANCH   5   7
BRANCH   3  13
ATOM     13  C   UNL     1      44.565   6.787  11.392  0.00  0.00    +0.000 C 
BRANCH  13  14
ATOM     14  C   UNL     1      45.561   7.095  12.517  0.00  0.00    +0.000 C 
BRANCH  14  15
ATOM     15  N   UNL     1      46.779   6.286  12.434  0.00  0.00    +0.000 N 
ATOM     16  H   UNL     1      47.504   6.738  11.880  0.00  0.00    +0.000 HD
BRANCH  15  17
ATOM     17  C   UNL     1      47.294   5.847  13.674  0.00  0.00    +0.000 A 
ATOM     18  C   UNL     1      48.212   6.585  14.428  0.00  0.00    +0.000 A 
ATOM     19  C   UNL     1      48.636   6.098  15.655  0.00  0.00    +0.000 A 
ATOM     20  N   UNL     1      48.191   4.950  16.199  0.00  0.00    +0.000 NA
ATOM     21  C   UNL     1      47.261   4.278  15.489  0.00  0.00    +0.000 A 
ATOM     22  C   UNL     1      46.778   4.687  14.253  0.00  0.00    +0.000 A 
ENDBRANCH  15  17
ENDBRANCH  14  15
ENDBRANCH  13  14
ENDBRANCH   3  13
TORSDOF 5
ENDMDL
MODEL 3
REMARK VINA RESULT:    -6.990      2.079      3.538
REMARK INTER + INTRA:          -9.765
REMARK INTER:                  -8.973
REMARK INTRA:                  -0.792
REMARK UNBOUND:                -0.732
REMARK  Name = 
REMARK  5 active torsions:
REMARK  status: ('A' for Active; 'I' for Inactive)
REMARK    1  A    between atoms: C_3  and  C_4
REMARK    2  A    between atoms: C_4  and  C_5
REMARK    3  A    between atoms: C_5  and  N_6
REMARK    4  A    between atoms: N_6  and  C_7
REMARK    5  A    between atoms: C_14  and  N_15
REMARK                            x       y       z     vdW  Elec       q    Type
REMARK                         _______ _______ _______ _____ _____    ______ ____
ROOT
ATOM      1  C   UNL     1      46.758   6.490  11.796  0.00  0.00    +0.000 A 
ATOM      2  C   UNL     1      45.792   5.599  11.348  0.00  0.00    +0.000 A 
ATOM      3  C   UNL     1      45.405   4.506  12.138  0.00  0.00    +0.000 A 
ATOM      4  C   UNL     1      46.026   4.334  13.393  0.00  0.00    +0.000 A 
ATOM      5  C   UNL     1      47.022   5.207  13.857  0.00  0.00    +0.000 A 
ATOM      6  C   UNL     1      47.358   6.293  13.033  0.00  0.00    +0.000 A 
ENDROOT
BRANCH   5   7
ATOM      7  N   UNL     1      47.650   5.076  15.088  0.00  0.00    +0.000 N 
ATOM      8  C   UNL     1      48.275   6.214  15.761  0.00  0.00    +0.000 C 
ATOM      9  C   UNL     1      49.484   5.697  16.548  0.00  0.00    +0.000 C 
ATOM     10  C   UNL     1      49.113   4.544  17.484  0.00  0.00    +0.000 C 
ATOM     11  C   UNL     1      48.339   3.449  16.751  0.00  0.00    +0.000 C 
ATOM     12  C   UNL     1      47.150   4.034  15.993  0.00  0.00    +0.000 C 
ENDBRANCH   5   7
BRANCH   3  13
ATOM     13  C   UNL     1      44.355   3.501  11.694  0.00  0.00    +0.000 C 
BRANCH  13  14
ATOM     14  C   UNL     1      44.222   3.365  10.172  0.00  0.00    +0.000 C 
BRANCH  14  15
ATOM     15  N   UNL     1      44.836   2.139   9.655  0.00  0.00    +0.000 N 
ATOM     16  H   UNL     1      44.150   1.402   9.499  0.00  0.00    +0.000 HD
BRANCH  15  17
ATOM     17  C   UNL     1      45.657   2.310   8.520  0.00  0.00    +0.000 A 
ATOM     18  C   UNL     1      45.915   3.557   7.940  0.00  0.00    +0.000 A 
ATOM     19  C   UNL     1      46.767   3.641   6.849  0.00  0.00    +0.000 A 
ATOM     20  N   UNL     1      47.402   2.582   6.314  0.00  0.00    +0.000 NA
ATOM     21  C   UNL     1      47.193   1.394   6.919  0.00  0.00    +0.000 A 
ATOM     22  C   UNL     1      46.358   1.215   8.014  0.00  0.00    +0.000 A 
ENDBRANCH  15  17
ENDBRANCH  14  15
ENDBRANCH  13  14
ENDBRANCH   3  13
TORSDOF 5
ENDMDL
MODEL 4
REMARK VINA RESULT:    -6.848      0.835      1.553
REMARK INTER + INTRA:          -9.581
REMARK INTER:                  -8.895
REMARK INTRA:                  -0.686
REMARK UNBOUND:                -0.732
REMARK  Name = 
REMARK  5 active torsions:
REMARK  status: ('A' for Active; 'I' for Inactive)
REMARK    1  A    between atoms: C_3  and  C_4
REMARK    2  A    between atoms: C_4  and  C_5
REMARK    3  A    between atoms: C_5  and  N_6
REMARK    4  A    between atoms: N_6  and  C_7
REMARK    5  A    between atoms: C_14  and  N_15
REMARK                            x       y       z     vdW  Elec       q    Type
REMARK                         _______ _______ _______ _____ _____    ______ ____
ROOT
ATOM      1  C   UNL     1      46.417   4.222  13.756  0.00  0.00    +0.000 A 
ATOM      2  C   UNL     1      45.546   4.068  12.685  0.00  0.00    +0.000 A 
ATOM      3  C   UNL     1      45.515   5.012  11.647  0.00  0.00    +0.000 A 
ATOM      4  C   UNL     1      46.385   6.119  11.722  0.00  0.00    +0.000 A 
ATOM      5  C   UNL     1      47.257   6.309  12.807  0.00  0.00    +0.000 A 
ATOM      6  C   UNL     1      47.257   5.326  13.809  0.00  0.00    +0.000 A 
ENDROOT
BRANCH   5   7
ATOM      7  N   UNL     1      48.133   7.380  12.913  0.00  0.00    +0.000 N 
ATOM      8  C   UNL     1      49.292   7.344  13.804  0.00  0.00    +0.000 C 
ATOM      9  C   UNL     1      49.540   8.765  14.320  0.00  0.00    +0.000 C 
ATOM     10  C   UNL     1      49.659   9.781  13.181  0.00  0.00    +0.000 C 
ATOM     11  C   UNL     1      48.488   9.674  12.206  0.00  0.00    +0.000 C 
ATOM     12  C   UNL     1      48.300   8.235  11.732  0.00  0.00    +0.000 C 
ENDBRANCH   5   7
BRANCH   3  13
ATOM     13  C   UNL     1      44.581   4.892  10.454  0.00  0.00    +0.000 C 
BRANCH  13  14
ATOM     14  C   UNL     1      44.521   3.486   9.844  0.00  0.00    +0.000 C 
BRANCH  14  15
ATOM     15  N   UNL     1      44.593   3.498   8.381  0.00  0.00    +0.000 N 
ATOM     16  H   UNL     1      44.526   4.441   8.001  0.00  0.00    +0.000 HD
BRANCH  15  17
ATOM     17  C   UNL     1      45.695   2.811   7.828  0.00  0.00    +0.000 A 
ATOM     18  C   UNL     1      46.692   3.439   7.074  0.00  0.00    +0.000 A 
ATOM     19  C   UNL     1      47.763   2.695   6.602  0.00  0.00    +0.000 A 
ATOM     20  N   UNL     1      47.929   1.382   6.850  0.00  0.00    +0.000 NA
ATOM     21  C   UNL     1      46.992   0.801   7.628  0.00  0.00    +0.000 A 
ATOM     22  C   UNL     1      45.888   1.465   8.144  0.00  0.00    +0.000 A 
ENDBRANCH  15  17
ENDBRANCH  14  15
ENDBRANCH  13  14
ENDBRANCH   3  13
TORSDOF 5
ENDMDL
MODEL 5
REMARK VINA RESULT:    -6.612      3.089      7.484
REMARK INTER + INTRA:          -9.277
REMARK INTER:                  -8.739
REMARK INTRA:                  -0.537
REMARK UNBOUND:                -0.732
REMARK  Name = 
REMARK  5 active torsions:
REMARK  status: ('A' for Active; 'I' for Inactive)
REMARK    1  A    between atoms: C_3  and  C_4
REMARK    2  A    between atoms: C_4  and  C_5
REMARK    3  A    between atoms: C_5  and  N_6
REMARK    4  A    between atoms: N_6  and  C_7
REMARK    5  A    between atoms: C_14  and  N_15
REMARK                            x       y       z     vdW  Elec       q    Type
REMARK                         _______ _______ _______ _____ _____    ______ ____
ROOT
ATOM      1  C   UNL     1      42.944   5.160  11.755  0.00  0.00    +0.000 A 
ATOM      2  C   UNL     1      43.804   5.489  12.795  0.00  0.00    +0.000 A 
ATOM      3  C   UNL     1      45.168   5.171  12.725  0.00  0.00    +0.000 A 
ATOM      4  C   UNL     1      45.641   4.505  11.575  0.00  0.00    +0.000 A 
ATOM      5  C   UNL     1      44.788   4.141  10.521  0.00  0.00    +0.000 A 
ATOM      6  C   UNL     1      43.435   4.498  10.638  0.00  0.00    +0.000 A 
ENDROOT
BRANCH   5   7
ATOM      7  N   UNL     1      45.217   3.493   9.371  0.00  0.00    +0.000 N 
ATOM      8  C   UNL     1      44.855   2.105   9.086  0.00  0.00    +0.000 C 
ATOM      9  C   UNL     1      46.015   1.457   8.322  0.00  0.00    +0.000 C 
ATOM     10  C   UNL     1      46.415   2.265   7.085  0.00  0.00    +0.000 C 
ATOM     11  C   UNL     1      46.644   3.738   7.424  0.00  0.00    +0.000 C 
ATOM     12  C   UNL     1      45.451   4.317   8.179  0.00  0.00    +0.000 C 
ENDBRANCH   5   7
BRANCH   3  13
ATOM     13  C   UNL     1      46.150   5.506  13.835  0.00  0.00    +0.000 C 
BRANCH  13  14
ATOM     14  C   UNL     1      46.860   4.286  14.434  0.00  0.00    +0.000 C 
BRANCH  14  15
ATOM     15  N   UNL     1      46.727   4.208  15.890  0.00  0.00    +0.000 N 
ATOM     16  H   UNL     1      46.001   3.553  16.175  0.00  0.00    +0.000 HD
BRANCH  15  17
ATOM     17  C   UNL     1      47.928   3.964  16.591  0.00  0.00    +0.000 A 
ATOM     18  C   UNL     1      48.476   4.864  17.512  0.00  0.00    +0.000 A 
ATOM     19  C   UNL     1      49.639   4.527  18.187  0.00  0.00    +0.000 A 
ATOM     20  N   UNL     1      50.278   3.352  18.037  0.00  0.00    +0.000 NA
ATOM     21  C   UNL     1      49.707   2.468  17.192  0.00  0.00    +0.000 A 
ATOM     22  C   UNL     1      48.545   2.719  16.473  0.00  0.00    +0.000 A 
ENDBRANCH  15  17
ENDBRANCH  14  15
ENDBRANCH  13  14
ENDBRANCH   3  13
TORSDOF 5
ENDMDL
MODEL 6
REMARK VINA RESULT:    -6.443      1.766      2.805
REMARK INTER + INTRA:          -9.058
REMARK INTER:                  -8.141
REMARK INTRA:                  -0.917
REMARK UNBOUND:                -0.732
REMARK  Name = 
REMARK  5 active torsions:
REMARK  status: ('A' for Active; 'I' for Inactive)
REMARK    1  A    between atoms: C_3  and  C_4
REMARK    2  A    between atoms: C_4  and  C_5
REMARK    3  A    between atoms: C_5  and  N_6
REMARK    4  A    between atoms: N_6  and  C_7
REMARK    5  A    between atoms: C_14  and  N_15
REMARK                            x       y       z     vdW  Elec       q    Type
REMARK                         _______ _______ _______ _____ _____    ______ ____
ROOT
ATOM      1  C   UNL     1      44.774   7.597  11.742  0.00  0.00    +0.000 A 
ATOM      2  C   UNL     1      43.992   6.453  11.839  0.00  0.00    +0.000 A 
ATOM      3  C   UNL     1      44.432   5.347  12.582  0.00  0.00    +0.000 A 
ATOM      4  C   UNL     1      45.687   5.425  13.220  0.00  0.00    +0.000 A 
ATOM      5  C   UNL     1      46.506   6.561  13.116  0.00  0.00    +0.000 A 
ATOM      6  C   UNL     1      46.009   7.645  12.374  0.00  0.00    +0.000 A 
ENDROOT
BRANCH   5   7
ATOM      7  N   UNL     1      47.742   6.679  13.735  0.00  0.00    +0.000 N 
ATOM      8  C   UNL     1      48.037   6.015  15.005  0.00  0.00    +0.000 C 
ATOM      9  C   UNL     1      49.010   6.900  15.790  0.00  0.00    +0.000 C 
ATOM     10  C   UNL     1      50.252   7.261  14.972  0.00  0.00    +0.000 C 
ATOM     11  C   UNL     1      49.880   7.821  13.599  0.00  0.00    +0.000 C 
ATOM     12  C   UNL     1      48.912   6.890  12.874  0.00  0.00    +0.000 C 
ENDBRANCH   5   7
BRANCH   3  13
ATOM     13  C   UNL     1      43.617   4.072  12.718  0.00  0.00    +0.000 C 
BRANCH  13  14
ATOM     14  C   UNL     1      43.284   3.395  11.383  0.00  0.00    +0.000 C 
BRANCH  14  15
ATOM     15  N   UNL     1      44.341   2.488  10.926  0.00  0.00    +0.000 N 
ATOM     16  H   UNL     1      44.028   1.520  10.892  0.00  0.00    +0.000 HD
BRANCH  15  17
ATOM     17  C   UNL     1      44.968   2.857   9.716  0.00  0.00    +0.000 A 
ATOM     18  C   UNL     1      45.165   4.186   9.328  0.00  0.00    +0.000 A 
ATOM     19  C   UNL     1      45.827   4.461   8.141  0.00  0.00    +0.000 A 
ATOM     20  N   UNL     1      46.332   3.512   7.330  0.00  0.00    +0.000 NA
ATOM     21  C   UNL     1      46.187   2.236   7.744  0.00  0.00    +0.000 A 
ATOM     22  C   UNL     1      45.540   1.868   8.916  0.00  0.00    +0.000 A 
ENDBRANCH  15  17
ENDBRANCH  14  15
ENDBRANCH  13  14
ENDBRANCH   3  13
TORSDOF 5
ENDMDL
MODEL 7
REMARK VINA RESULT:    -6.202      1.454      6.839
REMARK INTER + INTRA:          -8.746
REMARK INTER:                  -8.179
REMARK INTRA:                  -0.568
REMARK UNBOUND:                -0.732
REMARK  Name = 
REMARK  5 active torsions:
REMARK  status: ('A' for Active; 'I' for Inactive)
REMARK    1  A    between atoms: C_3  and  C_4
REMARK    2  A    between atoms: C_4  and  C_5
REMARK    3  A    between atoms: C_5  and  N_6
REMARK    4  A    between atoms: N_6  and  C_7
REMARK    5  A    between atoms: C_14  and  N_15
REMARK                            x       y       z     vdW  Elec       q    Type
REMARK                         _______ _______ _______ _____ _____    ______ ____
ROOT
ATOM      1  C   UNL     1      43.397   3.294  12.282  0.00  0.00    +0.000 A 
ATOM      2  C   UNL     1      43.725   4.554  12.766  0.00  0.00    +0.000 A 
ATOM      3  C   UNL     1      44.611   5.383  12.062  0.00  0.00    +0.000 A 
ATOM      4  C   UNL     1      45.161   4.903  10.855  0.00  0.00    +0.000 A 
ATOM      5  C   UNL     1      44.864   3.625  10.357  0.00  0.00    +0.000 A 
ATOM      6  C   UNL     1      43.960   2.844  11.095  0.00  0.00    +0.000 A 
ENDROOT
BRANCH   5   7
ATOM      7  N   UNL     1      45.379   3.120   9.171  0.00  0.00    +0.000 N 
ATOM      8  C   UNL     1      45.218   1.716   8.796  0.00  0.00    +0.000 C 
ATOM      9  C   UNL     1      46.458   1.292   8.000  0.00  0.00    +0.000 C 
ATOM     10  C   UNL     1      46.735   2.226   6.820  0.00  0.00    +0.000 C 
ATOM     11  C   UNL     1      46.751   3.692   7.254  0.00  0.00    +0.000 C 
ATOM     12  C   UNL     1      45.489   4.045   8.037  0.00  0.00    +0.000 C 
ENDBRANCH   5   7
BRANCH   3  13
ATOM     13  C   UNL     1      45.004   6.768  12.549  0.00  0.00    +0.000 C 
BRANCH  13  14
ATOM     14  C   UNL     1      46.492   6.912  12.895  0.00  0.00    +0.000 C 
BRANCH  14  15
ATOM     15  N   UNL     1      47.281   7.464  11.791  0.00  0.00    +0.000 N 
ATOM     16  H   UNL     1      46.715   8.024  11.156  0.00  0.00    +0.000 HD
BRANCH  15  17
ATOM     17  C   UNL     1      48.446   8.162  12.176  0.00  0.00    +0.000 A 
ATOM     18  C   UNL     1      49.519   7.559  12.839  0.00  0.00    +0.000 A 
ATOM     19  C   UNL     1      50.644   8.310  13.145  0.00  0.00    +0.000 A 
ATOM     20  N   UNL     1      50.790   9.606  12.812  0.00  0.00    +0.000 NA
ATOM     21  C   UNL     1      49.774  10.161  12.120  0.00  0.00    +0.000 A 
ATOM     22  C   UNL     1      48.611   9.487  11.771  0.00  0.00    +0.000 A 
ENDBRANCH  15  17
ENDBRANCH  14  15
ENDBRANCH  13  14
ENDBRANCH   3  13
TORSDOF 5
ENDMDL
MODEL 8
REMARK VINA RESULT:    -6.121      1.815      6.785
REMARK INTER + INTRA:          -8.642
REMARK INTER:                  -7.691
REMARK INTRA:                  -0.951
REMARK UNBOUND:                -0.732
REMARK  Name = 
REMARK  5 active torsions:
REMARK  status: ('A' for Active; 'I' for Inactive)
REMARK    1  A    between atoms: C_3  and  C_4
REMARK    2  A    between atoms: C_4  and  C_5
REMARK    3  A    between atoms: C_5  and  N_6
REMARK    4  A    between atoms: N_6  and  C_7
REMARK    5  A    between atoms: C_14  and  N_15
REMARK                            x       y       z     vdW  Elec       q    Type
REMARK                         _______ _______ _______ _____ _____    ______ ____
ROOT
ATOM      1  C   UNL     1      44.848   4.319  13.024  0.00  0.00    +0.000 A 
ATOM      2  C   UNL     1      44.604   5.686  13.031  0.00  0.00    +0.000 A 
ATOM      3  C   UNL     1      44.627   6.423  11.838  0.00  0.00    +0.000 A 
ATOM      4  C   UNL     1      44.909   5.742  10.635  0.00  0.00    +0.000 A 
ATOM      5  C   UNL     1      45.182   4.365  10.606  0.00  0.00    +0.000 A 
ATOM      6  C   UNL     1      45.130   3.675  11.827  0.00  0.00    +0.000 A 
ENDROOT
BRANCH   5   7
ATOM      7  N   UNL     1      45.455   3.658   9.443  0.00  0.00    +0.000 N 
ATOM      8  C   UNL     1      44.978   2.291   9.241  0.00  0.00    +0.000 C 
ATOM      9  C   UNL     1      46.015   1.545   8.394  0.00  0.00    +0.000 C 
ATOM     10  C   UNL     1      46.346   2.290   7.098  0.00  0.00    +0.000 C 
ATOM     11  C   UNL     1      46.701   3.752   7.362  0.00  0.00    +0.000 C 
ATOM     12  C   UNL     1      45.626   4.432   8.207  0.00  0.00    +0.000 C 
ENDBRANCH   5   7
BRANCH   3  13
ATOM     13  C   UNL     1      44.369   7.920  11.791  0.00  0.00    +0.000 C 
BRANCH  13  14
ATOM     14  C   UNL     1      45.618   8.779  12.027  0.00  0.00    +0.000 C 
BRANCH  14  15
ATOM     15  N   UNL     1      46.032   8.805  13.432  0.00  0.00    +0.000 N 
ATOM     16  H   UNL     1      45.393   8.284  14.031  0.00  0.00    +0.000 HD
BRANCH  15  17
ATOM     17  C   UNL     1      47.370   8.421  13.672  0.00  0.00    +0.000 A 
ATOM     18  C   UNL     1      48.089   8.812  14.806  0.00  0.00    +0.000 A 
ATOM     19  C   UNL     1      49.387   8.356  14.983  0.00  0.00    +0.000 A 
ATOM     20  N   UNL     1      50.007   7.517  14.132  0.00  0.00    +0.000 NA
ATOM     21  C   UNL     1      49.282   7.100  13.073  0.00  0.00    +0.000 A 
ATOM     22  C   UNL     1      47.979   7.503  12.815  0.00  0.00    +0.000 A 
ENDBRANCH  15  17
ENDBRANCH  14  15
ENDBRANCH  13  14
ENDBRANCH   3  13
TORSDOF 5
ENDMDL
MODEL 9
REMARK VINA RESULT:    -6.112      3.113      7.393
REMARK INTER + INTRA:          -8.630
REMARK INTER:                  -7.639
REMARK INTRA:                  -0.990
REMARK UNBOUND:                -0.732
REMARK  Name = 
REMARK  5 active torsions:
REMARK  status: ('A' for Active; 'I' for Inactive)
REMARK    1  A    between atoms: C_3  and  C_4
REMARK    2  A    between atoms: C_4  and  C_5
REMARK    3  A    between atoms: C_5  and  N_6
REMARK    4  A    between atoms: N_6  and  C_7
REMARK    5  A    between atoms: C_14  and  N_15
REMARK                            x       y       z     vdW  Elec       q    Type
REMARK                         _______ _______ _______ _____ _____    ______ ____
ROOT
ATOM      1  C   UNL     1      45.918   8.683  12.964  0.00  0.00    +0.000 A 
ATOM      2  C   UNL     1      47.108   8.573  13.671  0.00  0.00    +0.000 A 
ATOM      3  C   UNL     1      47.761   7.336  13.786  0.00  0.00    +0.000 A 
ATOM      4  C   UNL     1      47.177   6.211  13.169  0.00  0.00    +0.000 A 
ATOM      5  C   UNL     1      45.962   6.291  12.469  0.00  0.00    +0.000 A 
ATOM      6  C   UNL     1      45.360   7.556  12.373  0.00  0.00    +0.000 A 
ENDROOT
BRANCH   5   7
ATOM      7  N   UNL     1      45.360   5.209  11.842  0.00  0.00    +0.000 N 
ATOM      8  C   UNL     1      45.297   5.098  10.386  0.00  0.00    +0.000 C 
ATOM      9  C   UNL     1      43.997   4.374  10.019  0.00  0.00    +0.000 C 
ATOM     10  C   UNL     1      43.851   3.040  10.755  0.00  0.00    +0.000 C 
ATOM     11  C   UNL     1      44.067   3.199  12.259  0.00  0.00    +0.000 C 
ATOM     12  C   UNL     1      45.378   3.924  12.550  0.00  0.00    +0.000 C 
ENDBRANCH   5   7
BRANCH   3  13
ATOM     13  C   UNL     1      49.064   7.162  14.549  0.00  0.00    +0.000 C 
BRANCH  13  14
ATOM     14  C   UNL     1      48.971   7.524  16.037  0.00  0.00    +0.000 C 
BRANCH  14  15
ATOM     15  N   UNL     1      48.120   6.602  16.794  0.00  0.00    +0.000 N 
ATOM     16  H   UNL     1      47.147   6.646  16.497  0.00  0.00    +0.000 HD
BRANCH  15  17
ATOM     17  C   UNL     1      48.572   5.265  16.837  0.00  0.00    +0.000 A 
ATOM     18  C   UNL     1      49.787   4.884  17.415  0.00  0.00    +0.000 A 
ATOM     19  C   UNL     1      50.137   3.542  17.451  0.00  0.00    +0.000 A 
ATOM     20  N   UNL     1      49.354   2.553  16.982  0.00  0.00    +0.000 NA
ATOM     21  C   UNL     1      48.158   2.927  16.482  0.00  0.00    +0.000 A 
ATOM     22  C   UNL     1      47.724   4.245  16.404  0.00  0.00    +0.000 A 
ENDBRANCH  15  17
ENDBRANCH  14  15
ENDBRANCH  13  14
ENDBRANCH   3  13
TORSDOF 5
ENDMDL
