MODEL 1
REMARK VINA RESULT:    -7.767      0.000      0.000
REMARK INTER + INTRA:          -9.404
REMARK INTER:                  -9.129
REMARK INTRA:                  -0.274
REMARK UNBOUND:                -0.274
REMARK  Name = 
REMARK  3 active torsions:
REMARK  status: ('A' for Active; 'I' for Inactive)
REMARK    1  A    between atoms: C_2  and  C_4
REMARK    2  A    between atoms: N_8  and  C_9
REMARK    3  A    between atoms: C_9  and  C_10
REMARK                            x       y       z     vdW  Elec       q    Type
REMARK                         _______ _______ _______ _____ _____    ______ ____
ROOT
ATOM      1  C   UNL     1      46.584   4.544  13.512  0.00  0.00    +0.000 A 
ATOM      2  C   UNL     1      46.888   5.728  12.848  0.00  0.00    +0.000 A 
ATOM      3  C   UNL     1      46.256   6.002  11.636  0.00  0.00    +0.000 A 
ATOM      4  C   UNL     1      45.373   5.073  11.087  0.00  0.00    +0.000 A 
ATOM      5  N   UNL     1      44.815   5.378   9.846  0.00  0.00    +0.000 N 
ATOM      6  N   UNL     1      45.084   3.918  11.713  0.00  0.00    +0.000 NA
ATOM      7  C   UNL     1      45.687   3.676  12.907  0.00  0.00    +0.000 A 
ATOM      8  H   UNL     1      44.164   6.152   9.938  0.00  0.00    +0.000 HD
ENDROOT
BRANCH   1  10
ATOM      9  N   UNL     1      47.195   5.107  15.797  0.00  0.00    +0.000 N 
ATOM     10  C   UNL     1      47.193   4.166  14.804  0.00  0.00    +0.000 C 
ATOM     11  O   UNL     1      47.651   3.048  14.993  0.00  0.00    +0.000 OA
ATOM     12  H   UNL     1      47.530   4.804  16.703  0.00  0.00    +0.000 HD
ATOM     13  H   UNL     1      46.631   5.944  15.763  0.00  0.00    +0.000 HD
ENDBRANCH   1  10
BRANCH   5  14
ATOM     14  C   UNL     1      44.212   4.255   9.128  0.00  0.00    +0.000 C 
BRANCH  14  15
ATOM     15  C   UNL     1      45.306   3.478   8.411  0.00  0.00    +0.000 A 
ATOM     16  C   UNL     1      45.457   2.111   8.654  0.00  0.00    +0.000 A 
ATOM     17  C   UNL     1      46.453   1.408   7.984  0.00  0.00    +0.000 A 
ATOM     18  C   UNL     1      47.265   2.081   7.085  0.00  0.00    +0.000 A 
ATOM     19  C   UNL     1      47.050   3.436   6.893  0.00  0.00    +0.000 A 
ATOM     20  N   UNL     1      46.099   4.150   7.536  0.00  0.00    +0.000 NA
ENDBRANCH  14  15
ENDBRANCH   5  14
TORSDOF 3
ENDMDL
MODEL 2
REMARK VINA RESULT:    -7.687      2.516      6.154
REMARK INTER + INTRA:          -9.309
REMARK INTER:                  -9.030
REMARK INTRA:                  -0.279
REMARK UNBOUND:                -0.274
REMARK  Name = 
REMARK  3 active torsions:
REMARK  status: ('A' for Active; 'I' for Inactive)
REMARK    1  A    between atoms: C_2  and  C_4
REMARK    2  A    between atoms: N_8  and  C_9
REMARK    3  A    between atoms: C_9  and  C_10
REMARK                            x       y       z     vdW  Elec       q    Type
REMARK                         _______ _______ _______ _____ _____    ______ ____
ROOT
ATOM      1  C   UNL     1      46.506   2.636   7.433  0.00  0.00    +0.000 A 
ATOM      2  C   UNL     1      45.957   1.674   8.275  0.00  0.00    +0.000 A 
ATOM      3  C   UNL     1      45.046   2.074   9.251  0.00  0.00    +0.000 A 
ATOM      4  C   UNL     1      44.737   3.424   9.401  0.00  0.00    +0.000 A 
ATOM      5  N   UNL     1      43.863   3.770  10.431  0.00  0.00    +0.000 N 
ATOM      6  N   UNL     1      45.274   4.365   8.603  0.00  0.00    +0.000 NA
ATOM      7  C   UNL     1      46.140   3.958   7.637  0.00  0.00    +0.000 A 
ATOM      8  H   UNL     1      42.928   3.435  10.220  0.00  0.00    +0.000 HD
ENDROOT
BRANCH   1  10
ATOM      9  N   UNL     1      47.434   3.076   5.229  0.00  0.00    +0.000 N 
ATOM     10  C   UNL     1      47.472   2.312   6.363  0.00  0.00    +0.000 C 
ATOM     11  O   UNL     1      48.296   1.417   6.494  0.00  0.00    +0.000 OA
ATOM     12  H   UNL     1      48.161   2.903   4.546  0.00  0.00    +0.000 HD
ATOM     13  H   UNL     1      46.940   3.955   5.174  0.00  0.00    +0.000 HD
ENDBRANCH   1  10
BRANCH   5  14
ATOM     14  C   UNL     1      43.852   5.183  10.808  0.00  0.00    +0.000 C 
BRANCH  14  15
ATOM     15  C   UNL     1      45.013   5.455  11.753  0.00  0.00    +0.000 A 
ATOM     16  C   UNL     1      45.936   6.457  11.445  0.00  0.00    +0.000 A 
ATOM     17  C   UNL     1      46.988   6.705  12.320  0.00  0.00    +0.000 A 
ATOM     18  C   UNL     1      47.089   5.957  13.482  0.00  0.00    +0.000 A 
ATOM     19  C   UNL     1      46.131   4.984  13.721  0.00  0.00    +0.000 A 
ATOM     20  N   UNL     1      45.105   4.710  12.885  0.00  0.00    +0.000 NA
ENDBRANCH  14  15
ENDBRANCH   5  14
TORSDOF 3
ENDMDL
MODEL 3
REMARK VINA RESULT:    -7.532      0.959      1.336
REMARK INTER + INTRA:          -9.127
REMARK INTER:                  -8.765
REMARK INTRA:                  -0.362
REMARK UNBOUND:                -0.274
REMARK  Name = 
REMARK  3 active torsions:
REMARK  status: ('A' for Active; 'I' for Inactive)
REMARK    1  A    between atoms: C_2  and  C_4
REMARK    2  A    between atoms: N_8  and  C_9
REMARK    3  A    between atoms: C_9  and  C_10
REMARK                            x       y       z     vdW  Elec       q    Type
REMARK                         _______ _______ _______ _____ _____    ______ ____
ROOT
ATOM      1  C   UNL     1      46.447   4.789  13.309  0.00  0.00    +0.000 A 
ATOM      2  C   UNL     1      46.613   5.865  12.441  0.00  0.00    +0.000 A 
ATOM      3  C   UNL     1      46.003   5.821  11.190  0.00  0.00    +0.000 A 
ATOM      4  C   UNL     1      45.281   4.692  10.808  0.00  0.00    +0.000 A 
ATOM      5  N   UNL     1      44.741   4.683   9.522  0.00  0.00    +0.000 N 
ATOM      6  N   UNL     1      45.126   3.639  11.632  0.00  0.00    +0.000 NA
ATOM      7  C   UNL     1      45.705   3.707  12.861  0.00  0.00    +0.000 A 
ATOM      8  H   UNL     1      43.986   5.359   9.458  0.00  0.00    +0.000 HD
ENDROOT
BRANCH   1  10
ATOM      9  N   UNL     1      47.600   5.898  15.141  0.00  0.00    +0.000 N 
ATOM     10  C   UNL     1      47.045   4.744  14.659  0.00  0.00    +0.000 C 
ATOM     11  O   UNL     1      47.022   3.724  15.335  0.00  0.00    +0.000 OA
ATOM     12  H   UNL     1      47.920   5.875  16.101  0.00  0.00    +0.000 HD
ATOM     13  H   UNL     1      47.436   6.802  14.724  0.00  0.00    +0.000 HD
ENDBRANCH   1  10
BRANCH   5  14
ATOM     14  C   UNL     1      44.329   3.374   9.015  0.00  0.00    +0.000 C 
BRANCH  14  15
ATOM     15  C   UNL     1      45.470   2.773   8.207  0.00  0.00    +0.000 A 
ATOM     16  C   UNL     1      46.125   3.550   7.249  0.00  0.00    +0.000 A 
ATOM     17  C   UNL     1      47.173   2.993   6.524  0.00  0.00    +0.000 A 
ATOM     18  C   UNL     1      47.548   1.684   6.777  0.00  0.00    +0.000 A 
ATOM     19  C   UNL     1      46.853   0.978   7.747  0.00  0.00    +0.000 A 
ATOM     20  N   UNL     1      45.823   1.486   8.459  0.00  0.00    +0.000 NA
ENDBRANCH  14  15
ENDBRANCH   5  14
TORSDOF 3
ENDMDL
MODEL 4
REMARK VINA RESULT:    -7.460      2.321      2.930
REMARK INTER + INTRA:          -9.043
REMARK INTER:                  -8.776
REMARK INTRA:                  -0.267
REMARK UNBOUND:                -0.274
REMARK  Name = 
REMARK  3 active torsions:
REMARK  status: ('A' for Active; 'I' for Inactive)
REMARK    1  A    between atoms: C_2  and  C_4
REMARK    2  A    between atoms: N_8  and  C_9
REMARK    3  A    between atoms: C_9  and  C_10
REMARK                            x       y       z     vdW  Elec       q    Type
REMARK                         _______ _______ _______ _____ _____    ______ ____
ROOT
ATOM      1  C   UNL     1      45.600   6.638  12.421  0.00  0.00    +0.000 A 
ATOM      2  C   UNL     1      45.670   5.520  13.246  0.00  0.00    +0.000 A 
ATOM      3  C   UNL     1      45.517   4.255  12.681  0.00  0.00    +0.000 A 
ATOM      4  C   UNL     1      45.252   4.131  11.319  0.00  0.00    +0.000 A 
ATOM      5  N   UNL     1      45.053   2.843  10.821  0.00  0.00    +0.000 N 
ATOM      6  N   UNL     1      45.167   5.205  10.514  0.00  0.00    +0.000 NA
ATOM      7  C   UNL     1      45.344   6.432  11.073  0.00  0.00    +0.000 A 
ATOM      8  H   UNL     1      45.926   2.324  10.841  0.00  0.00    +0.000 HD
ENDROOT
BRANCH   1  10
ATOM      9  N   UNL     1      44.779   8.920  12.600  0.00  0.00    +0.000 N 
ATOM     10  C   UNL     1      45.757   8.019  12.922  0.00  0.00    +0.000 C 
ATOM     11  O   UNL     1      46.707   8.342  13.622  0.00  0.00    +0.000 OA
ATOM     12  H   UNL     1      44.853   9.835  13.027  0.00  0.00    +0.000 HD
ATOM     13  H   UNL     1      43.880   8.647  12.232  0.00  0.00    +0.000 HD
ENDBRANCH   1  10
BRANCH   5  14
ATOM     14  C   UNL     1      44.414   2.761   9.508  0.00  0.00    +0.000 C 
BRANCH  14  15
ATOM     15  C   UNL     1      45.464   2.408   8.465  0.00  0.00    +0.000 A 
ATOM     16  C   UNL     1      45.880   3.375   7.546  0.00  0.00    +0.000 A 
ATOM     17  C   UNL     1      46.847   3.044   6.604  0.00  0.00    +0.000 A 
ATOM     18  C   UNL     1      47.382   1.766   6.606  0.00  0.00    +0.000 A 
ATOM     19  C   UNL     1      46.923   0.864   7.552  0.00  0.00    +0.000 A 
ATOM     20  N   UNL     1      45.975   1.150   8.473  0.00  0.00    +0.000 NA
ENDBRANCH  14  15
ENDBRANCH   5  14
TORSDOF 3
ENDMDL
MODEL 5
REMARK VINA RESULT:    -6.376      2.828      7.074
REMARK INTER + INTRA:          -7.769
REMARK INTER:                  -7.501
REMARK INTRA:                  -0.268
REMARK UNBOUND:                -0.274
REMARK  Name = 
REMARK  3 active torsions:
REMARK  status: ('A' for Active; 'I' for Inactive)
REMARK    1  A    between atoms: C_2  and  C_4
REMARK    2  A    between atoms: N_8  and  C_9
REMARK    3  A    between atoms: C_9  and  C_10
REMARK                            x       y       z     vdW  Elec       q    Type
REMARK                         _______ _______ _______ _____ _____    ______ ____
ROOT
ATOM      1  C   UNL     1      45.214   4.318  11.523  0.00  0.00    +0.000 A 
ATOM      2  C   UNL     1      45.716   5.595  11.756  0.00  0.00    +0.000 A 
ATOM      3  C   UNL     1      46.437   5.832  12.923  0.00  0.00    +0.000 A 
ATOM      4  C   UNL     1      46.605   4.810  13.857  0.00  0.00    +0.000 A 
ATOM      5  N   UNL     1      47.288   5.123  15.032  0.00  0.00    +0.000 N 
ATOM      6  N   UNL     1      46.111   3.576  13.650  0.00  0.00    +0.000 NA
ATOM      7  C   UNL     1      45.432   3.351  12.493  0.00  0.00    +0.000 A 
ATOM      8  H   UNL     1      48.269   5.289  14.830  0.00  0.00    +0.000 HD
ENDROOT
BRANCH   1  10
ATOM      9  N   UNL     1      44.556   4.793   9.230  0.00  0.00    +0.000 N 
ATOM     10  C   UNL     1      44.444   3.964  10.312  0.00  0.00    +0.000 C 
ATOM     11  O   UNL     1      43.756   2.953  10.265  0.00  0.00    +0.000 OA
ATOM     12  H   UNL     1      44.099   4.488   8.381  0.00  0.00    +0.000 HD
ATOM     13  H   UNL     1      45.279   5.493   9.146  0.00  0.00    +0.000 HD
ENDBRANCH   1  10
BRANCH   5  14
ATOM     14  C   UNL     1      47.123   4.175  16.133  0.00  0.00    +0.000 C 
BRANCH  14  15
ATOM     15  C   UNL     1      48.496   3.752  16.635  0.00  0.00    +0.000 A 
ATOM     16  C   UNL     1      49.315   4.682  17.280  0.00  0.00    +0.000 A 
ATOM     17  C   UNL     1      50.563   4.282  17.744  0.00  0.00    +0.000 A 
ATOM     18  C   UNL     1      50.960   2.967  17.563  0.00  0.00    +0.000 A 
ATOM     19  C   UNL     1      50.090   2.101  16.919  0.00  0.00    +0.000 A 
ATOM     20  N   UNL     1      48.876   2.462  16.446  0.00  0.00    +0.000 NA
ENDBRANCH  14  15
ENDBRANCH   5  14
TORSDOF 3
ENDMDL
MODEL 6
REMARK VINA RESULT:    -5.847      2.735      7.135
REMARK INTER + INTRA:          -7.147
REMARK INTER:                  -6.907
REMARK INTRA:                  -0.240
REMARK UNBOUND:                -0.274
REMARK  Name = 
REMARK  3 active torsions:
REMARK  status: ('A' for Active; 'I' for Inactive)
REMARK    1  A    between atoms: C_2  and  C_4
REMARK    2  A    between atoms: N_8  and  C_9
REMARK    3  A    between atoms: C_9  and  C_10
REMARK                            x       y       z     vdW  Elec       q    Type
REMARK                         _______ _______ _______ _____ _____    ______ ____
ROOT
ATOM      1  C   UNL     1      45.343   4.409  10.357  0.00  0.00    +0.000 A 
ATOM      2  C   UNL     1      45.061   3.250  11.074  0.00  0.00    +0.000 A 
ATOM      3  C   UNL     1      45.332   3.221  12.440  0.00  0.00    +0.000 A 
ATOM      4  C   UNL     1      45.920   4.325  13.056  0.00  0.00    +0.000 A 
ATOM      5  N   UNL     1      46.219   4.217  14.414  0.00  0.00    +0.000 N 
ATOM      6  N   UNL     1      46.211   5.445  12.370  0.00  0.00    +0.000 NA
ATOM      7  C   UNL     1      45.917   5.470  11.042  0.00  0.00    +0.000 A 
ATOM      8  H   UNL     1      45.361   4.194  14.957  0.00  0.00    +0.000 HD
ENDROOT
BRANCH   1  10
ATOM      9  N   UNL     1      43.848   4.177   8.453  0.00  0.00    +0.000 N 
ATOM     10  C   UNL     1      45.085   4.542   8.908  0.00  0.00    +0.000 C 
ATOM     11  O   UNL     1      45.931   4.989   8.146  0.00  0.00    +0.000 OA
ATOM     12  H   UNL     1      43.655   4.362   7.477  0.00  0.00    +0.000 HD
ATOM     13  H   UNL     1      43.059   4.029   9.065  0.00  0.00    +0.000 HD
ENDBRANCH   1  10
BRANCH   5  14
ATOM     14  C   UNL     1      47.158   5.207  14.939  0.00  0.00    +0.000 C 
BRANCH  14  15
ATOM     15  C   UNL     1      47.866   4.626  16.154  0.00  0.00    +0.000 A 
ATOM     16  C   UNL     1      47.278   3.574  16.861  0.00  0.00    +0.000 A 
ATOM     17  C   UNL     1      47.939   3.044  17.963  0.00  0.00    +0.000 A 
ATOM     18  C   UNL     1      49.169   3.566  18.328  0.00  0.00    +0.000 A 
ATOM     19  C   UNL     1      49.690   4.605  17.574  0.00  0.00    +0.000 A 
ATOM     20  N   UNL     1      49.068   5.151  16.505  0.00  0.00    +0.000 NA
ENDBRANCH  14  15
ENDBRANCH   5  14
TORSDOF 3
ENDMDL
MODEL 7
REMARK VINA RESULT:    -5.847      3.595      5.658
REMARK INTER + INTRA:          -7.147
REMARK INTER:                  -6.935
REMARK INTRA:                  -0.211
REMARK UNBOUND:                -0.274
REMARK  Name = 
REMARK  3 active torsions:
REMARK  status: ('A' for Active; 'I' for Inactive)
REMARK    1  A    between atoms: C_2  and  C_4
REMARK    2  A    between atoms: N_8  and  C_9
REMARK    3  A    between atoms: C_9  and  C_10
REMARK                            x       y       z     vdW  Elec       q    Type
REMARK                         _______ _______ _______ _____ _____    ______ ____
ROOT
ATOM      1  C   UNL     1      48.993   4.445  18.290  0.00  0.00    +0.000 A 
ATOM      2  C   UNL     1      48.222   3.292  18.186  0.00  0.00    +0.000 A 
ATOM      3  C   UNL     1      47.517   3.056  17.008  0.00  0.00    +0.000 A 
ATOM      4  C   UNL     1      47.555   3.993  15.977  0.00  0.00    +0.000 A 
ATOM      5  N   UNL     1      46.785   3.729  14.844  0.00  0.00    +0.000 N 
ATOM      6  N   UNL     1      48.285   5.119  16.071  0.00  0.00    +0.000 NA
ATOM      7  C   UNL     1      48.989   5.323  17.216  0.00  0.00    +0.000 A 
ATOM      8  H   UNL     1      47.176   2.943  14.334  0.00  0.00    +0.000 HD
ENDROOT
BRANCH   1  10
ATOM      9  N   UNL     1      49.321   4.325  20.696  0.00  0.00    +0.000 N 
ATOM     10  C   UNL     1      49.783   4.781  19.493  0.00  0.00    +0.000 C 
ATOM     11  O   UNL     1      50.826   5.416  19.416  0.00  0.00    +0.000 OA
ATOM     12  H   UNL     1      49.920   4.482  21.497  0.00  0.00    +0.000 HD
ATOM     13  H   UNL     1      48.609   3.614  20.779  0.00  0.00    +0.000 HD
ENDBRANCH   1  10
BRANCH   5  14
ATOM     14  C   UNL     1      46.540   4.869  13.963  0.00  0.00    +0.000 C 
BRANCH  14  15
ATOM     15  C   UNL     1      45.285   4.604  13.144  0.00  0.00    +0.000 A 
ATOM     16  C   UNL     1      45.240   3.507  12.280  0.00  0.00    +0.000 A 
ATOM     17  C   UNL     1      44.085   3.268  11.545  0.00  0.00    +0.000 A 
ATOM     18  C   UNL     1      43.002   4.119  11.694  0.00  0.00    +0.000 A 
ATOM     19  C   UNL     1      43.120   5.183  12.574  0.00  0.00    +0.000 A 
ATOM     20  N   UNL     1      44.233   5.450  13.294  0.00  0.00    +0.000 NA
ENDBRANCH  14  15
ENDBRANCH   5  14
TORSDOF 3
ENDMDL
MODEL 8
REMARK VINA RESULT:    -5.694      4.377      6.429
REMARK INTER + INTRA:          -6.967
REMARK INTER:                  -6.709
REMARK INTRA:                  -0.258
REMARK UNBOUND:                -0.274
REMARK  Name = 
REMARK  3 active torsions:
REMARK  status: ('A' for Active; 'I' for Inactive)
REMARK    1  A    between atoms: C_2  and  C_4
REMARK    2  A    between atoms: N_8  and  C_9
REMARK    3  A    between atoms: C_9  and  C_10
REMARK                            x       y       z     vdW  Elec       q    Type
REMARK                         _______ _______ _______ _____ _____    ______ ____
ROOT
ATOM      1  C   UNL     1      50.814   2.485  17.405  0.00  0.00    +0.000 A 
ATOM      2  C   UNL     1      50.769   3.818  17.798  0.00  0.00    +0.000 A 
ATOM      3  C   UNL     1      49.672   4.593  17.428  0.00  0.00    +0.000 A 
ATOM      4  C   UNL     1      48.666   4.041  16.636  0.00  0.00    +0.000 A 
ATOM      5  N   UNL     1      47.622   4.880  16.250  0.00  0.00    +0.000 N 
ATOM      6  N   UNL     1      48.706   2.756  16.236  0.00  0.00    +0.000 NA
ATOM      7  C   UNL     1      49.770   2.004  16.627  0.00  0.00    +0.000 A 
ATOM      8  H   UNL     1      47.051   5.116  17.056  0.00  0.00    +0.000 HD
ENDROOT
BRANCH   1  10
ATOM      9  N   UNL     1      51.611   0.291  18.087  0.00  0.00    +0.000 N 
ATOM     10  C   UNL     1      51.928   1.579  17.754  0.00  0.00    +0.000 C 
ATOM     11  O   UNL     1      53.092   1.954  17.718  0.00  0.00    +0.000 OA
ATOM     12  H   UNL     1      52.389  -0.340  18.232  0.00  0.00    +0.000 HD
ATOM     13  H   UNL     1      50.706  -0.117  17.906  0.00  0.00    +0.000 HD
ENDBRANCH   1  10
BRANCH   5  14
ATOM     14  C   UNL     1      46.802   4.405  15.136  0.00  0.00    +0.000 C 
BRANCH  14  15
ATOM     15  C   UNL     1      47.018   5.315  13.936  0.00  0.00    +0.000 A 
ATOM     16  C   UNL     1      45.977   5.523  13.028  0.00  0.00    +0.000 A 
ATOM     17  C   UNL     1      46.181   6.365  11.941  0.00  0.00    +0.000 A 
ATOM     18  C   UNL     1      47.411   6.986  11.790  0.00  0.00    +0.000 A 
ATOM     19  C   UNL     1      48.393   6.735  12.736  0.00  0.00    +0.000 A 
ATOM     20  N   UNL     1      48.230   5.912  13.796  0.00  0.00    +0.000 NA
ENDBRANCH  14  15
ENDBRANCH   5  14
TORSDOF 3
ENDMDL
MODEL 9
REMARK VINA RESULT:    -5.625      3.626      6.080
REMARK INTER + INTRA:          -6.886
REMARK INTER:                  -6.598
REMARK INTRA:                  -0.288
REMARK UNBOUND:                -0.274
REMARK  Name = 
REMARK  3 active torsions:
REMARK  status: ('A' for Active; 'I' for Inactive)
REMARK    1  A    between atoms: C_2  and  C_4
REMARK    2  A    between atoms: N_8  and  C_9
REMARK    3  A    between atoms: C_9  and  C_10
REMARK                            x       y       z     vdW  Elec       q    Type
REMARK                         _______ _______ _______ _____ _____    ______ ____
ROOT
ATOM      1  C   UNL     1      44.492   4.070  11.764  0.00  0.00    +0.000 A 
ATOM      2  C   UNL     1      45.519   4.031  12.701  0.00  0.00    +0.000 A 
ATOM      3  C   UNL     1      45.984   5.227  13.242  0.00  0.00    +0.000 A 
ATOM      4  C   UNL     1      45.452   6.440  12.806  0.00  0.00    +0.000 A 
ATOM      5  N   UNL     1      45.996   7.607  13.342  0.00  0.00    +0.000 N 
ATOM      6  N   UNL     1      44.469   6.491  11.889  0.00  0.00    +0.000 NA
ATOM      7  C   UNL     1      44.006   5.314  11.389  0.00  0.00    +0.000 A 
ATOM      8  H   UNL     1      45.744   7.689  14.323  0.00  0.00    +0.000 HD
ENDROOT
BRANCH   1  10
ATOM      9  N   UNL     1      44.588   2.335  10.062  0.00  0.00    +0.000 N 
ATOM     10  C   UNL     1      43.925   2.857  11.139  0.00  0.00    +0.000 C 
ATOM     11  O   UNL     1      42.919   2.320  11.582  0.00  0.00    +0.000 OA
ATOM     12  H   UNL     1      44.240   1.454   9.705  0.00  0.00    +0.000 HD
ATOM     13  H   UNL     1      45.529   2.602   9.814  0.00  0.00    +0.000 HD
ENDBRANCH   1  10
BRANCH   5  14
ATOM     14  C   UNL     1      45.702   8.839  12.612  0.00  0.00    +0.000 C 
BRANCH  14  15
ATOM     15  C   UNL     1      47.006   9.442  12.109  0.00  0.00    +0.000 A 
ATOM     16  C   UNL     1      48.171   8.671  12.108  0.00  0.00    +0.000 A 
ATOM     17  C   UNL     1      49.354   9.229  11.637  0.00  0.00    +0.000 A 
ATOM     18  C   UNL     1      49.346  10.533  11.171  0.00  0.00    +0.000 A 
ATOM     19  C   UNL     1      48.150  11.232  11.198  0.00  0.00    +0.000 A 
ATOM     20  N   UNL     1      46.986  10.724  11.661  0.00  0.00    +0.000 NA
ENDBRANCH  14  15
ENDBRANCH   5  14
TORSDOF 3
ENDMDL
