MODEL 1
REMARK VINA RESULT:    -8.465      0.000      0.000
REMARK INTER + INTRA:         -11.236
REMARK INTER:                 -10.445
REMARK INTRA:                  -0.791
REMARK UNBOUND:                -0.791
REMARK  Name = 
REMARK  4 active torsions:
REMARK  status: ('A' for Active; 'I' for Inactive)
REMARK    1  A    between atoms: C_2  and  C_4
REMARK    2  A    between atoms: N_8  and  C_9
REMARK    3  A    between atoms: C_9  and  C_10
REMARK    4  A    between atoms: C_13  and  C_14
REMARK                            x       y       z     vdW  Elec       q    Type
REMARK                         _______ _______ _______ _____ _____    ______ ____
ROOT
ATOM      1  C   UNL     1      46.503   2.744   7.485  0.00  0.00    +0.000 A 
ATOM      2  C   UNL     1      46.147   4.076   7.671  0.00  0.00    +0.000 A 
ATOM      3  C   UNL     1      45.328   4.420   8.751  0.00  0.00    +0.000 A 
ATOM      4  C   UNL     1      44.875   3.433   9.617  0.00  0.00    +0.000 A 
ATOM      5  N   UNL     1      43.973   3.672  10.655  0.00  0.00    +0.000 N 
ATOM      6  N   UNL     1      45.215   2.137   9.442  0.00  0.00    +0.000 NA
ATOM      7  C   UNL     1      46.011   1.817   8.388  0.00  0.00    +0.000 A 
ATOM      8  H   UNL     1      43.873   2.792  11.157  0.00  0.00    +0.000 HD
ENDROOT
BRANCH   1  10
ATOM      9  N   UNL     1      47.175   2.919   5.155  0.00  0.00    +0.000 N 
ATOM     10  C   UNL     1      47.337   2.281   6.353  0.00  0.00    +0.000 C 
ATOM     11  O   UNL     1      48.150   1.378   6.488  0.00  0.00    +0.000 OA
ATOM     12  H   UNL     1      47.799   2.639   4.407  0.00  0.00    +0.000 HD
ATOM     13  H   UNL     1      46.700   3.802   5.060  0.00  0.00    +0.000 HD
ENDBRANCH   1  10
BRANCH   5  14
ATOM     14  C   UNL     1      43.870   4.907  11.443  0.00  0.00    +0.000 C 
ATOM     15  C   UNL     1      42.644   4.973  12.351  0.00  0.00    +0.000 C 
ATOM     16  C   UNL     1      42.787   5.953  11.237  0.00  0.00    +0.000 C 
BRANCH  14  17
ATOM     17  C   UNL     1      45.200   5.410  12.005  0.00  0.00    +0.000 A 
ATOM     18  C   UNL     1      45.766   6.617  11.562  0.00  0.00    +0.000 A 
ATOM     19  C   UNL     1      46.918   7.146  12.153  0.00  0.00    +0.000 A 
ATOM     20  C   UNL     1      47.548   6.474  13.209  0.00  0.00    +0.000 A 
ATOM     21  C   UNL     1      47.028   5.240  13.623  0.00  0.00    +0.000 A 
ATOM     22  C   UNL     1      45.879   4.715  13.021  0.00  0.00    +0.000 A 
BRANCH  20  23
ATOM     23  C   UNL     1      48.744   7.063  13.913  0.00  0.00    +0.000 C 
ATOM     24  F   UNL     1      49.083   6.404  15.057  0.00  0.00    +0.000 F 
ATOM     25  F   UNL     1      49.861   7.048  13.134  0.00  0.00    +0.000 F 
ATOM     26  F   UNL     1      48.557   8.362  14.271  0.00  0.00    +0.000 F 
ENDBRANCH  20  23
ENDBRANCH  14  17
ENDBRANCH   5  14
TORSDOF 4
ENDMDL
MODEL 2
REMARK VINA RESULT:    -8.125      4.533      6.913
REMARK INTER + INTRA:         -10.817
REMARK INTER:                 -10.099
REMARK INTRA:                  -0.718
REMARK UNBOUND:                -0.791
REMARK  Name = 
REMARK  4 active torsions:
REMARK  status: ('A' for Active; 'I' for Inactive)
REMARK    1  A    between atoms: C_2  and  C_4
REMARK    2  A    between atoms: N_8  and  C_9
REMARK    3  A    between atoms: C_9  and  C_10
REMARK    4  A    between atoms: C_13  and  C_14
REMARK                            x       y       z     vdW  Elec       q    Type
REMARK                         _______ _______ _______ _____ _____    ______ ____
ROOT
ATOM      1  C   UNL     1      48.283   6.633  13.844  0.00  0.00    +0.000 A 
ATOM      2  C   UNL     1      47.489   5.524  14.120  0.00  0.00    +0.000 A 
ATOM      3  C   UNL     1      46.381   5.259  13.310  0.00  0.00    +0.000 A 
ATOM      4  C   UNL     1      46.081   6.105  12.250  0.00  0.00    +0.000 A 
ATOM      5  N   UNL     1      44.939   5.976  11.458  0.00  0.00    +0.000 N 
ATOM      6  N   UNL     1      46.846   7.186  11.976  0.00  0.00    +0.000 NA
ATOM      7  C   UNL     1      47.920   7.431  12.772  0.00  0.00    +0.000 A 
ATOM      8  H   UNL     1      45.012   6.682  10.729  0.00  0.00    +0.000 HD
ENDROOT
BRANCH   1  10
ATOM      9  N   UNL     1      50.208   8.067  14.233  0.00  0.00    +0.000 N 
ATOM     10  C   UNL     1      49.455   7.012  14.665  0.00  0.00    +0.000 C 
ATOM     11  O   UNL     1      49.728   6.417  15.698  0.00  0.00    +0.000 OA
ATOM     12  H   UNL     1      50.965   8.359  14.839  0.00  0.00    +0.000 HD
ATOM     13  H   UNL     1      49.892   8.720  13.534  0.00  0.00    +0.000 HD
ENDBRANCH   1  10
BRANCH   5  14
ATOM     14  C   UNL     1      44.272   4.716  11.103  0.00  0.00    +0.000 C 
ATOM     15  C   UNL     1      42.749   4.760  11.209  0.00  0.00    +0.000 C 
ATOM     16  C   UNL     1      43.521   3.848  12.100  0.00  0.00    +0.000 C 
BRANCH  14  17
ATOM     17  C   UNL     1      44.882   3.996   9.902  0.00  0.00    +0.000 A 
ATOM     18  C   UNL     1      45.508   4.711   8.867  0.00  0.00    +0.000 A 
ATOM     19  C   UNL     1      46.174   4.058   7.824  0.00  0.00    +0.000 A 
ATOM     20  C   UNL     1      46.228   2.659   7.781  0.00  0.00    +0.000 A 
ATOM     21  C   UNL     1      45.559   1.932   8.774  0.00  0.00    +0.000 A 
ATOM     22  C   UNL     1      44.889   2.593   9.810  0.00  0.00    +0.000 A 
BRANCH  20  23
ATOM     23  C   UNL     1      47.006   1.935   6.711  0.00  0.00    +0.000 C 
ATOM     24  F   UNL     1      46.733   2.370   5.449  0.00  0.00    +0.000 F 
ATOM     25  F   UNL     1      48.351   2.073   6.867  0.00  0.00    +0.000 F 
ATOM     26  F   UNL     1      46.767   0.595   6.704  0.00  0.00    +0.000 F 
ENDBRANCH  20  23
ENDBRANCH  14  17
ENDBRANCH   5  14
TORSDOF 4
ENDMDL
MODEL 3
REMARK VINA RESULT:    -5.689      5.732      8.513
REMARK INTER + INTRA:          -7.811
REMARK INTER:                  -7.032
REMARK INTRA:                  -0.779
REMARK UNBOUND:                -0.791
REMARK  Name = 
REMARK  4 active torsions:
REMARK  status: ('A' for Active; 'I' for Inactive)
REMARK    1  A    between atoms: C_2  and  C_4
REMARK    2  A    between atoms: N_8  and  C_9
REMARK    3  A    between atoms: C_9  and  C_10
REMARK    4  A    between atoms: C_13  and  C_14
REMARK                            x       y       z     vdW  Elec       q    Type
REMARK                         _______ _______ _______ _____ _____    ______ ____
ROOT
ATOM      1  C   UNL     1      48.735   7.599  17.830  0.00  0.00    +0.000 A 
ATOM      2  C   UNL     1      48.355   8.620  16.964  0.00  0.00    +0.000 A 
ATOM      3  C   UNL     1      48.459   8.419  15.584  0.00  0.00    +0.000 A 
ATOM      4  C   UNL     1      48.947   7.214  15.096  0.00  0.00    +0.000 A 
ATOM      5  N   UNL     1      49.182   6.968  13.743  0.00  0.00    +0.000 N 
ATOM      6  N   UNL     1      49.320   6.218  15.930  0.00  0.00    +0.000 NA
ATOM      7  C   UNL     1      49.213   6.428  17.269  0.00  0.00    +0.000 A 
ATOM      8  H   UNL     1      49.472   5.994  13.672  0.00  0.00    +0.000 HD
ENDROOT
BRANCH   1  10
ATOM      9  N   UNL     1      49.781   7.298  20.004  0.00  0.00    +0.000 N 
ATOM     10  C   UNL     1      48.691   7.732  19.304  0.00  0.00    +0.000 C 
ATOM     11  O   UNL     1      47.727   8.228  19.870  0.00  0.00    +0.000 OA
ATOM     12  H   UNL     1      49.767   7.457  21.005  0.00  0.00    +0.000 HD
ATOM     13  H   UNL     1      50.672   7.106  19.575  0.00  0.00    +0.000 HD
ENDBRANCH   1  10
BRANCH   5  14
ATOM     14  C   UNL     1      48.415   7.519  12.618  0.00  0.00    +0.000 C 
ATOM     15  C   UNL     1      49.249   7.818  11.374  0.00  0.00    +0.000 C 
ATOM     16  C   UNL     1      48.581   8.937  12.097  0.00  0.00    +0.000 C 
BRANCH  14  17
ATOM     17  C   UNL     1      47.042   6.880  12.417  0.00  0.00    +0.000 A 
ATOM     18  C   UNL     1      46.798   5.548  12.793  0.00  0.00    +0.000 A 
ATOM     19  C   UNL     1      45.517   4.991  12.726  0.00  0.00    +0.000 A 
ATOM     20  C   UNL     1      44.434   5.752  12.270  0.00  0.00    +0.000 A 
ATOM     21  C   UNL     1      44.671   7.063  11.837  0.00  0.00    +0.000 A 
ATOM     22  C   UNL     1      45.958   7.610  11.901  0.00  0.00    +0.000 A 
BRANCH  20  23
ATOM     23  C   UNL     1      43.031   5.198  12.263  0.00  0.00    +0.000 C 
ATOM     24  F   UNL     1      42.111   6.050  11.730  0.00  0.00    +0.000 F 
ATOM     25  F   UNL     1      42.933   4.049  11.538  0.00  0.00    +0.000 F 
ATOM     26  F   UNL     1      42.581   4.892  13.510  0.00  0.00    +0.000 F 
ENDBRANCH  20  23
ENDBRANCH  14  17
ENDBRANCH   5  14
TORSDOF 4
ENDMDL
MODEL 4
REMARK VINA RESULT:    -5.650      4.799      6.900
REMARK INTER + INTRA:          -7.762
REMARK INTER:                  -7.631
REMARK INTRA:                  -0.131
REMARK UNBOUND:                -0.791
REMARK  Name = 
REMARK  4 active torsions:
REMARK  status: ('A' for Active; 'I' for Inactive)
REMARK    1  A    between atoms: C_2  and  C_4
REMARK    2  A    between atoms: N_8  and  C_9
REMARK    3  A    between atoms: C_9  and  C_10
REMARK    4  A    between atoms: C_13  and  C_14
REMARK                            x       y       z     vdW  Elec       q    Type
REMARK                         _______ _______ _______ _____ _____    ______ ____
ROOT
ATOM      1  C   UNL     1      45.928   5.353  12.112  0.00  0.00    +0.000 A 
ATOM      2  C   UNL     1      46.637   6.404  12.685  0.00  0.00    +0.000 A 
ATOM      3  C   UNL     1      47.180   6.245  13.964  0.00  0.00    +0.000 A 
ATOM      4  C   UNL     1      46.998   5.051  14.648  0.00  0.00    +0.000 A 
ATOM      5  N   UNL     1      47.414   4.844  15.965  0.00  0.00    +0.000 N 
ATOM      6  N   UNL     1      46.309   4.025  14.100  0.00  0.00    +0.000 NA
ATOM      7  C   UNL     1      45.787   4.194  12.857  0.00  0.00    +0.000 A 
ATOM      8  H   UNL     1      47.212   3.870  16.181  0.00  0.00    +0.000 HD
ENDROOT
BRANCH   1  10
ATOM      9  N   UNL     1      43.933   5.601  10.744  0.00  0.00    +0.000 N 
ATOM     10  C   UNL     1      45.290   5.441  10.779  0.00  0.00    +0.000 C 
ATOM     11  O   UNL     1      45.951   5.391   9.752  0.00  0.00    +0.000 OA
ATOM     12  H   UNL     1      43.518   5.729   9.829  0.00  0.00    +0.000 HD
ATOM     13  H   UNL     1      43.390   5.879  11.546  0.00  0.00    +0.000 HD
ENDBRANCH   1  10
BRANCH   5  14
ATOM     14  C   UNL     1      48.597   5.439  16.601  0.00  0.00    +0.000 C 
ATOM     15  C   UNL     1      48.289   6.610  17.530  0.00  0.00    +0.000 C 
ATOM     16  C   UNL     1      49.101   6.841  16.302  0.00  0.00    +0.000 C 
BRANCH  14  17
ATOM     17  C   UNL     1      49.645   4.424  17.057  0.00  0.00    +0.000 A 
ATOM     18  C   UNL     1      49.365   3.047  17.072  0.00  0.00    +0.000 A 
ATOM     19  C   UNL     1      50.352   2.102  17.371  0.00  0.00    +0.000 A 
ATOM     20  C   UNL     1      51.657   2.510  17.675  0.00  0.00    +0.000 A 
ATOM     21  C   UNL     1      51.937   3.882  17.721  0.00  0.00    +0.000 A 
ATOM     22  C   UNL     1      50.941   4.820  17.427  0.00  0.00    +0.000 A 
BRANCH  20  23
ATOM     23  C   UNL     1      52.756   1.507  17.925  0.00  0.00    +0.000 C 
ATOM     24  F   UNL     1      53.502   1.780  19.031  0.00  0.00    +0.000 F 
ATOM     25  F   UNL     1      52.273   0.247  18.106  0.00  0.00    +0.000 F 
ATOM     26  F   UNL     1      53.636   1.424  16.890  0.00  0.00    +0.000 F 
ENDBRANCH  20  23
ENDBRANCH  14  17
ENDBRANCH   5  14
TORSDOF 4
ENDMDL
MODEL 5
REMARK VINA RESULT:    -5.543      3.328      5.318
REMARK INTER + INTRA:          -7.630
REMARK INTER:                  -7.325
REMARK INTRA:                  -0.305
REMARK UNBOUND:                -0.791
REMARK  Name = 
REMARK  4 active torsions:
REMARK  status: ('A' for Active; 'I' for Inactive)
REMARK    1  A    between atoms: C_2  and  C_4
REMARK    2  A    between atoms: N_8  and  C_9
REMARK    3  A    between atoms: C_9  and  C_10
REMARK    4  A    between atoms: C_13  and  C_14
REMARK                            x       y       z     vdW  Elec       q    Type
REMARK                         _______ _______ _______ _____ _____    ______ ____
ROOT
ATOM      1  C   UNL     1      44.811   5.067  11.037  0.00  0.00    +0.000 A 
ATOM      2  C   UNL     1      45.921   5.771  10.582  0.00  0.00    +0.000 A 
ATOM      3  C   UNL     1      46.585   6.638  11.455  0.00  0.00    +0.000 A 
ATOM      4  C   UNL     1      46.127   6.793  12.757  0.00  0.00    +0.000 A 
ATOM      5  N   UNL     1      46.663   7.712  13.660  0.00  0.00    +0.000 N 
ATOM      6  N   UNL     1      45.048   6.114  13.207  0.00  0.00    +0.000 NA
ATOM      7  C   UNL     1      44.412   5.275  12.347  0.00  0.00    +0.000 A 
ATOM      8  H   UNL     1      46.182   7.561  14.545  0.00  0.00    +0.000 HD
ENDROOT
BRANCH   1  10
ATOM      9  N   UNL     1      44.038   4.395   8.831  0.00  0.00    +0.000 N 
ATOM     10  C   UNL     1      44.026   4.153  10.177  0.00  0.00    +0.000 C 
ATOM     11  O   UNL     1      43.406   3.210  10.647  0.00  0.00    +0.000 OA
ATOM     12  H   UNL     1      43.554   3.723   8.248  0.00  0.00    +0.000 HD
ATOM     13  H   UNL     1      44.708   5.002   8.387  0.00  0.00    +0.000 HD
ENDBRANCH   1  10
BRANCH   5  14
ATOM     14  C   UNL     1      48.067   8.138  13.727  0.00  0.00    +0.000 C 
ATOM     15  C   UNL     1      48.278   9.639  13.544  0.00  0.00    +0.000 C 
ATOM     16  C   UNL     1      48.840   8.691  12.541  0.00  0.00    +0.000 C 
BRANCH  14  17
ATOM     17  C   UNL     1      48.891   7.430  14.803  0.00  0.00    +0.000 A 
ATOM     18  C   UNL     1      48.317   6.450  15.630  0.00  0.00    +0.000 A 
ATOM     19  C   UNL     1      49.087   5.712  16.534  0.00  0.00    +0.000 A 
ATOM     20  C   UNL     1      50.465   5.938  16.643  0.00  0.00    +0.000 A 
ATOM     21  C   UNL     1      51.042   6.951  15.867  0.00  0.00    +0.000 A 
ATOM     22  C   UNL     1      50.262   7.690  14.970  0.00  0.00    +0.000 A 
BRANCH  20  23
ATOM     23  C   UNL     1      51.329   5.101  17.553  0.00  0.00    +0.000 C 
ATOM     24  F   UNL     1      51.191   3.760  17.356  0.00  0.00    +0.000 F 
ATOM     25  F   UNL     1      52.656   5.363  17.392  0.00  0.00    +0.000 F 
ATOM     26  F   UNL     1      51.065   5.314  18.871  0.00  0.00    +0.000 F 
ENDBRANCH  20  23
ENDBRANCH  14  17
ENDBRANCH   5  14
TORSDOF 4
ENDMDL
