MODEL 1
REMARK VINA RESULT:    -7.055      0.000      0.000
REMARK INTER + INTRA:         -12.031
REMARK INTER:                 -10.973
REMARK INTRA:                  -1.057
REMARK UNBOUND:                -1.057
REMARK  Name = 
REMARK  10 active torsions:
REMARK  status: ('A' for Active; 'I' for Inactive)
REMARK    1  A    between atoms: N_1  and  C_2
REMARK    2  A    between atoms: C_2  and  C_3
REMARK    3  A    between atoms: C_3  and  N_4
REMARK    4  A    between atoms: N_4  and  C_5
REMARK    5  A    between atoms: C_5  and  C_6
REMARK    6  A    between atoms: C_9  and  C_10
REMARK    7  A    between atoms: C_10  and  C_11
REMARK    8  A    between atoms: C_14  and  C_15
REMARK    9  A    between atoms: C_15  and  N_16
REMARK   10  A    between atoms: C_17  and  C_19
REMARK                            x       y       z     vdW  Elec       q    Type
REMARK                         _______ _______ _______ _____ _____    ______ ____
ROOT
ATOM      1  C   UNL     1      45.215   6.878  12.541  0.00  0.00    +0.000 A 
ATOM      2  C   UNL     1      45.458   8.247  12.462  0.00  0.00    +0.000 A 
ATOM      3  C   UNL     1      46.625   8.763  13.027  0.00  0.00    +0.000 A 
ATOM      4  C   UNL     1      47.529   7.908  13.662  0.00  0.00    +0.000 A 
ATOM      5  C   UNL     1      47.186   6.562  13.720  0.00  0.00    +0.000 A 
ATOM      6  N   UNL     1      46.064   6.031  13.176  0.00  0.00    +0.000 NA
ENDROOT
BRANCH   1   7
ATOM      7  C   UNL     1      43.994   6.279  11.880  0.00  0.00    +0.000 C 
BRANCH   7  11
ATOM      8  C   UNL     1      44.653   2.985   9.256  0.00  0.00    +0.000 A 
ATOM      9  C   UNL     1      45.376   4.154   9.043  0.00  0.00    +0.000 A 
ATOM     10  C   UNL     1      45.196   5.227   9.911  0.00  0.00    +0.000 A 
ATOM     11  C   UNL     1      44.288   5.118  10.966  0.00  0.00    +0.000 A 
ATOM     12  C   UNL     1      43.617   3.906  11.108  0.00  0.00    +0.000 A 
ATOM     13  N   UNL     1      43.784   2.842  10.288  0.00  0.00    +0.000 NA
BRANCH   8  14
ATOM     14  C   UNL     1      44.907   1.783   8.367  0.00  0.00    +0.000 C 
BRANCH  14  15
ATOM     15  N   UNL     1      46.254   1.198   8.546  0.00  0.00    +0.000 NA
ATOM     16  H   UNL     1      46.812   1.894   9.048  0.00  0.00    +0.000 HD
BRANCH  15  17
ATOM     17  C   UNL     1      46.921   1.000   7.243  0.00  0.00    +0.000 C 
BRANCH  17  18
ATOM     18  C   UNL     1      47.755   2.216   6.795  0.00  0.00    +0.000 C 
BRANCH  18  19
ATOM     19  N   UNL     1      48.553   1.886   5.608  0.00  0.00    +0.000 NA
ATOM     20  H   UNL     1      49.309   1.263   5.886  0.00  0.00    +0.000 HD
ATOM     21  H   UNL     1      48.996   2.739   5.268  0.00  0.00    +0.000 HD
ENDBRANCH  18  19
ENDBRANCH  17  18
ENDBRANCH  15  17
ENDBRANCH  14  15
ENDBRANCH   8  14
ENDBRANCH   7  11
ENDBRANCH   1   7
BRANCH   4  22
ATOM     22  C   UNL     1      48.805   8.402  14.283  0.00  0.00    +0.000 C 
BRANCH  22  23
ATOM     23  N   UNL     1      48.855   8.125  15.696  0.00  0.00    +0.000 N 
ATOM     24  C   UNL     1      49.760   7.239  16.228  0.00  0.00    +0.000 C 
ATOM     25  O   UNL     1      50.604   6.670  15.541  0.00  0.00    +0.000 OA
ATOM     26  H   UNL     1      48.026   8.350  16.235  0.00  0.00    +0.000 HD
BRANCH  24  27
ATOM     27  C   UNL     1      49.701   7.065  17.688  0.00  0.00    +0.000 A 
ATOM     28  C   UNL     1      50.064   8.109  18.527  0.00  0.00    +0.000 A 
ATOM     29  S   UNL     1      49.882   7.746  20.186  0.00  0.00    +0.000 S 
ATOM     30  C   UNL     1      49.362   6.163  19.841  0.00  0.00    +0.000 A 
ATOM     31  N   UNL     1      49.062   5.288  20.841  0.00  0.00    +0.000 NA
ATOM     32  C   UNL     1      48.701   4.110  20.439  0.00  0.00    +0.000 A 
ATOM     33  N   UNL     1      48.605   3.741  19.121  0.00  0.00    +0.000 N 
ATOM     34  C   UNL     1      48.869   4.601  18.080  0.00  0.00    +0.000 A 
ATOM     35  O   UNL     1      48.720   4.254  16.908  0.00  0.00    +0.000 OA
ATOM     36  C   UNL     1      49.300   5.925  18.481  0.00  0.00    +0.000 A 
ATOM     37  H   UNL     1      48.299   2.813  18.860  0.00  0.00    +0.000 HD
ENDBRANCH  24  27
ENDBRANCH  22  23
ENDBRANCH   4  22
TORSDOF 10
ENDMDL
MODEL 2
REMARK VINA RESULT:    -6.899      5.149      7.515
REMARK INTER + INTRA:         -11.788
REMARK INTER:                 -10.694
REMARK INTRA:                  -1.094
REMARK UNBOUND:                -1.057
REMARK  Name = 
REMARK  10 active torsions:
REMARK  status: ('A' for Active; 'I' for Inactive)
REMARK    1  A    between atoms: N_1  and  C_2
REMARK    2  A    between atoms: C_2  and  C_3
REMARK    3  A    between atoms: C_3  and  N_4
REMARK    4  A    between atoms: N_4  and  C_5
REMARK    5  A    between atoms: C_5  and  C_6
REMARK    6  A    between atoms: C_9  and  C_10
REMARK    7  A    between atoms: C_10  and  C_11
REMARK    8  A    between atoms: C_14  and  C_15
REMARK    9  A    between atoms: C_15  and  N_16
REMARK   10  A    between atoms: C_17  and  C_19
REMARK                            x       y       z     vdW  Elec       q    Type
REMARK                         _______ _______ _______ _____ _____    ______ ____
ROOT
ATOM      1  C   UNL     1      47.326   7.316  12.602  0.00  0.00    +0.000 A 
ATOM      2  C   UNL     1      47.477   8.575  12.025  0.00  0.00    +0.000 A 
ATOM      3  C   UNL     1      48.760   9.033  11.723  0.00  0.00    +0.000 A 
ATOM      4  C   UNL     1      49.870   8.232  12.001  0.00  0.00    +0.000 A 
ATOM      5  C   UNL     1      49.622   7.005  12.608  0.00  0.00    +0.000 A 
ATOM      6  N   UNL     1      48.389   6.531  12.907  0.00  0.00    +0.000 NA
ENDROOT
BRANCH   1   7
ATOM      7  C   UNL     1      45.945   6.764  12.879  0.00  0.00    +0.000 C 
BRANCH   7  11
ATOM      8  C   UNL     1      44.957   3.547  10.262  0.00  0.00    +0.000 A 
ATOM      9  C   UNL     1      44.947   3.311  11.633  0.00  0.00    +0.000 A 
ATOM     10  C   UNL     1      45.235   4.359  12.501  0.00  0.00    +0.000 A 
ATOM     11  C   UNL     1      45.542   5.619  11.985  0.00  0.00    +0.000 A 
ATOM     12  C   UNL     1      45.518   5.766  10.601  0.00  0.00    +0.000 A 
ATOM     13  N   UNL     1      45.227   4.767   9.734  0.00  0.00    +0.000 NA
BRANCH   8  14
ATOM     14  C   UNL     1      44.560   2.433   9.314  0.00  0.00    +0.000 C 
BRANCH  14  15
ATOM     15  N   UNL     1      45.691   1.556   8.936  0.00  0.00    +0.000 NA
ATOM     16  H   UNL     1      46.326   1.536   9.737  0.00  0.00    +0.000 HD
BRANCH  15  17
ATOM     17  C   UNL     1      46.460   2.138   7.817  0.00  0.00    +0.000 C 
BRANCH  17  18
ATOM     18  C   UNL     1      47.265   1.093   7.022  0.00  0.00    +0.000 C 
BRANCH  18  19
ATOM     19  N   UNL     1      48.406   1.722   6.348  0.00  0.00    +0.000 NA
ATOM     20  H   UNL     1      48.058   2.457   5.735  0.00  0.00    +0.000 HD
ATOM     21  H   UNL     1      48.848   1.030   5.744  0.00  0.00    +0.000 HD
ENDBRANCH  18  19
ENDBRANCH  17  18
ENDBRANCH  15  17
ENDBRANCH  14  15
ENDBRANCH   8  14
ENDBRANCH   7  11
ENDBRANCH   1   7
BRANCH   4  22
ATOM     22  C   UNL     1      51.275   8.665  11.693  0.00  0.00    +0.000 C 
BRANCH  22  23
ATOM     23  N   UNL     1      51.679   8.268  10.368  0.00  0.00    +0.000 N 
ATOM     24  C   UNL     1      52.820   8.760   9.782  0.00  0.00    +0.000 C 
ATOM     25  O   UNL     1      53.581   9.526  10.367  0.00  0.00    +0.000 OA
ATOM     26  H   UNL     1      50.961   7.873   9.771  0.00  0.00    +0.000 HD
BRANCH  24  27
ATOM     27  C   UNL     1      53.112   8.256   8.431  0.00  0.00    +0.000 A 
ATOM     28  C   UNL     1      53.105   9.126   7.349  0.00  0.00    +0.000 A 
ATOM     29  S   UNL     1      53.518   8.379   5.870  0.00  0.00    +0.000 S 
ATOM     30  C   UNL     1      53.669   6.857   6.615  0.00  0.00    +0.000 A 
ATOM     31  N   UNL     1      53.981   5.747   5.890  0.00  0.00    +0.000 NA
ATOM     32  C   UNL     1      54.042   4.651   6.578  0.00  0.00    +0.000 A 
ATOM     33  N   UNL     1      53.826   4.576   7.931  0.00  0.00    +0.000 N 
ATOM     34  C   UNL     1      53.538   5.676   8.706  0.00  0.00    +0.000 A 
ATOM     35  O   UNL     1      53.405   5.583   9.927  0.00  0.00    +0.000 OA
ATOM     36  C   UNL     1      53.436   6.923   7.976  0.00  0.00    +0.000 A 
ATOM     37  H   UNL     1      53.905   3.697   8.425  0.00  0.00    +0.000 HD
ENDBRANCH  24  27
ENDBRANCH  22  23
ENDBRANCH   4  22
TORSDOF 10
ENDMDL
MODEL 3
REMARK VINA RESULT:    -6.658      1.853      2.143
REMARK INTER + INTRA:         -11.413
REMARK INTER:                 -10.289
REMARK INTRA:                  -1.124
REMARK UNBOUND:                -1.057
REMARK  Name = 
REMARK  10 active torsions:
REMARK  status: ('A' for Active; 'I' for Inactive)
REMARK    1  A    between atoms: N_1  and  C_2
REMARK    2  A    between atoms: C_2  and  C_3
REMARK    3  A    between atoms: C_3  and  N_4
REMARK    4  A    between atoms: N_4  and  C_5
REMARK    5  A    between atoms: C_5  and  C_6
REMARK    6  A    between atoms: C_9  and  C_10
REMARK    7  A    between atoms: C_10  and  C_11
REMARK    8  A    between atoms: C_14  and  C_15
REMARK    9  A    between atoms: C_15  and  N_16
REMARK   10  A    between atoms: C_17  and  C_19
REMARK                            x       y       z     vdW  Elec       q    Type
REMARK                         _______ _______ _______ _____ _____    ______ ____
ROOT
ATOM      1  C   UNL     1      45.493   6.600  12.835  0.00  0.00    +0.000 A 
ATOM      2  C   UNL     1      45.698   7.978  12.860  0.00  0.00    +0.000 A 
ATOM      3  C   UNL     1      46.879   8.478  13.412  0.00  0.00    +0.000 A 
ATOM      4  C   UNL     1      47.833   7.599  13.929  0.00  0.00    +0.000 A 
ATOM      5  C   UNL     1      47.527   6.244  13.889  0.00  0.00    +0.000 A 
ATOM      6  N   UNL     1      46.393   5.728  13.355  0.00  0.00    +0.000 NA
ENDROOT
BRANCH   1   7
ATOM      7  C   UNL     1      44.256   6.024  12.183  0.00  0.00    +0.000 C 
BRANCH   7  11
ATOM      8  C   UNL     1      44.875   3.247   9.008  0.00  0.00    +0.000 A 
ATOM      9  C   UNL     1      45.542   4.467   8.959  0.00  0.00    +0.000 A 
ATOM     10  C   UNL     1      45.376   5.371  10.004  0.00  0.00    +0.000 A 
ATOM     11  C   UNL     1      44.537   5.046  11.071  0.00  0.00    +0.000 A 
ATOM     12  C   UNL     1      43.919   3.798  11.042  0.00  0.00    +0.000 A 
ATOM     13  N   UNL     1      44.075   2.894  10.045  0.00  0.00    +0.000 NA
BRANCH   8  14
ATOM     14  C   UNL     1      45.119   2.223   7.917  0.00  0.00    +0.000 C 
BRANCH  14  15
ATOM     15  N   UNL     1      45.942   1.077   8.364  0.00  0.00    +0.000 NA
ATOM     16  H   UNL     1      46.340   1.338   9.269  0.00  0.00    +0.000 HD
BRANCH  15  17
ATOM     17  C   UNL     1      47.089   0.866   7.456  0.00  0.00    +0.000 C 
BRANCH  17  18
ATOM     18  C   UNL     1      47.216   1.953   6.373  0.00  0.00    +0.000 C 
BRANCH  18  19
ATOM     19  N   UNL     1      48.524   1.876   5.713  0.00  0.00    +0.000 NA
ATOM     20  H   UNL     1      48.609   2.657   5.065  0.00  0.00    +0.000 HD
ATOM     21  H   UNL     1      48.552   1.029   5.146  0.00  0.00    +0.000 HD
ENDBRANCH  18  19
ENDBRANCH  17  18
ENDBRANCH  15  17
ENDBRANCH  14  15
ENDBRANCH   8  14
ENDBRANCH   7  11
ENDBRANCH   1   7
BRANCH   4  22
ATOM     22  C   UNL     1      49.126   8.076  14.529  0.00  0.00    +0.000 C 
BRANCH  22  23
ATOM     23  N   UNL     1      49.605   7.179  15.550  0.00  0.00    +0.000 N 
ATOM     24  C   UNL     1      49.373   7.411  16.883  0.00  0.00    +0.000 C 
ATOM     25  O   UNL     1      48.709   8.366  17.278  0.00  0.00    +0.000 OA
ATOM     26  H   UNL     1      50.365   6.559  15.293  0.00  0.00    +0.000 HD
BRANCH  24  27
ATOM     27  C   UNL     1      49.912   6.404  17.811  0.00  0.00    +0.000 A 
ATOM     28  C   UNL     1      49.136   5.947  18.867  0.00  0.00    +0.000 A 
ATOM     29  S   UNL     1      49.903   4.744  19.806  0.00  0.00    +0.000 S 
ATOM     30  C   UNL     1      51.318   4.830  18.865  0.00  0.00    +0.000 A 
ATOM     31  N   UNL     1      52.404   4.062  19.157  0.00  0.00    +0.000 NA
ATOM     32  C   UNL     1      53.421   4.244  18.374  0.00  0.00    +0.000 A 
ATOM     33  N   UNL     1      53.435   5.122  17.320  0.00  0.00    +0.000 N 
ATOM     34  C   UNL     1      52.351   5.894  16.971  0.00  0.00    +0.000 A 
ATOM     35  O   UNL     1      52.378   6.630  15.985  0.00  0.00    +0.000 OA
ATOM     36  C   UNL     1      51.196   5.742  17.833  0.00  0.00    +0.000 A 
ATOM     37  H   UNL     1      54.249   5.211  16.726  0.00  0.00    +0.000 HD
ENDBRANCH  24  27
ENDBRANCH  22  23
ENDBRANCH   4  22
TORSDOF 10
ENDMDL
MODEL 4
REMARK VINA RESULT:    -6.616      2.702      4.082
REMARK INTER + INTRA:         -11.348
REMARK INTER:                 -10.046
REMARK INTRA:                  -1.302
REMARK UNBOUND:                -1.057
REMARK  Name = 
REMARK  10 active torsions:
REMARK  status: ('A' for Active; 'I' for Inactive)
REMARK    1  A    between atoms: N_1  and  C_2
REMARK    2  A    between atoms: C_2  and  C_3
REMARK    3  A    between atoms: C_3  and  N_4
REMARK    4  A    between atoms: N_4  and  C_5
REMARK    5  A    between atoms: C_5  and  C_6
REMARK    6  A    between atoms: C_9  and  C_10
REMARK    7  A    between atoms: C_10  and  C_11
REMARK    8  A    between atoms: C_14  and  C_15
REMARK    9  A    between atoms: C_15  and  N_16
REMARK   10  A    between atoms: C_17  and  C_19
REMARK                            x       y       z     vdW  Elec       q    Type
REMARK                         _______ _______ _______ _____ _____    ______ ____
ROOT
ATOM      1  C   UNL     1      48.422   7.817  13.749  0.00  0.00    +0.000 A 
ATOM      2  C   UNL     1      48.016   8.776  14.673  0.00  0.00    +0.000 A 
ATOM      3  C   UNL     1      48.743   8.930  15.854  0.00  0.00    +0.000 A 
ATOM      4  C   UNL     1      49.860   8.127  16.095  0.00  0.00    +0.000 A 
ATOM      5  C   UNL     1      50.170   7.176  15.130  0.00  0.00    +0.000 A 
ATOM      6  N   UNL     1      49.487   7.007  13.971  0.00  0.00    +0.000 NA
ENDROOT
BRANCH   1   7
ATOM      7  C   UNL     1      47.697   7.671  12.430  0.00  0.00    +0.000 C 
BRANCH   7  11
ATOM      8  C   UNL     1      44.267   5.139  12.414  0.00  0.00    +0.000 A 
ATOM      9  C   UNL     1      45.271   4.887  13.345  0.00  0.00    +0.000 A 
ATOM     10  C   UNL     1      46.381   5.724  13.384  0.00  0.00    +0.000 A 
ATOM     11  C   UNL     1      46.476   6.789  12.485  0.00  0.00    +0.000 A 
ATOM     12  C   UNL     1      45.419   6.971  11.597  0.00  0.00    +0.000 A 
ATOM     13  N   UNL     1      44.320   6.181  11.547  0.00  0.00    +0.000 NA
BRANCH   8  14
ATOM     14  C   UNL     1      43.016   4.284  12.423  0.00  0.00    +0.000 C 
BRANCH  14  15
ATOM     15  N   UNL     1      42.840   3.491  11.186  0.00  0.00    +0.000 NA
ATOM     16  H   UNL     1      42.198   2.729  11.415  0.00  0.00    +0.000 HD
BRANCH  15  17
ATOM     17  C   UNL     1      44.111   2.852  10.785  0.00  0.00    +0.000 C 
BRANCH  17  18
ATOM     18  C   UNL     1      44.443   3.042   9.293  0.00  0.00    +0.000 C 
BRANCH  18  19
ATOM     19  N   UNL     1      44.127   4.409   8.863  0.00  0.00    +0.000 NA
ATOM     20  H   UNL     1      43.126   4.563   8.975  0.00  0.00    +0.000 HD
ATOM     21  H   UNL     1      44.319   4.488   7.865  0.00  0.00    +0.000 HD
ENDBRANCH  18  19
ENDBRANCH  17  18
ENDBRANCH  15  17
ENDBRANCH  14  15
ENDBRANCH   8  14
ENDBRANCH   7  11
ENDBRANCH   1   7
BRANCH   4  22
ATOM     22  C   UNL     1      50.687   8.250  17.344  0.00  0.00    +0.000 C 
BRANCH  22  23
ATOM     23  N   UNL     1      51.434   7.047  17.611  0.00  0.00    +0.000 N 
ATOM     24  C   UNL     1      51.012   6.125  18.538  0.00  0.00    +0.000 C 
ATOM     25  O   UNL     1      49.957   6.249  19.154  0.00  0.00    +0.000 OA
ATOM     26  H   UNL     1      52.411   7.047  17.341  0.00  0.00    +0.000 HD
BRANCH  24  27
ATOM     27  C   UNL     1      51.871   4.941  18.697  0.00  0.00    +0.000 A 
ATOM     28  C   UNL     1      53.040   5.025  19.441  0.00  0.00    +0.000 A 
ATOM     29  S   UNL     1      53.879   3.544  19.563  0.00  0.00    +0.000 S 
ATOM     30  C   UNL     1      52.739   2.750  18.581  0.00  0.00    +0.000 A 
ATOM     31  N   UNL     1      52.883   1.436  18.258  0.00  0.00    +0.000 NA
ATOM     32  C   UNL     1      51.955   0.963  17.486  0.00  0.00    +0.000 A 
ATOM     33  N   UNL     1      50.892   1.695  17.021  0.00  0.00    +0.000 N 
ATOM     34  C   UNL     1      50.691   3.017  17.348  0.00  0.00    +0.000 A 
ATOM     35  O   UNL     1      49.697   3.629  16.959  0.00  0.00    +0.000 OA
ATOM     36  C   UNL     1      51.717   3.596  18.191  0.00  0.00    +0.000 A 
ATOM     37  H   UNL     1      50.183   1.273  16.436  0.00  0.00    +0.000 HD
ENDBRANCH  24  27
ENDBRANCH  22  23
ENDBRANCH   4  22
TORSDOF 10
ENDMDL
MODEL 5
REMARK VINA RESULT:    -6.324      2.145      2.642
REMARK INTER + INTRA:         -10.894
REMARK INTER:                  -9.838
REMARK INTRA:                  -1.055
REMARK UNBOUND:                -1.057
REMARK  Name = 
REMARK  10 active torsions:
REMARK  status: ('A' for Active; 'I' for Inactive)
REMARK    1  A    between atoms: N_1  and  C_2
REMARK    2  A    between atoms: C_2  and  C_3
REMARK    3  A    between atoms: C_3  and  N_4
REMARK    4  A    between atoms: N_4  and  C_5
REMARK    5  A    between atoms: C_5  and  C_6
REMARK    6  A    between atoms: C_9  and  C_10
REMARK    7  A    between atoms: C_10  and  C_11
REMARK    8  A    between atoms: C_14  and  C_15
REMARK    9  A    between atoms: C_15  and  N_16
REMARK   10  A    between atoms: C_17  and  C_19
REMARK                            x       y       z     vdW  Elec       q    Type
REMARK                         _______ _______ _______ _____ _____    ______ ____
ROOT
ATOM      1  C   UNL     1      45.463   7.065  12.392  0.00  0.00    +0.000 A 
ATOM      2  C   UNL     1      46.561   6.405  12.937  0.00  0.00    +0.000 A 
ATOM      3  C   UNL     1      47.731   7.125  13.185  0.00  0.00    +0.000 A 
ATOM      4  C   UNL     1      47.788   8.487  12.885  0.00  0.00    +0.000 A 
ATOM      5  C   UNL     1      46.653   9.053  12.313  0.00  0.00    +0.000 A 
ATOM      6  N   UNL     1      45.501   8.382  12.067  0.00  0.00    +0.000 NA
ENDROOT
BRANCH   1   7
ATOM      7  C   UNL     1      44.159   6.329  12.174  0.00  0.00    +0.000 C 
BRANCH   7  11
ATOM      8  C   UNL     1      44.655   2.897   9.695  0.00  0.00    +0.000 A 
ATOM      9  C   UNL     1      43.928   2.762  10.874  0.00  0.00    +0.000 A 
ATOM     10  C   UNL     1      43.730   3.880  11.677  0.00  0.00    +0.000 A 
ATOM     11  C   UNL     1      44.272   5.109  11.297  0.00  0.00    +0.000 A 
ATOM     12  C   UNL     1      44.975   5.153  10.095  0.00  0.00    +0.000 A 
ATOM     13  N   UNL     1      45.170   4.085   9.287  0.00  0.00    +0.000 NA
BRANCH   8  14
ATOM     14  C   UNL     1      44.801   1.704   8.772  0.00  0.00    +0.000 C 
BRANCH  14  15
ATOM     15  N   UNL     1      46.210   1.325   8.525  0.00  0.00    +0.000 NA
ATOM     16  H   UNL     1      46.788   1.994   9.039  0.00  0.00    +0.000 HD
BRANCH  15  17
ATOM     17  C   UNL     1      46.559   1.491   7.099  0.00  0.00    +0.000 C 
BRANCH  17  18
ATOM     18  C   UNL     1      47.837   2.323   6.878  0.00  0.00    +0.000 C 
BRANCH  18  19
ATOM     19  N   UNL     1      48.571   1.840   5.703  0.00  0.00    +0.000 NA
ATOM     20  H   UNL     1      49.436   2.372   5.617  0.00  0.00    +0.000 HD
ATOM     21  H   UNL     1      48.023   2.048   4.869  0.00  0.00    +0.000 HD
ENDBRANCH  18  19
ENDBRANCH  17  18
ENDBRANCH  15  17
ENDBRANCH  14  15
ENDBRANCH   8  14
ENDBRANCH   7  11
ENDBRANCH   1   7
BRANCH   4  22
ATOM     22  C   UNL     1      49.015   9.317  13.135  0.00  0.00    +0.000 C 
BRANCH  22  23
ATOM     23  N   UNL     1      50.070   8.544  13.740  0.00  0.00    +0.000 N 
ATOM     24  C   UNL     1      50.371   8.653  15.076  0.00  0.00    +0.000 C 
ATOM     25  O   UNL     1      49.733   9.376  15.836  0.00  0.00    +0.000 OA
ATOM     26  H   UNL     1      50.773   8.163  13.117  0.00  0.00    +0.000 HD
BRANCH  24  27
ATOM     27  C   UNL     1      51.464   7.794  15.556  0.00  0.00    +0.000 A 
ATOM     28  C   UNL     1      52.779   8.096  15.230  0.00  0.00    +0.000 A 
ATOM     29  S   UNL     1      53.917   7.024  15.917  0.00  0.00    +0.000 S 
ATOM     30  C   UNL     1      52.689   6.087  16.631  0.00  0.00    +0.000 A 
ATOM     31  N   UNL     1      52.985   4.973  17.354  0.00  0.00    +0.000 NA
ATOM     32  C   UNL     1      51.954   4.341  17.821  0.00  0.00    +0.000 A 
ATOM     33  N   UNL     1      50.655   4.739  17.633  0.00  0.00    +0.000 N 
ATOM     34  C   UNL     1      50.312   5.874  16.935  0.00  0.00    +0.000 A 
ATOM     35  O   UNL     1      49.139   6.234  16.832  0.00  0.00    +0.000 OA
ATOM     36  C   UNL     1      51.432   6.602  16.373  0.00  0.00    +0.000 A 
ATOM     37  H   UNL     1      49.887   4.220  18.037  0.00  0.00    +0.000 HD
ENDBRANCH  24  27
ENDBRANCH  22  23
ENDBRANCH   4  22
TORSDOF 10
ENDMDL
MODEL 6
REMARK VINA RESULT:    -4.976     10.298     11.627
REMARK INTER + INTRA:          -8.798
REMARK INTER:                  -7.673
REMARK INTRA:                  -1.124
REMARK UNBOUND:                -1.057
REMARK  Name = 
REMARK  10 active torsions:
REMARK  status: ('A' for Active; 'I' for Inactive)
REMARK    1  A    between atoms: N_1  and  C_2
REMARK    2  A    between atoms: C_2  and  C_3
REMARK    3  A    between atoms: C_3  and  N_4
REMARK    4  A    between atoms: N_4  and  C_5
REMARK    5  A    between atoms: C_5  and  C_6
REMARK    6  A    between atoms: C_9  and  C_10
REMARK    7  A    between atoms: C_10  and  C_11
REMARK    8  A    between atoms: C_14  and  C_15
REMARK    9  A    between atoms: C_15  and  N_16
REMARK   10  A    between atoms: C_17  and  C_19
REMARK                            x       y       z     vdW  Elec       q    Type
REMARK                         _______ _______ _______ _____ _____    ______ ____
ROOT
ATOM      1  C   UNL     1      41.174  -3.889  15.569  0.00  0.00    +0.000 A 
ATOM      2  C   UNL     1      40.791  -2.567  15.782  0.00  0.00    +0.000 A 
ATOM      3  C   UNL     1      40.524  -2.140  17.084  0.00  0.00    +0.000 A 
ATOM      4  C   UNL     1      40.641  -3.036  18.149  0.00  0.00    +0.000 A 
ATOM      5  C   UNL     1      40.996  -4.343  17.835  0.00  0.00    +0.000 A 
ATOM      6  N   UNL     1      41.268  -4.785  16.583  0.00  0.00    +0.000 NA
ENDROOT
BRANCH   1   7
ATOM      7  C   UNL     1      41.536  -4.365  14.179  0.00  0.00    +0.000 C 
BRANCH   7  11
ATOM      8  C   UNL     1      39.025  -2.649  11.192  0.00  0.00    +0.000 A 
ATOM      9  C   UNL     1      40.351  -2.234  11.258  0.00  0.00    +0.000 A 
ATOM     10  C   UNL     1      41.192  -2.808  12.206  0.00  0.00    +0.000 A 
ATOM     11  C   UNL     1      40.690  -3.775  13.080  0.00  0.00    +0.000 A 
ATOM     12  C   UNL     1      39.353  -4.136  12.933  0.00  0.00    +0.000 A 
ATOM     13  N   UNL     1      38.517  -3.605  12.009  0.00  0.00    +0.000 NA
BRANCH   8  14
ATOM     14  C   UNL     1      38.127  -2.090  10.105  0.00  0.00    +0.000 C 
BRANCH  14  15
ATOM     15  N   UNL     1      37.550  -0.770  10.445  0.00  0.00    +0.000 NA
ATOM     16  H   UNL     1      36.894  -0.926  11.214  0.00  0.00    +0.000 HD
BRANCH  15  17
ATOM     17  C   UNL     1      36.749  -0.240   9.322  0.00  0.00    +0.000 C 
BRANCH  17  18
ATOM     18  C   UNL     1      37.020   1.248   9.030  0.00  0.00    +0.000 C 
BRANCH  18  19
ATOM     19  N   UNL     1      37.743   1.870  10.145  0.00  0.00    +0.000 NA
ATOM     20  H   UNL     1      38.512   2.422   9.768  0.00  0.00    +0.000 HD
ATOM     21  H   UNL     1      38.169   1.133  10.708  0.00  0.00    +0.000 HD
ENDBRANCH  18  19
ENDBRANCH  17  18
ENDBRANCH  15  17
ENDBRANCH  14  15
ENDBRANCH   8  14
ENDBRANCH   7  11
ENDBRANCH   1   7
BRANCH   4  22
ATOM     22  C   UNL     1      40.373  -2.635  19.572  0.00  0.00    +0.000 C 
BRANCH  22  23
ATOM     23  N   UNL     1      40.079  -1.228  19.685  0.00  0.00    +0.000 N 
ATOM     24  C   UNL     1      38.789  -0.765  19.769  0.00  0.00    +0.000 C 
ATOM     25  O   UNL     1      37.820  -1.519  19.798  0.00  0.00    +0.000 OA
ATOM     26  H   UNL     1      40.805  -0.584  19.392  0.00  0.00    +0.000 HD
BRANCH  24  27
ATOM     27  C   UNL     1      38.641   0.694  19.891  0.00  0.00    +0.000 A 
ATOM     28  C   UNL     1      38.728   1.299  21.138  0.00  0.00    +0.000 A 
ATOM     29  S   UNL     1      38.587   3.000  21.082  0.00  0.00    +0.000 S 
ATOM     30  C   UNL     1      38.351   2.983  19.397  0.00  0.00    +0.000 A 
ATOM     31  N   UNL     1      38.133   4.136  18.706  0.00  0.00    +0.000 NA
ATOM     32  C   UNL     1      37.946   3.977  17.434  0.00  0.00    +0.000 A 
ATOM     33  N   UNL     1      37.970   2.762  16.797  0.00  0.00    +0.000 N 
ATOM     34  C   UNL     1      38.217   1.577  17.451  0.00  0.00    +0.000 A 
ATOM     35  O   UNL     1      38.287   0.510  16.840  0.00  0.00    +0.000 OA
ATOM     36  C   UNL     1      38.409   1.702  18.881  0.00  0.00    +0.000 A 
ATOM     37  H   UNL     1      37.839   2.694  15.797  0.00  0.00    +0.000 HD
ENDBRANCH  24  27
ENDBRANCH  22  23
ENDBRANCH   4  22
TORSDOF 10
ENDMDL
MODEL 7
REMARK VINA RESULT:    -4.858     10.763     12.099
REMARK INTER + INTRA:          -8.614
REMARK INTER:                  -7.320
REMARK INTRA:                  -1.293
REMARK UNBOUND:                -1.057
REMARK  Name = 
REMARK  10 active torsions:
REMARK  status: ('A' for Active; 'I' for Inactive)
REMARK    1  A    between atoms: N_1  and  C_2
REMARK    2  A    between atoms: C_2  and  C_3
REMARK    3  A    between atoms: C_3  and  N_4
REMARK    4  A    between atoms: N_4  and  C_5
REMARK    5  A    between atoms: C_5  and  C_6
REMARK    6  A    between atoms: C_9  and  C_10
REMARK    7  A    between atoms: C_10  and  C_11
REMARK    8  A    between atoms: C_14  and  C_15
REMARK    9  A    between atoms: C_15  and  N_16
REMARK   10  A    between atoms: C_17  and  C_19
REMARK                            x       y       z     vdW  Elec       q    Type
REMARK                         _______ _______ _______ _____ _____    ______ ____
ROOT
ATOM      1  C   UNL     1      36.855  -1.984  10.156  0.00  0.00    +0.000 A 
ATOM      2  C   UNL     1      38.124  -1.505  10.471  0.00  0.00    +0.000 A 
ATOM      3  C   UNL     1      39.075  -2.388  10.982  0.00  0.00    +0.000 A 
ATOM      4  C   UNL     1      38.748  -3.733  11.171  0.00  0.00    +0.000 A 
ATOM      5  C   UNL     1      37.447  -4.112  10.859  0.00  0.00    +0.000 A 
ATOM      6  N   UNL     1      36.503  -3.279  10.356  0.00  0.00    +0.000 NA
ENDROOT
BRANCH   1   7
ATOM      7  C   UNL     1      35.823  -1.067   9.538  0.00  0.00    +0.000 C 
BRANCH   7  11
ATOM      8  C   UNL     1      37.245   1.009   6.097  0.00  0.00    +0.000 A 
ATOM      9  C   UNL     1      37.237  -0.382   6.074  0.00  0.00    +0.000 A 
ATOM     10  C   UNL     1      36.745  -1.074   7.176  0.00  0.00    +0.000 A 
ATOM     11  C   UNL     1      36.284  -0.365   8.287  0.00  0.00    +0.000 A 
ATOM     12  C   UNL     1      36.320   1.026   8.218  0.00  0.00    +0.000 A 
ATOM     13  N   UNL     1      36.779   1.724   7.152  0.00  0.00    +0.000 NA
BRANCH   8  14
ATOM     14  C   UNL     1      37.698   1.769   4.867  0.00  0.00    +0.000 C 
BRANCH  14  15
ATOM     15  N   UNL     1      37.149   3.141   4.792  0.00  0.00    +0.000 NA
ATOM     16  H   UNL     1      36.376   3.111   4.122  0.00  0.00    +0.000 HD
BRANCH  15  17
ATOM     17  C   UNL     1      38.143   4.078   4.230  0.00  0.00    +0.000 C 
BRANCH  17  18
ATOM     18  C   UNL     1      39.541   3.933   4.861  0.00  0.00    +0.000 C 
BRANCH  18  19
ATOM     19  N   UNL     1      39.968   5.199   5.468  0.00  0.00    +0.000 NA
ATOM     20  H   UNL     1      40.487   4.993   6.321  0.00  0.00    +0.000 HD
ATOM     21  H   UNL     1      39.138   5.717   5.756  0.00  0.00    +0.000 HD
ENDBRANCH  18  19
ENDBRANCH  17  18
ENDBRANCH  15  17
ENDBRANCH  14  15
ENDBRANCH   8  14
ENDBRANCH   7  11
ENDBRANCH   1   7
BRANCH   4  22
ATOM     22  C   UNL     1      39.730  -4.734  11.710  0.00  0.00    +0.000 C 
BRANCH  22  23
ATOM     23  N   UNL     1      39.972  -4.541  13.118  0.00  0.00    +0.000 N 
ATOM     24  C   UNL     1      41.150  -4.010  13.583  0.00  0.00    +0.000 C 
ATOM     25  O   UNL     1      42.041  -3.628  12.830  0.00  0.00    +0.000 OA
ATOM     26  H   UNL     1      39.401  -5.083  13.757  0.00  0.00    +0.000 HD
BRANCH  24  27
ATOM     27  C   UNL     1      41.251  -3.862  15.043  0.00  0.00    +0.000 A 
ATOM     28  C   UNL     1      42.081  -4.705  15.771  0.00  0.00    +0.000 A 
ATOM     29  S   UNL     1      42.114  -4.354  17.441  0.00  0.00    +0.000 S 
ATOM     30  C   UNL     1      40.980  -3.099  17.259  0.00  0.00    +0.000 A 
ATOM     31  N   UNL     1      40.539  -2.388  18.334  0.00  0.00    +0.000 NA
ATOM     32  C   UNL     1      39.660  -1.478  18.056  0.00  0.00    +0.000 A 
ATOM     33  N   UNL     1      39.196  -1.213  16.792  0.00  0.00    +0.000 N 
ATOM     34  C   UNL     1      39.637  -1.885  15.676  0.00  0.00    +0.000 A 
ATOM     35  O   UNL     1      39.242  -1.585  14.549  0.00  0.00    +0.000 OA
ATOM     36  C   UNL     1      40.605  -2.931  15.940  0.00  0.00    +0.000 A 
ATOM     37  H   UNL     1      38.524  -0.476  16.627  0.00  0.00    +0.000 HD
ENDBRANCH  24  27
ENDBRANCH  22  23
ENDBRANCH   4  22
TORSDOF 10
ENDMDL
MODEL 8
REMARK VINA RESULT:    -4.848     10.633     14.642
REMARK INTER + INTRA:          -8.598
REMARK INTER:                  -7.241
REMARK INTRA:                  -1.357
REMARK UNBOUND:                -1.057
REMARK  Name = 
REMARK  10 active torsions:
REMARK  status: ('A' for Active; 'I' for Inactive)
REMARK    1  A    between atoms: N_1  and  C_2
REMARK    2  A    between atoms: C_2  and  C_3
REMARK    3  A    between atoms: C_3  and  N_4
REMARK    4  A    between atoms: N_4  and  C_5
REMARK    5  A    between atoms: C_5  and  C_6
REMARK    6  A    between atoms: C_9  and  C_10
REMARK    7  A    between atoms: C_10  and  C_11
REMARK    8  A    between atoms: C_14  and  C_15
REMARK    9  A    between atoms: C_15  and  N_16
REMARK   10  A    between atoms: C_17  and  C_19
REMARK                            x       y       z     vdW  Elec       q    Type
REMARK                         _______ _______ _______ _____ _____    ______ ____
ROOT
ATOM      1  C   UNL     1      40.974  -3.818  14.893  0.00  0.00    +0.000 A 
ATOM      2  C   UNL     1      41.476  -3.134  13.789  0.00  0.00    +0.000 A 
ATOM      3  C   UNL     1      41.019  -3.475  12.515  0.00  0.00    +0.000 A 
ATOM      4  C   UNL     1      40.073  -4.491  12.362  0.00  0.00    +0.000 A 
ATOM      5  C   UNL     1      39.655  -5.139  13.520  0.00  0.00    +0.000 A 
ATOM      6  N   UNL     1      40.075  -4.826  14.770  0.00  0.00    +0.000 NA
ENDROOT
BRANCH   1   7
ATOM      7  C   UNL     1      41.398  -3.427  16.292  0.00  0.00    +0.000 C 
BRANCH   7  11
ATOM      8  C   UNL     1      38.919  -0.613  18.319  0.00  0.00    +0.000 A 
ATOM      9  C   UNL     1      39.022  -0.526  16.934  0.00  0.00    +0.000 A 
ATOM     10  C   UNL     1      39.801  -1.457  16.255  0.00  0.00    +0.000 A 
ATOM     11  C   UNL     1      40.474  -2.449  16.971  0.00  0.00    +0.000 A 
ATOM     12  C   UNL     1      40.304  -2.466  18.353  0.00  0.00    +0.000 A 
ATOM     13  N   UNL     1      39.540  -1.582  19.038  0.00  0.00    +0.000 NA
BRANCH   8  14
ATOM     14  C   UNL     1      38.004   0.344  19.057  0.00  0.00    +0.000 C 
BRANCH  14  15
ATOM     15  N   UNL     1      37.735   1.591  18.307  0.00  0.00    +0.000 NA
ATOM     16  H   UNL     1      38.140   1.466  17.376  0.00  0.00    +0.000 HD
BRANCH  15  17
ATOM     17  C   UNL     1      38.448   2.735  18.914  0.00  0.00    +0.000 C 
BRANCH  17  18
ATOM     18  C   UNL     1      38.511   3.969  17.994  0.00  0.00    +0.000 C 
BRANCH  18  19
ATOM     19  N   UNL     1      39.563   3.808  16.984  0.00  0.00    +0.000 NA
ATOM     20  H   UNL     1      39.661   4.684  16.473  0.00  0.00    +0.000 HD
ATOM     21  H   UNL     1      39.258   3.112  16.305  0.00  0.00    +0.000 HD
ENDBRANCH  18  19
ENDBRANCH  17  18
ENDBRANCH  15  17
ENDBRANCH  14  15
ENDBRANCH   8  14
ENDBRANCH   7  11
ENDBRANCH   1   7
BRANCH   4  22
ATOM     22  C   UNL     1      39.537  -4.899  11.019  0.00  0.00    +0.000 C 
BRANCH  22  23
ATOM     23  N   UNL     1      38.939  -3.789  10.322  0.00  0.00    +0.000 N 
ATOM     24  C   UNL     1      37.577  -3.662  10.198  0.00  0.00    +0.000 C 
ATOM     25  O   UNL     1      36.794  -4.458  10.710  0.00  0.00    +0.000 OA
ATOM     26  H   UNL     1      39.531  -3.285   9.672  0.00  0.00    +0.000 HD
BRANCH  24  27
ATOM     27  C   UNL     1      37.110  -2.473   9.470  0.00  0.00    +0.000 A 
ATOM     28  C   UNL     1      36.429  -2.616   8.269  0.00  0.00    +0.000 A 
ATOM     29  S   UNL     1      35.916  -1.135   7.593  0.00  0.00    +0.000 S 
ATOM     30  C   UNL     1      36.632  -0.246   8.854  0.00  0.00    +0.000 A 
ATOM     31  N   UNL     1      36.586   1.115   8.870  0.00  0.00    +0.000 NA
ATOM     32  C   UNL     1      37.191   1.666   9.875  0.00  0.00    +0.000 A 
ATOM     33  N   UNL     1      37.827   0.966  10.870  0.00  0.00    +0.000 N 
ATOM     34  C   UNL     1      37.871  -0.408  10.910  0.00  0.00    +0.000 A 
ATOM     35  O   UNL     1      38.402  -1.006  11.846  0.00  0.00    +0.000 OA
ATOM     36  C   UNL     1      37.228  -1.069   9.792  0.00  0.00    +0.000 A 
ATOM     37  H   UNL     1      38.267   1.444  11.645  0.00  0.00    +0.000 HD
ENDBRANCH  24  27
ENDBRANCH  22  23
ENDBRANCH   4  22
TORSDOF 10
ENDMDL
MODEL 9
REMARK VINA RESULT:    -4.702     11.444     14.717
REMARK INTER + INTRA:          -8.371
REMARK INTER:                  -7.055
REMARK INTRA:                  -1.316
REMARK UNBOUND:                -1.057
REMARK  Name = 
REMARK  10 active torsions:
REMARK  status: ('A' for Active; 'I' for Inactive)
REMARK    1  A    between atoms: N_1  and  C_2
REMARK    2  A    between atoms: C_2  and  C_3
REMARK    3  A    between atoms: C_3  and  N_4
REMARK    4  A    between atoms: N_4  and  C_5
REMARK    5  A    between atoms: C_5  and  C_6
REMARK    6  A    between atoms: C_9  and  C_10
REMARK    7  A    between atoms: C_10  and  C_11
REMARK    8  A    between atoms: C_14  and  C_15
REMARK    9  A    between atoms: C_15  and  N_16
REMARK   10  A    between atoms: C_17  and  C_19
REMARK                            x       y       z     vdW  Elec       q    Type
REMARK                         _______ _______ _______ _____ _____    ______ ____
ROOT
ATOM      1  C   UNL     1      40.898  -4.259  15.207  0.00  0.00    +0.000 A 
ATOM      2  C   UNL     1      41.503  -3.834  14.027  0.00  0.00    +0.000 A 
ATOM      3  C   UNL     1      40.916  -4.166  12.805  0.00  0.00    +0.000 A 
ATOM      4  C   UNL     1      39.738  -4.916  12.779  0.00  0.00    +0.000 A 
ATOM      5  C   UNL     1      39.225  -5.323  14.006  0.00  0.00    +0.000 A 
ATOM      6  N   UNL     1      39.769  -5.011  15.208  0.00  0.00    +0.000 NA
ENDROOT
BRANCH   1   7
ATOM      7  C   UNL     1      41.472  -3.858  16.548  0.00  0.00    +0.000 C 
BRANCH   7  11
ATOM      8  C   UNL     1      44.747  -6.189  17.969  0.00  0.00    +0.000 A 
ATOM      9  C   UNL     1      43.978  -6.696  16.926  0.00  0.00    +0.000 A 
ATOM     10  C   UNL     1      42.926  -5.933  16.429  0.00  0.00    +0.000 A 
ATOM     11  C   UNL     1      42.652  -4.685  16.992  0.00  0.00    +0.000 A 
ATOM     12  C   UNL     1      43.481  -4.254  18.025  0.00  0.00    +0.000 A 
ATOM     13  N   UNL     1      44.520  -4.969  18.517  0.00  0.00    +0.000 NA
BRANCH   8  14
ATOM     14  C   UNL     1      45.947  -6.977  18.457  0.00  0.00    +0.000 C 
BRANCH  14  15
ATOM     15  N   UNL     1      47.199  -6.188  18.468  0.00  0.00    +0.000 NA
ATOM     16  H   UNL     1      46.935  -5.224  18.686  0.00  0.00    +0.000 HD
BRANCH  15  17
ATOM     17  C   UNL     1      47.811  -6.152  17.124  0.00  0.00    +0.000 C 
BRANCH  17  18
ATOM     18  C   UNL     1      47.897  -7.539  16.457  0.00  0.00    +0.000 C 
BRANCH  18  19
ATOM     19  N   UNL     1      47.702  -7.428  15.007  0.00  0.00    +0.000 NA
ATOM     20  H   UNL     1      47.776  -6.447  14.742  0.00  0.00    +0.000 HD
ATOM     21  H   UNL     1      46.750  -7.714  14.784  0.00  0.00    +0.000 HD
ENDBRANCH  18  19
ENDBRANCH  17  18
ENDBRANCH  15  17
ENDBRANCH  14  15
ENDBRANCH   8  14
ENDBRANCH   7  11
ENDBRANCH   1   7
BRANCH   4  22
ATOM     22  C   UNL     1      39.055  -5.299  11.497  0.00  0.00    +0.000 C 
BRANCH  22  23
ATOM     23  N   UNL     1      38.341  -4.189  10.919  0.00  0.00    +0.000 N 
ATOM     24  C   UNL     1      38.652  -3.698   9.675  0.00  0.00    +0.000 C 
ATOM     25  O   UNL     1      39.520  -4.202   8.968  0.00  0.00    +0.000 OA
ATOM     26  H   UNL     1      37.829  -3.592  11.559  0.00  0.00    +0.000 HD
BRANCH  24  27
ATOM     27  C   UNL     1      37.831  -2.569   9.210  0.00  0.00    +0.000 A 
ATOM     28  C   UNL     1      37.085  -2.686   8.045  0.00  0.00    +0.000 A 
ATOM     29  S   UNL     1      36.154  -1.300   7.689  0.00  0.00    +0.000 S 
ATOM     30  C   UNL     1      36.756  -0.475   9.050  0.00  0.00    +0.000 A 
ATOM     31  N   UNL     1      36.377   0.804   9.321  0.00  0.00    +0.000 NA
ATOM     32  C   UNL     1      36.929   1.320  10.374  0.00  0.00    +0.000 A 
ATOM     33  N   UNL     1      37.819   0.658  11.182  0.00  0.00    +0.000 N 
ATOM     34  C   UNL     1      38.205  -0.644  10.962  0.00  0.00    +0.000 A 
ATOM     35  O   UNL     1      38.963  -1.228  11.738  0.00  0.00    +0.000 OA
ATOM     36  C   UNL     1      37.632  -1.256   9.781  0.00  0.00    +0.000 A 
ATOM     37  H   UNL     1      38.206   1.100  12.005  0.00  0.00    +0.000 HD
ENDBRANCH  24  27
ENDBRANCH  22  23
ENDBRANCH   4  22
TORSDOF 10
ENDMDL
