MODEL 1
REMARK VINA RESULT:    -8.238      0.000      0.000
REMARK INTER + INTRA:         -14.906
REMARK INTER:                 -13.054
REMARK INTRA:                  -1.851
REMARK UNBOUND:                -1.851
REMARK  Name = 
REMARK  10 active torsions:
REMARK  status: ('A' for Active; 'I' for Inactive)
REMARK    1  A    between atoms: C_2  and  C_4
REMARK    2  A    between atoms: C_4  and  C_5
REMARK    3  A    between atoms: C_5  and  C_6
REMARK    4  A    between atoms: C_6  and  N_7
REMARK    5  A    between atoms: C_6  and  C_29
REMARK    6  A    between atoms: N_7  and  C_8
REMARK    7  A    between atoms: C_8  and  C_9
REMARK    8  A    between atoms: C_12  and  C_13
REMARK    9  A    between atoms: C_13  and  N_14
REMARK   10  A    between atoms: C_15  and  C_17
REMARK                            x       y       z     vdW  Elec       q    Type
REMARK                         _______ _______ _______ _____ _____    ______ ____
ROOT
ATOM      1  C   UNL     1      45.271   6.662  11.226  0.00  0.00    +0.000 A 
ATOM      2  C   UNL     1      44.887   7.910  11.714  0.00  0.00    +0.000 A 
ATOM      3  C   UNL     1      45.697   8.549  12.649  0.00  0.00    +0.000 A 
ATOM      4  C   UNL     1      46.866   7.929  13.093  0.00  0.00    +0.000 A 
ATOM      5  C   UNL     1      47.187   6.698  12.529  0.00  0.00    +0.000 A 
ATOM      6  N   UNL     1      46.425   6.053  11.613  0.00  0.00    +0.000 NA
ENDROOT
BRANCH   1   7
ATOM      7  C   UNL     1      44.392   5.939  10.216  0.00  0.00    +0.000 C 
BRANCH   7   8
ATOM      8  N   UNL     1      45.197   5.106   9.310  0.00  0.00    +0.000 NA
ATOM      9  H   UNL     1      45.092   5.502   8.376  0.00  0.00    +0.000 HD
BRANCH   8  10
ATOM     10  C   UNL     1      44.816   3.681   9.323  0.00  0.00    +0.000 C 
BRANCH  10  11
ATOM     11  C   UNL     1      45.631   2.855   8.318  0.00  0.00    +0.000 A 
ATOM     12  C   UNL     1      46.118   3.446   7.151  0.00  0.00    +0.000 A 
ATOM     13  C   UNL     1      46.885   2.679   6.273  0.00  0.00    +0.000 A 
ATOM     14  C   UNL     1      47.153   1.353   6.582  0.00  0.00    +0.000 A 
ATOM     15  C   UNL     1      46.651   0.845   7.766  0.00  0.00    +0.000 A 
ATOM     16  N   UNL     1      45.913   1.565   8.636  0.00  0.00    +0.000 NA
ENDBRANCH  10  11
BRANCH  10  17
ATOM     17  C   UNL     1      44.815   3.008  10.719  0.00  0.00    +0.000 C 
BRANCH  17  18
ATOM     18  C   UNL     1      43.484   3.110  11.460  0.00  0.00    +0.000 C 
BRANCH  18  20
ATOM     19  N   UNL     1      44.862   3.769  13.328  0.00  0.00    +0.000 N 
ATOM     20  C   UNL     1      43.621   3.870  12.766  0.00  0.00    +0.000 C 
ATOM     21  O   UNL     1      42.739   4.521  13.302  0.00  0.00    +0.000 OA
ATOM     22  H   UNL     1      45.007   4.216  14.225  0.00  0.00    +0.000 HD
ATOM     23  H   UNL     1      45.590   3.178  12.956  0.00  0.00    +0.000 HD
ENDBRANCH  18  20
ENDBRANCH  17  18
ENDBRANCH  10  17
ENDBRANCH   8  10
ENDBRANCH   7   8
ENDBRANCH   1   7
BRANCH   4  24
ATOM     24  C   UNL     1      47.749   8.575  14.116  0.00  0.00    +0.000 C 
BRANCH  24  25
ATOM     25  N   UNL     1      48.010   7.695  15.226  0.00  0.00    +0.000 N 
ATOM     26  C   UNL     1      49.235   7.096  15.374  0.00  0.00    +0.000 C 
ATOM     27  O   UNL     1      50.161   7.313  14.596  0.00  0.00    +0.000 OA
ATOM     28  H   UNL     1      47.208   7.319  15.725  0.00  0.00    +0.000 HD
BRANCH  26  29
ATOM     29  C   UNL     1      49.409   6.234  16.549  0.00  0.00    +0.000 A 
ATOM     30  C   UNL     1      50.405   6.529  17.472  0.00  0.00    +0.000 A 
ATOM     31  S   UNL     1      50.445   5.459  18.798  0.00  0.00    +0.000 S 
ATOM     32  C   UNL     1      49.167   4.534  18.161  0.00  0.00    +0.000 A 
ATOM     33  N   UNL     1      48.717   3.425  18.807  0.00  0.00    +0.000 NA
ATOM     34  C   UNL     1      47.765   2.802  18.198  0.00  0.00    +0.000 A 
ATOM     35  N   UNL     1      47.216   3.192  17.004  0.00  0.00    +0.000 N 
ATOM     36  C   UNL     1      47.614   4.323  16.332  0.00  0.00    +0.000 A 
ATOM     37  O   UNL     1      47.069   4.675  15.291  0.00  0.00    +0.000 OA
ATOM     38  C   UNL     1      48.698   5.049  16.966  0.00  0.00    +0.000 A 
ATOM     39  H   UNL     1      46.462   2.665  16.586  0.00  0.00    +0.000 HD
ENDBRANCH  26  29
ENDBRANCH  24  25
ENDBRANCH   4  24
TORSDOF 10
ENDMDL
MODEL 2
REMARK VINA RESULT:    -7.337      1.811      2.089
REMARK INTER + INTRA:         -13.478
REMARK INTER:                 -12.410
REMARK INTRA:                  -1.068
REMARK UNBOUND:                -1.851
REMARK  Name = 
REMARK  10 active torsions:
REMARK  status: ('A' for Active; 'I' for Inactive)
REMARK    1  A    between atoms: C_2  and  C_4
REMARK    2  A    between atoms: C_4  and  C_5
REMARK    3  A    between atoms: C_5  and  C_6
REMARK    4  A    between atoms: C_6  and  N_7
REMARK    5  A    between atoms: C_6  and  C_29
REMARK    6  A    between atoms: N_7  and  C_8
REMARK    7  A    between atoms: C_8  and  C_9
REMARK    8  A    between atoms: C_12  and  C_13
REMARK    9  A    between atoms: C_13  and  N_14
REMARK   10  A    between atoms: C_15  and  C_17
REMARK                            x       y       z     vdW  Elec       q    Type
REMARK                         _______ _______ _______ _____ _____    ______ ____
ROOT
ATOM      1  C   UNL     1      45.731   6.957  11.374  0.00  0.00    +0.000 A 
ATOM      2  C   UNL     1      45.217   7.952  12.202  0.00  0.00    +0.000 A 
ATOM      3  C   UNL     1      46.019   8.471  13.215  0.00  0.00    +0.000 A 
ATOM      4  C   UNL     1      47.312   7.979  13.396  0.00  0.00    +0.000 A 
ATOM      5  C   UNL     1      47.753   7.007  12.504  0.00  0.00    +0.000 A 
ATOM      6  N   UNL     1      47.002   6.486  11.504  0.00  0.00    +0.000 NA
ENDROOT
BRANCH   1   7
ATOM      7  C   UNL     1      44.866   6.365  10.271  0.00  0.00    +0.000 C 
BRANCH   7   8
ATOM      8  N   UNL     1      45.627   5.411   9.450  0.00  0.00    +0.000 NA
ATOM      9  H   UNL     1      45.763   5.850   8.540  0.00  0.00    +0.000 HD
BRANCH   8  10
ATOM     10  C   UNL     1      44.971   4.097   9.309  0.00  0.00    +0.000 C 
BRANCH  10  11
ATOM     11  C   UNL     1      45.734   3.170   8.353  0.00  0.00    +0.000 A 
ATOM     12  C   UNL     1      46.402   3.695   7.245  0.00  0.00    +0.000 A 
ATOM     13  C   UNL     1      47.116   2.831   6.414  0.00  0.00    +0.000 A 
ATOM     14  C   UNL     1      47.153   1.476   6.710  0.00  0.00    +0.000 A 
ATOM     15  C   UNL     1      46.482   1.035   7.835  0.00  0.00    +0.000 A 
ATOM     16  N   UNL     1      45.790   1.848   8.660  0.00  0.00    +0.000 NA
ENDBRANCH  10  11
BRANCH  10  17
ATOM     17  C   UNL     1      44.645   3.373  10.638  0.00  0.00    +0.000 C 
BRANCH  17  18
ATOM     18  C   UNL     1      43.378   3.874  11.328  0.00  0.00    +0.000 C 
BRANCH  18  20
ATOM     19  N   UNL     1      42.738   5.276  13.186  0.00  0.00    +0.000 N 
ATOM     20  C   UNL     1      43.659   4.373  12.734  0.00  0.00    +0.000 C 
ATOM     21  O   UNL     1      44.600   4.032  13.431  0.00  0.00    +0.000 OA
ATOM     22  H   UNL     1      42.892   5.683  14.099  0.00  0.00    +0.000 HD
ATOM     23  H   UNL     1      41.993   5.640  12.610  0.00  0.00    +0.000 HD
ENDBRANCH  18  20
ENDBRANCH  17  18
ENDBRANCH  10  17
ENDBRANCH   8  10
ENDBRANCH   7   8
ENDBRANCH   1   7
BRANCH   4  24
ATOM     24  C   UNL     1      48.195   8.495  14.490  0.00  0.00    +0.000 C 
BRANCH  24  25
ATOM     25  N   UNL     1      48.067   7.711  15.692  0.00  0.00    +0.000 N 
ATOM     26  C   UNL     1      48.989   6.741  15.998  0.00  0.00    +0.000 C 
ATOM     27  O   UNL     1      49.968   6.531  15.287  0.00  0.00    +0.000 OA
ATOM     28  H   UNL     1      47.160   7.699  16.149  0.00  0.00    +0.000 HD
BRANCH  26  29
ATOM     29  C   UNL     1      48.783   6.011  17.254  0.00  0.00    +0.000 A 
ATOM     30  C   UNL     1      49.041   4.648  17.302  0.00  0.00    +0.000 A 
ATOM     31  S   UNL     1      48.796   3.960  18.843  0.00  0.00    +0.000 S 
ATOM     32  C   UNL     1      48.289   5.450  19.488  0.00  0.00    +0.000 A 
ATOM     33  N   UNL     1      47.896   5.553  20.786  0.00  0.00    +0.000 NA
ATOM     34  C   UNL     1      47.508   6.733  21.134  0.00  0.00    +0.000 A 
ATOM     35  N   UNL     1      47.484   7.824  20.304  0.00  0.00    +0.000 N 
ATOM     36  C   UNL     1      47.903   7.777  18.996  0.00  0.00    +0.000 A 
ATOM     37  O   UNL     1      47.918   8.781  18.291  0.00  0.00    +0.000 OA
ATOM     38  C   UNL     1      48.330   6.464  18.548  0.00  0.00    +0.000 A 
ATOM     39  H   UNL     1      47.180   8.725  20.644  0.00  0.00    +0.000 HD
ENDBRANCH  26  29
ENDBRANCH  24  25
ENDBRANCH   4  24
TORSDOF 10
ENDMDL
MODEL 3
REMARK VINA RESULT:    -7.188      3.111      7.885
REMARK INTER + INTRA:         -13.242
REMARK INTER:                 -11.565
REMARK INTRA:                  -1.677
REMARK UNBOUND:                -1.851
REMARK  Name = 
REMARK  10 active torsions:
REMARK  status: ('A' for Active; 'I' for Inactive)
REMARK    1  A    between atoms: C_2  and  C_4
REMARK    2  A    between atoms: C_4  and  C_5
REMARK    3  A    between atoms: C_5  and  C_6
REMARK    4  A    between atoms: C_6  and  N_7
REMARK    5  A    between atoms: C_6  and  C_29
REMARK    6  A    between atoms: N_7  and  C_8
REMARK    7  A    between atoms: C_8  and  C_9
REMARK    8  A    between atoms: C_12  and  C_13
REMARK    9  A    between atoms: C_13  and  N_14
REMARK   10  A    between atoms: C_15  and  C_17
REMARK                            x       y       z     vdW  Elec       q    Type
REMARK                         _______ _______ _______ _____ _____    ______ ____
ROOT
ATOM      1  C   UNL     1      49.334   7.593  16.004  0.00  0.00    +0.000 A 
ATOM      2  C   UNL     1      48.909   8.864  15.621  0.00  0.00    +0.000 A 
ATOM      3  C   UNL     1      48.507   9.075  14.305  0.00  0.00    +0.000 A 
ATOM      4  C   UNL     1      48.550   8.023  13.389  0.00  0.00    +0.000 A 
ATOM      5  C   UNL     1      48.960   6.782  13.866  0.00  0.00    +0.000 A 
ATOM      6  N   UNL     1      49.349   6.540  15.140  0.00  0.00    +0.000 NA
ENDROOT
BRANCH   1   7
ATOM      7  C   UNL     1      49.793   7.344  17.433  0.00  0.00    +0.000 C 
BRANCH   7   8
ATOM      8  N   UNL     1      50.656   6.156  17.516  0.00  0.00    +0.000 NA
ATOM      9  H   UNL     1      51.266   6.177  16.699  0.00  0.00    +0.000 HD
BRANCH   8  10
ATOM     10  C   UNL     1      49.908   4.886  17.581  0.00  0.00    +0.000 C 
BRANCH  10  11
ATOM     11  C   UNL     1      50.840   3.670  17.674  0.00  0.00    +0.000 A 
ATOM     12  C   UNL     1      50.382   2.401  17.316  0.00  0.00    +0.000 A 
ATOM     13  C   UNL     1      51.263   1.321  17.379  0.00  0.00    +0.000 A 
ATOM     14  C   UNL     1      52.573   1.532  17.785  0.00  0.00    +0.000 A 
ATOM     15  C   UNL     1      52.956   2.821  18.105  0.00  0.00    +0.000 A 
ATOM     16  N   UNL     1      52.129   3.885  18.047  0.00  0.00    +0.000 NA
ENDBRANCH  10  11
BRANCH  10  17
ATOM     17  C   UNL     1      48.804   4.821  18.667  0.00  0.00    +0.000 C 
BRANCH  17  18
ATOM     18  C   UNL     1      47.390   5.042  18.134  0.00  0.00    +0.000 C 
BRANCH  18  20
ATOM     19  N   UNL     1      46.895   4.422  15.854  0.00  0.00    +0.000 N 
ATOM     20  C   UNL     1      46.986   3.969  17.140  0.00  0.00    +0.000 C 
ATOM     21  O   UNL     1      46.754   2.802  17.413  0.00  0.00    +0.000 OA
ATOM     22  H   UNL     1      46.586   3.767  15.148  0.00  0.00    +0.000 HD
ATOM     23  H   UNL     1      47.003   5.394  15.603  0.00  0.00    +0.000 HD
ENDBRANCH  18  20
ENDBRANCH  17  18
ENDBRANCH  10  17
ENDBRANCH   8  10
ENDBRANCH   7   8
ENDBRANCH   1   7
BRANCH   4  24
ATOM     24  C   UNL     1      48.149   8.219  11.959  0.00  0.00    +0.000 C 
BRANCH  24  25
ATOM     25  N   UNL     1      47.496   7.052  11.424  0.00  0.00    +0.000 N 
ATOM     26  C   UNL     1      46.127   6.981  11.364  0.00  0.00    +0.000 C 
ATOM     27  O   UNL     1      45.412   7.913  11.725  0.00  0.00    +0.000 OA
ATOM     28  H   UNL     1      48.043   6.199  11.355  0.00  0.00    +0.000 HD
BRANCH  26  29
ATOM     29  C   UNL     1      45.557   5.760  10.783  0.00  0.00    +0.000 A 
ATOM     30  C   UNL     1      45.711   5.512   9.425  0.00  0.00    +0.000 A 
ATOM     31  S   UNL     1      45.031   4.034   8.918  0.00  0.00    +0.000 S 
ATOM     32  C   UNL     1      44.461   3.695  10.485  0.00  0.00    +0.000 A 
ATOM     33  N   UNL     1      43.749   2.566  10.742  0.00  0.00    +0.000 NA
ATOM     34  C   UNL     1      43.354   2.450  11.965  0.00  0.00    +0.000 A 
ATOM     35  N   UNL     1      43.613   3.359  12.958  0.00  0.00    +0.000 N 
ATOM     36  C   UNL     1      44.357   4.497  12.755  0.00  0.00    +0.000 A 
ATOM     37  O   UNL     1      44.615   5.266  13.675  0.00  0.00    +0.000 OA
ATOM     38  C   UNL     1      44.808   4.685  11.389  0.00  0.00    +0.000 A 
ATOM     39  H   UNL     1      43.284   3.202  13.900  0.00  0.00    +0.000 HD
ENDBRANCH  26  29
ENDBRANCH  24  25
ENDBRANCH   4  24
TORSDOF 10
ENDMDL
MODEL 4
REMARK VINA RESULT:    -6.981      3.120      8.401
REMARK INTER + INTRA:         -12.913
REMARK INTER:                 -11.155
REMARK INTRA:                  -1.758
REMARK UNBOUND:                -1.851
REMARK  Name = 
REMARK  10 active torsions:
REMARK  status: ('A' for Active; 'I' for Inactive)
REMARK    1  A    between atoms: C_2  and  C_4
REMARK    2  A    between atoms: C_4  and  C_5
REMARK    3  A    between atoms: C_5  and  C_6
REMARK    4  A    between atoms: C_6  and  N_7
REMARK    5  A    between atoms: C_6  and  C_29
REMARK    6  A    between atoms: N_7  and  C_8
REMARK    7  A    between atoms: C_8  and  C_9
REMARK    8  A    between atoms: C_12  and  C_13
REMARK    9  A    between atoms: C_13  and  N_14
REMARK   10  A    between atoms: C_15  and  C_17
REMARK                            x       y       z     vdW  Elec       q    Type
REMARK                         _______ _______ _______ _____ _____    ______ ____
ROOT
ATOM      1  C   UNL     1      50.208   6.920  15.517  0.00  0.00    +0.000 A 
ATOM      2  C   UNL     1      50.750   7.963  14.767  0.00  0.00    +0.000 A 
ATOM      3  C   UNL     1      50.122   8.344  13.585  0.00  0.00    +0.000 A 
ATOM      4  C   UNL     1      48.975   7.671  13.161  0.00  0.00    +0.000 A 
ATOM      5  C   UNL     1      48.487   6.662  13.986  0.00  0.00    +0.000 A 
ATOM      6  N   UNL     1      49.069   6.272  15.146  0.00  0.00    +0.000 NA
ENDROOT
BRANCH   1   7
ATOM      7  C   UNL     1      50.887   6.477  16.804  0.00  0.00    +0.000 C 
BRANCH   7   8
ATOM      8  N   UNL     1      50.693   5.039  17.041  0.00  0.00    +0.000 NA
ATOM      9  H   UNL     1      50.088   4.697  16.296  0.00  0.00    +0.000 HD
BRANCH   8  10
ATOM     10  C   UNL     1      50.123   4.730  18.366  0.00  0.00    +0.000 C 
BRANCH  10  11
ATOM     11  C   UNL     1      49.395   5.935  18.977  0.00  0.00    +0.000 A 
ATOM     12  C   UNL     1      50.042   6.755  19.903  0.00  0.00    +0.000 A 
ATOM     13  C   UNL     1      49.367   7.863  20.415  0.00  0.00    +0.000 A 
ATOM     14  C   UNL     1      48.074   8.131  19.987  0.00  0.00    +0.000 A 
ATOM     15  C   UNL     1      47.508   7.284  19.053  0.00  0.00    +0.000 A 
ATOM     16  N   UNL     1      48.139   6.210  18.536  0.00  0.00    +0.000 NA
ENDBRANCH  10  11
BRANCH  10  17
ATOM     17  C   UNL     1      49.237   3.461  18.427  0.00  0.00    +0.000 C 
BRANCH  17  18
ATOM     18  C   UNL     1      48.848   2.904  17.059  0.00  0.00    +0.000 C 
BRANCH  18  20
ATOM     19  N   UNL     1      47.256   3.651  15.407  0.00  0.00    +0.000 N 
ATOM     20  C   UNL     1      47.412   3.238  16.700  0.00  0.00    +0.000 C 
ATOM     21  O   UNL     1      46.458   3.164  17.456  0.00  0.00    +0.000 OA
ATOM     22  H   UNL     1      46.329   3.933  15.115  0.00  0.00    +0.000 HD
ATOM     23  H   UNL     1      48.031   3.799  14.777  0.00  0.00    +0.000 HD
ENDBRANCH  18  20
ENDBRANCH  17  18
ENDBRANCH  10  17
ENDBRANCH   8  10
ENDBRANCH   7   8
ENDBRANCH   1   7
BRANCH   4  24
ATOM     24  C   UNL     1      48.286   8.036  11.881  0.00  0.00    +0.000 C 
BRANCH  24  25
ATOM     25  N   UNL     1      47.569   6.917  11.325  0.00  0.00    +0.000 N 
ATOM     26  C   UNL     1      46.201   6.851  11.407  0.00  0.00    +0.000 C 
ATOM     27  O   UNL     1      45.538   7.749  11.919  0.00  0.00    +0.000 OA
ATOM     28  H   UNL     1      48.098   6.073  11.125  0.00  0.00    +0.000 HD
BRANCH  26  29
ATOM     29  C   UNL     1      45.561   5.683  10.791  0.00  0.00    +0.000 A 
ATOM     30  C   UNL     1      45.627   5.513   9.414  0.00  0.00    +0.000 A 
ATOM     31  S   UNL     1      44.873   4.087   8.864  0.00  0.00    +0.000 S 
ATOM     32  C   UNL     1      44.388   3.670  10.440  0.00  0.00    +0.000 A 
ATOM     33  N   UNL     1      43.659   2.546  10.673  0.00  0.00    +0.000 NA
ATOM     34  C   UNL     1      43.334   2.367  11.909  0.00  0.00    +0.000 A 
ATOM     35  N   UNL     1      43.678   3.207  12.936  0.00  0.00    +0.000 N 
ATOM     36  C   UNL     1      44.443   4.335  12.755  0.00  0.00    +0.000 A 
ATOM     37  O   UNL     1      44.779   5.040  13.701  0.00  0.00    +0.000 OA
ATOM     38  C   UNL     1      44.817   4.593  11.377  0.00  0.00    +0.000 A 
ATOM     39  H   UNL     1      43.402   3.002  13.886  0.00  0.00    +0.000 HD
ENDBRANCH  26  29
ENDBRANCH  24  25
ENDBRANCH   4  24
TORSDOF 10
ENDMDL
MODEL 5
REMARK VINA RESULT:    -6.892      1.935      2.592
REMARK INTER + INTRA:         -12.773
REMARK INTER:                 -10.836
REMARK INTRA:                  -1.937
REMARK UNBOUND:                -1.851
REMARK  Name = 
REMARK  10 active torsions:
REMARK  status: ('A' for Active; 'I' for Inactive)
REMARK    1  A    between atoms: C_2  and  C_4
REMARK    2  A    between atoms: C_4  and  C_5
REMARK    3  A    between atoms: C_5  and  C_6
REMARK    4  A    between atoms: C_6  and  N_7
REMARK    5  A    between atoms: C_6  and  C_29
REMARK    6  A    between atoms: N_7  and  C_8
REMARK    7  A    between atoms: C_8  and  C_9
REMARK    8  A    between atoms: C_12  and  C_13
REMARK    9  A    between atoms: C_13  and  N_14
REMARK   10  A    between atoms: C_15  and  C_17
REMARK                            x       y       z     vdW  Elec       q    Type
REMARK                         _______ _______ _______ _____ _____    ______ ____
ROOT
ATOM      1  C   UNL     1      46.297   7.728  12.320  0.00  0.00    +0.000 A 
ATOM      2  C   UNL     1      47.384   7.221  11.609  0.00  0.00    +0.000 A 
ATOM      3  C   UNL     1      48.666   7.391  12.123  0.00  0.00    +0.000 A 
ATOM      4  C   UNL     1      48.847   8.076  13.326  0.00  0.00    +0.000 A 
ATOM      5  C   UNL     1      47.703   8.522  13.981  0.00  0.00    +0.000 A 
ATOM      6  N   UNL     1      46.441   8.366  13.514  0.00  0.00    +0.000 NA
ENDROOT
BRANCH   1   7
ATOM      7  C   UNL     1      44.888   7.567  11.768  0.00  0.00    +0.000 C 
BRANCH   7   8
ATOM      8  N   UNL     1      44.860   6.614  10.648  0.00  0.00    +0.000 NA
ATOM      9  H   UNL     1      44.280   7.033   9.921  0.00  0.00    +0.000 HD
BRANCH   8  10
ATOM     10  C   UNL     1      44.356   5.279  11.021  0.00  0.00    +0.000 C 
BRANCH  10  11
ATOM     11  C   UNL     1      44.709   4.215   9.973  0.00  0.00    +0.000 A 
ATOM     12  C   UNL     1      45.562   4.525   8.912  0.00  0.00    +0.000 A 
ATOM     13  C   UNL     1      45.892   3.527   7.995  0.00  0.00    +0.000 A 
ATOM     14  C   UNL     1      45.373   2.250   8.161  0.00  0.00    +0.000 A 
ATOM     15  C   UNL     1      44.551   2.016   9.247  0.00  0.00    +0.000 A 
ATOM     16  N   UNL     1      44.221   2.959  10.152  0.00  0.00    +0.000 NA
ENDBRANCH  10  11
BRANCH  10  17
ATOM     17  C   UNL     1      44.736   4.800  12.444  0.00  0.00    +0.000 C 
BRANCH  17  18
ATOM     18  C   UNL     1      45.972   3.904  12.493  0.00  0.00    +0.000 C 
BRANCH  18  20
ATOM     19  N   UNL     1      46.477   5.185  14.474  0.00  0.00    +0.000 N 
ATOM     20  C   UNL     1      46.689   4.001  13.826  0.00  0.00    +0.000 C 
ATOM     21  O   UNL     1      47.397   3.135  14.314  0.00  0.00    +0.000 OA
ATOM     22  H   UNL     1      46.963   5.333  15.349  0.00  0.00    +0.000 HD
ATOM     23  H   UNL     1      45.963   5.952  14.067  0.00  0.00    +0.000 HD
ENDBRANCH  18  20
ENDBRANCH  17  18
ENDBRANCH  10  17
ENDBRANCH   8  10
ENDBRANCH   7   8
ENDBRANCH   1   7
BRANCH   4  24
ATOM     24  C   UNL     1      50.214   8.301  13.896  0.00  0.00    +0.000 C 
BRANCH  24  25
ATOM     25  N   UNL     1      50.312   7.816  15.249  0.00  0.00    +0.000 N 
ATOM     26  C   UNL     1      51.513   7.388  15.755  0.00  0.00    +0.000 C 
ATOM     27  O   UNL     1      52.548   7.435  15.095  0.00  0.00    +0.000 OA
ATOM     28  H   UNL     1      49.450   7.544  15.714  0.00  0.00    +0.000 HD
BRANCH  26  29
ATOM     29  C   UNL     1      51.515   6.934  17.150  0.00  0.00    +0.000 A 
ATOM     30  C   UNL     1      52.508   7.379  18.014  0.00  0.00    +0.000 A 
ATOM     31  S   UNL     1      52.342   6.795  19.606  0.00  0.00    +0.000 S 
ATOM     32  C   UNL     1      50.966   5.885  19.188  0.00  0.00    +0.000 A 
ATOM     33  N   UNL     1      50.334   5.109  20.108  0.00  0.00    +0.000 NA
ATOM     34  C   UNL     1      49.324   4.450  19.648  0.00  0.00    +0.000 A 
ATOM     35  N   UNL     1      48.883   4.504  18.352  0.00  0.00    +0.000 N 
ATOM     36  C   UNL     1      49.467   5.299  17.395  0.00  0.00    +0.000 A 
ATOM     37  O   UNL     1      49.019   5.365  16.255  0.00  0.00    +0.000 OA
ATOM     38  C   UNL     1      50.622   6.045  17.857  0.00  0.00    +0.000 A 
ATOM     39  H   UNL     1      48.076   3.972  18.059  0.00  0.00    +0.000 HD
ENDBRANCH  26  29
ENDBRANCH  24  25
ENDBRANCH   4  24
TORSDOF 10
ENDMDL
MODEL 6
REMARK VINA RESULT:    -6.630      3.184      8.901
REMARK INTER + INTRA:         -12.357
REMARK INTER:                 -10.703
REMARK INTRA:                  -1.654
REMARK UNBOUND:                -1.851
REMARK  Name = 
REMARK  10 active torsions:
REMARK  status: ('A' for Active; 'I' for Inactive)
REMARK    1  A    between atoms: C_2  and  C_4
REMARK    2  A    between atoms: C_4  and  C_5
REMARK    3  A    between atoms: C_5  and  C_6
REMARK    4  A    between atoms: C_6  and  N_7
REMARK    5  A    between atoms: C_6  and  C_29
REMARK    6  A    between atoms: N_7  and  C_8
REMARK    7  A    between atoms: C_8  and  C_9
REMARK    8  A    between atoms: C_12  and  C_13
REMARK    9  A    between atoms: C_13  and  N_14
REMARK   10  A    between atoms: C_15  and  C_17
REMARK                            x       y       z     vdW  Elec       q    Type
REMARK                         _______ _______ _______ _____ _____    ______ ____
ROOT
ATOM      1  C   UNL     1      49.757   7.095  15.598  0.00  0.00    +0.000 A 
ATOM      2  C   UNL     1      49.979   8.229  14.819  0.00  0.00    +0.000 A 
ATOM      3  C   UNL     1      49.222   8.416  13.665  0.00  0.00    +0.000 A 
ATOM      4  C   UNL     1      48.270   7.464  13.298  0.00  0.00    +0.000 A 
ATOM      5  C   UNL     1      48.096   6.377  14.151  0.00  0.00    +0.000 A 
ATOM      6  N   UNL     1      48.809   6.170  15.284  0.00  0.00    +0.000 NA
ENDROOT
BRANCH   1   7
ATOM      7  C   UNL     1      50.584   6.863  16.854  0.00  0.00    +0.000 C 
BRANCH   7   8
ATOM      8  N   UNL     1      51.550   5.770  16.662  0.00  0.00    +0.000 NA
ATOM      9  H   UNL     1      51.587   5.584  15.660  0.00  0.00    +0.000 HD
BRANCH   8  10
ATOM     10  C   UNL     1      51.214   4.546  17.414  0.00  0.00    +0.000 C 
BRANCH  10  11
ATOM     11  C   UNL     1      52.282   4.198  18.459  0.00  0.00    +0.000 A 
ATOM     12  C   UNL     1      53.519   3.690  18.061  0.00  0.00    +0.000 A 
ATOM     13  C   UNL     1      54.483   3.416  19.032  0.00  0.00    +0.000 A 
ATOM     14  C   UNL     1      54.194   3.662  20.367  0.00  0.00    +0.000 A 
ATOM     15  C   UNL     1      52.954   4.185  20.680  0.00  0.00    +0.000 A 
ATOM     16  N   UNL     1      52.006   4.466  19.763  0.00  0.00    +0.000 NA
ENDBRANCH  10  11
BRANCH  10  17
ATOM     17  C   UNL     1      49.797   4.521  18.041  0.00  0.00    +0.000 C 
BRANCH  17  18
ATOM     18  C   UNL     1      48.914   3.379  17.543  0.00  0.00    +0.000 C 
BRANCH  18  20
ATOM     19  N   UNL     1      47.224   5.095  17.690  0.00  0.00    +0.000 N 
ATOM     20  C   UNL     1      47.443   3.753  17.561  0.00  0.00    +0.000 C 
ATOM     21  O   UNL     1      46.513   2.968  17.475  0.00  0.00    +0.000 OA
ATOM     22  H   UNL     1      46.263   5.408  17.755  0.00  0.00    +0.000 HD
ATOM     23  H   UNL     1      47.964   5.763  17.843  0.00  0.00    +0.000 HD
ENDBRANCH  18  20
ENDBRANCH  17  18
ENDBRANCH  10  17
ENDBRANCH   8  10
ENDBRANCH   7   8
ENDBRANCH   1   7
BRANCH   4  24
ATOM     24  C   UNL     1      47.455   7.618  12.051  0.00  0.00    +0.000 C 
BRANCH  24  25
ATOM     25  N   UNL     1      46.791   6.391  11.693  0.00  0.00    +0.000 N 
ATOM     26  C   UNL     1      45.433   6.261  11.834  0.00  0.00    +0.000 C 
ATOM     27  O   UNL     1      44.731   7.188  12.231  0.00  0.00    +0.000 OA
ATOM     28  H   UNL     1      47.365   5.556  11.602  0.00  0.00    +0.000 HD
BRANCH  26  29
ATOM     29  C   UNL     1      44.847   4.981  11.422  0.00  0.00    +0.000 A 
ATOM     30  C   UNL     1      44.050   4.275  12.314  0.00  0.00    +0.000 A 
ATOM     31  S   UNL     1      43.412   2.832  11.667  0.00  0.00    +0.000 S 
ATOM     32  C   UNL     1      44.218   3.074  10.189  0.00  0.00    +0.000 A 
ATOM     33  N   UNL     1      44.119   2.166   9.182  0.00  0.00    +0.000 NA
ATOM     34  C   UNL     1      44.805   2.459   8.129  0.00  0.00    +0.000 A 
ATOM     35  N   UNL     1      45.577   3.583   7.989  0.00  0.00    +0.000 N 
ATOM     36  C   UNL     1      45.681   4.545   8.965  0.00  0.00    +0.000 A 
ATOM     37  O   UNL     1      46.340   5.566   8.791  0.00  0.00    +0.000 OA
ATOM     38  C   UNL     1      44.944   4.252  10.180  0.00  0.00    +0.000 A 
ATOM     39  H   UNL     1      46.080   3.761   7.131  0.00  0.00    +0.000 HD
ENDBRANCH  26  29
ENDBRANCH  24  25
ENDBRANCH   4  24
TORSDOF 10
ENDMDL
MODEL 7
REMARK VINA RESULT:    -6.547      1.697      3.366
REMARK INTER + INTRA:         -12.226
REMARK INTER:                 -11.138
REMARK INTRA:                  -1.089
REMARK UNBOUND:                -1.851
REMARK  Name = 
REMARK  10 active torsions:
REMARK  status: ('A' for Active; 'I' for Inactive)
REMARK    1  A    between atoms: C_2  and  C_4
REMARK    2  A    between atoms: C_4  and  C_5
REMARK    3  A    between atoms: C_5  and  C_6
REMARK    4  A    between atoms: C_6  and  N_7
REMARK    5  A    between atoms: C_6  and  C_29
REMARK    6  A    between atoms: N_7  and  C_8
REMARK    7  A    between atoms: C_8  and  C_9
REMARK    8  A    between atoms: C_12  and  C_13
REMARK    9  A    between atoms: C_13  and  N_14
REMARK   10  A    between atoms: C_15  and  C_17
REMARK                            x       y       z     vdW  Elec       q    Type
REMARK                         _______ _______ _______ _____ _____    ______ ____
ROOT
ATOM      1  C   UNL     1      45.697   6.844  11.076  0.00  0.00    +0.000 A 
ATOM      2  C   UNL     1      45.021   7.581  12.047  0.00  0.00    +0.000 A 
ATOM      3  C   UNL     1      45.750   8.186  13.067  0.00  0.00    +0.000 A 
ATOM      4  C   UNL     1      47.136   8.036  13.112  0.00  0.00    +0.000 A 
ATOM      5  C   UNL     1      47.731   7.308  12.086  0.00  0.00    +0.000 A 
ATOM      6  N   UNL     1      47.052   6.713  11.076  0.00  0.00    +0.000 NA
ENDROOT
BRANCH   1   7
ATOM      7  C   UNL     1      44.919   6.161   9.962  0.00  0.00    +0.000 C 
BRANCH   7   8
ATOM      8  N   UNL     1      45.821   5.477   9.023  0.00  0.00    +0.000 NA
ATOM      9  H   UNL     1      45.548   5.772   8.086  0.00  0.00    +0.000 HD
BRANCH   8  10
ATOM     10  C   UNL     1      45.793   4.006   9.142  0.00  0.00    +0.000 C 
BRANCH  10  11
ATOM     11  C   UNL     1      45.043   3.542  10.397  0.00  0.00    +0.000 A 
ATOM     12  C   UNL     1      45.660   3.594  11.648  0.00  0.00    +0.000 A 
ATOM     13  C   UNL     1      44.940   3.198  12.776  0.00  0.00    +0.000 A 
ATOM     14  C   UNL     1      43.628   2.770  12.631  0.00  0.00    +0.000 A 
ATOM     15  C   UNL     1      43.080   2.765  11.362  0.00  0.00    +0.000 A 
ATOM     16  N   UNL     1      43.750   3.148  10.256  0.00  0.00    +0.000 NA
ENDBRANCH  10  11
BRANCH  10  17
ATOM     17  C   UNL     1      45.293   3.249   7.887  0.00  0.00    +0.000 C 
BRANCH  17  18
ATOM     18  C   UNL     1      46.296   3.218   6.735  0.00  0.00    +0.000 C 
BRANCH  18  20
ATOM     19  N   UNL     1      48.580   2.501   6.432  0.00  0.00    +0.000 N 
ATOM     20  C   UNL     1      47.360   2.156   6.940  0.00  0.00    +0.000 C 
ATOM     21  O   UNL     1      47.191   1.083   7.497  0.00  0.00    +0.000 OA
ATOM     22  H   UNL     1      49.323   1.817   6.495  0.00  0.00    +0.000 HD
ATOM     23  H   UNL     1      48.737   3.343   5.898  0.00  0.00    +0.000 HD
ENDBRANCH  18  20
ENDBRANCH  17  18
ENDBRANCH  10  17
ENDBRANCH   8  10
ENDBRANCH   7   8
ENDBRANCH   1   7
BRANCH   4  24
ATOM     24  C   UNL     1      47.951   8.651  14.209  0.00  0.00    +0.000 C 
BRANCH  24  25
ATOM     25  N   UNL     1      48.155   7.734  15.300  0.00  0.00    +0.000 N 
ATOM     26  C   UNL     1      49.315   7.008  15.399  0.00  0.00    +0.000 C 
ATOM     27  O   UNL     1      50.231   7.137  14.591  0.00  0.00    +0.000 OA
ATOM     28  H   UNL     1      47.335   7.438  15.823  0.00  0.00    +0.000 HD
BRANCH  26  29
ATOM     29  C   UNL     1      49.437   6.117  16.558  0.00  0.00    +0.000 A 
ATOM     30  C   UNL     1      50.436   6.346  17.495  0.00  0.00    +0.000 A 
ATOM     31  S   UNL     1      50.413   5.251  18.801  0.00  0.00    +0.000 S 
ATOM     32  C   UNL     1      49.099   4.399  18.136  0.00  0.00    +0.000 A 
ATOM     33  N   UNL     1      48.591   3.301  18.756  0.00  0.00    +0.000 NA
ATOM     34  C   UNL     1      47.617   2.735  18.127  0.00  0.00    +0.000 A 
ATOM     35  N   UNL     1      47.098   3.173  16.936  0.00  0.00    +0.000 N 
ATOM     36  C   UNL     1      47.555   4.297  16.289  0.00  0.00    +0.000 A 
ATOM     37  O   UNL     1      47.037   4.693  15.250  0.00  0.00    +0.000 OA
ATOM     38  C   UNL     1      48.666   4.959  16.946  0.00  0.00    +0.000 A 
ATOM     39  H   UNL     1      46.324   2.691  16.501  0.00  0.00    +0.000 HD
ENDBRANCH  26  29
ENDBRANCH  24  25
ENDBRANCH   4  24
TORSDOF 10
ENDMDL
MODEL 8
REMARK VINA RESULT:    -6.506      2.910      8.558
REMARK INTER + INTRA:         -12.161
REMARK INTER:                 -10.150
REMARK INTRA:                  -2.011
REMARK UNBOUND:                -1.851
REMARK  Name = 
REMARK  10 active torsions:
REMARK  status: ('A' for Active; 'I' for Inactive)
REMARK    1  A    between atoms: C_2  and  C_4
REMARK    2  A    between atoms: C_4  and  C_5
REMARK    3  A    between atoms: C_5  and  C_6
REMARK    4  A    between atoms: C_6  and  N_7
REMARK    5  A    between atoms: C_6  and  C_29
REMARK    6  A    between atoms: N_7  and  C_8
REMARK    7  A    between atoms: C_8  and  C_9
REMARK    8  A    between atoms: C_12  and  C_13
REMARK    9  A    between atoms: C_13  and  N_14
REMARK   10  A    between atoms: C_15  and  C_17
REMARK                            x       y       z     vdW  Elec       q    Type
REMARK                         _______ _______ _______ _____ _____    ______ ____
ROOT
ATOM      1  C   UNL     1      49.706   8.088  15.550  0.00  0.00    +0.000 A 
ATOM      2  C   UNL     1      50.166   7.385  14.439  0.00  0.00    +0.000 A 
ATOM      3  C   UNL     1      49.393   7.367  13.282  0.00  0.00    +0.000 A 
ATOM      4  C   UNL     1      48.168   8.036  13.256  0.00  0.00    +0.000 A 
ATOM      5  C   UNL     1      47.801   8.736  14.401  0.00  0.00    +0.000 A 
ATOM      6  N   UNL     1      48.534   8.780  15.540  0.00  0.00    +0.000 NA
ENDROOT
BRANCH   1   7
ATOM      7  C   UNL     1      50.528   8.107  16.830  0.00  0.00    +0.000 C 
BRANCH   7   8
ATOM      8  N   UNL     1      49.920   7.260  17.867  0.00  0.00    +0.000 NA
ATOM      9  H   UNL     1      50.012   7.764  18.749  0.00  0.00    +0.000 HD
BRANCH   8  10
ATOM     10  C   UNL     1      50.521   5.917  17.962  0.00  0.00    +0.000 C 
BRANCH  10  11
ATOM     11  C   UNL     1      49.577   4.823  17.445  0.00  0.00    +0.000 A 
ATOM     12  C   UNL     1      48.295   5.150  17.002  0.00  0.00    +0.000 A 
ATOM     13  C   UNL     1      47.471   4.139  16.505  0.00  0.00    +0.000 A 
ATOM     14  C   UNL     1      47.947   2.836  16.456  0.00  0.00    +0.000 A 
ATOM     15  C   UNL     1      49.235   2.595  16.896  0.00  0.00    +0.000 A 
ATOM     16  N   UNL     1      50.054   3.553  17.374  0.00  0.00    +0.000 NA
ENDBRANCH  10  11
BRANCH  10  17
ATOM     17  C   UNL     1      51.929   5.775  17.330  0.00  0.00    +0.000 C 
BRANCH  17  18
ATOM     18  C   UNL     1      53.027   5.413  18.328  0.00  0.00    +0.000 C 
BRANCH  18  20
ATOM     19  N   UNL     1      52.707   3.142  19.078  0.00  0.00    +0.000 N 
ATOM     20  C   UNL     1      53.416   3.949  18.234  0.00  0.00    +0.000 C 
ATOM     21  O   UNL     1      54.271   3.490  17.494  0.00  0.00    +0.000 OA
ATOM     22  H   UNL     1      52.949   2.159  19.098  0.00  0.00    +0.000 HD
ATOM     23  H   UNL     1      52.050   3.495  19.758  0.00  0.00    +0.000 HD
ENDBRANCH  18  20
ENDBRANCH  17  18
ENDBRANCH  10  17
ENDBRANCH   8  10
ENDBRANCH   7   8
ENDBRANCH   1   7
BRANCH   4  24
ATOM     24  C   UNL     1      47.297   8.017  12.037  0.00  0.00    +0.000 C 
BRANCH  24  25
ATOM     25  N   UNL     1      46.677   6.731  11.845  0.00  0.00    +0.000 N 
ATOM     26  C   UNL     1      45.324   6.628  11.638  0.00  0.00    +0.000 C 
ATOM     27  O   UNL     1      44.601   7.619  11.573  0.00  0.00    +0.000 OA
ATOM     28  H   UNL     1      47.201   5.910  12.135  0.00  0.00    +0.000 HD
BRANCH  26  29
ATOM     29  C   UNL     1      44.791   5.277  11.432  0.00  0.00    +0.000 A 
ATOM     30  C   UNL     1      44.033   4.680  12.430  0.00  0.00    +0.000 A 
ATOM     31  S   UNL     1      43.452   3.132  12.016  0.00  0.00    +0.000 S 
ATOM     32  C   UNL     1      44.236   3.182  10.507  0.00  0.00    +0.000 A 
ATOM     33  N   UNL     1      44.167   2.131   9.648  0.00  0.00    +0.000 NA
ATOM     34  C   UNL     1      44.832   2.290   8.553  0.00  0.00    +0.000 A 
ATOM     35  N   UNL     1      45.554   3.412   8.235  0.00  0.00    +0.000 N 
ATOM     36  C   UNL     1      45.624   4.513   9.055  0.00  0.00    +0.000 A 
ATOM     37  O   UNL     1      46.236   5.522   8.721  0.00  0.00    +0.000 OA
ATOM     38  C   UNL     1      44.910   4.375  10.310  0.00  0.00    +0.000 A 
ATOM     39  H   UNL     1      46.042   3.479   7.354  0.00  0.00    +0.000 HD
ENDBRANCH  26  29
ENDBRANCH  24  25
ENDBRANCH   4  24
TORSDOF 10
ENDMDL
MODEL 9
REMARK VINA RESULT:    -6.010      5.564      7.919
REMARK INTER + INTRA:         -11.375
REMARK INTER:                 -10.466
REMARK INTRA:                  -0.909
REMARK UNBOUND:                -1.851
REMARK  Name = 
REMARK  10 active torsions:
REMARK  status: ('A' for Active; 'I' for Inactive)
REMARK    1  A    between atoms: C_2  and  C_4
REMARK    2  A    between atoms: C_4  and  C_5
REMARK    3  A    between atoms: C_5  and  C_6
REMARK    4  A    between atoms: C_6  and  N_7
REMARK    5  A    between atoms: C_6  and  C_29
REMARK    6  A    between atoms: N_7  and  C_8
REMARK    7  A    between atoms: C_8  and  C_9
REMARK    8  A    between atoms: C_12  and  C_13
REMARK    9  A    between atoms: C_13  and  N_14
REMARK   10  A    between atoms: C_15  and  C_17
REMARK                            x       y       z     vdW  Elec       q    Type
REMARK                         _______ _______ _______ _____ _____    ______ ____
ROOT
ATOM      1  C   UNL     1      49.259   7.415  13.522  0.00  0.00    +0.000 A 
ATOM      2  C   UNL     1      49.165   7.392  12.131  0.00  0.00    +0.000 A 
ATOM      3  C   UNL     1      50.184   7.963  11.374  0.00  0.00    +0.000 A 
ATOM      4  C   UNL     1      51.272   8.560  12.013  0.00  0.00    +0.000 A 
ATOM      5  C   UNL     1      51.298   8.511  13.404  0.00  0.00    +0.000 A 
ATOM      6  N   UNL     1      50.327   7.957  14.170  0.00  0.00    +0.000 NA
ENDROOT
BRANCH   1   7
ATOM      7  C   UNL     1      48.149   6.811  14.368  0.00  0.00    +0.000 C 
BRANCH   7   8
ATOM      8  N   UNL     1      46.947   6.548  13.562  0.00  0.00    +0.000 NA
ATOM      9  H   UNL     1      46.354   7.374  13.641  0.00  0.00    +0.000 HD
BRANCH   8  10
ATOM     10  C   UNL     1      46.216   5.333  13.969  0.00  0.00    +0.000 C 
BRANCH  10  11
ATOM     11  C   UNL     1      45.342   4.778  12.837  0.00  0.00    +0.000 A 
ATOM     12  C   UNL     1      45.474   5.270  11.538  0.00  0.00    +0.000 A 
ATOM     13  C   UNL     1      44.689   4.721  10.523  0.00  0.00    +0.000 A 
ATOM     14  C   UNL     1      43.804   3.696  10.825  0.00  0.00    +0.000 A 
ATOM     15  C   UNL     1      43.745   3.249  12.132  0.00  0.00    +0.000 A 
ATOM     16  N   UNL     1      44.495   3.756  13.131  0.00  0.00    +0.000 NA
ENDBRANCH  10  11
BRANCH  10  17
ATOM     17  C   UNL     1      47.086   4.215  14.595  0.00  0.00    +0.000 C 
BRANCH  17  18
ATOM     18  C   UNL     1      47.287   4.349  16.103  0.00  0.00    +0.000 C 
BRANCH  18  20
ATOM     19  N   UNL     1      46.996   2.611  17.752  0.00  0.00    +0.000 N 
ATOM     20  C   UNL     1      47.780   3.056  16.725  0.00  0.00    +0.000 C 
ATOM     21  O   UNL     1      48.774   2.439  16.379  0.00  0.00    +0.000 OA
ATOM     22  H   UNL     1      47.294   1.777  18.241  0.00  0.00    +0.000 HD
ATOM     23  H   UNL     1      46.213   3.135  18.115  0.00  0.00    +0.000 HD
ENDBRANCH  18  20
ENDBRANCH  17  18
ENDBRANCH  10  17
ENDBRANCH   8  10
ENDBRANCH   7   8
ENDBRANCH   1   7
BRANCH   4  24
ATOM     24  C   UNL     1      52.375   9.207  11.232  0.00  0.00    +0.000 C 
BRANCH  24  25
ATOM     25  N   UNL     1      52.540   8.595   9.939  0.00  0.00    +0.000 N 
ATOM     26  C   UNL     1      53.731   8.693   9.264  0.00  0.00    +0.000 C 
ATOM     27  O   UNL     1      54.703   9.269   9.745  0.00  0.00    +0.000 OA
ATOM     28  H   UNL     1      51.699   8.336   9.431  0.00  0.00    +0.000 HD
BRANCH  26  29
ATOM     29  C   UNL     1      53.808   8.017   7.964  0.00  0.00    +0.000 A 
ATOM     30  C   UNL     1      53.877   8.775   6.802  0.00  0.00    +0.000 A 
ATOM     31  S   UNL     1      54.007   7.840   5.382  0.00  0.00    +0.000 S 
ATOM     32  C   UNL     1      53.924   6.389   6.265  0.00  0.00    +0.000 A 
ATOM     33  N   UNL     1      53.951   5.184   5.635  0.00  0.00    +0.000 NA
ATOM     34  C   UNL     1      53.850   4.167   6.422  0.00  0.00    +0.000 A 
ATOM     35  N   UNL     1      53.732   4.244   7.786  0.00  0.00    +0.000 N 
ATOM     36  C   UNL     1      53.734   5.436   8.470  0.00  0.00    +0.000 A 
ATOM     37  O   UNL     1      53.678   5.472   9.695  0.00  0.00    +0.000 OA
ATOM     38  C   UNL     1      53.825   6.613   7.627  0.00  0.00    +0.000 A 
ATOM     39  H   UNL     1      53.670   3.406   8.347  0.00  0.00    +0.000 HD
ENDBRANCH  26  29
ENDBRANCH  24  25
ENDBRANCH   4  24
TORSDOF 10
ENDMDL
