MODEL 1
REMARK VINA RESULT:    -8.296      0.000      0.000
REMARK INTER + INTRA:         -13.115
REMARK INTER:                 -12.418
REMARK INTRA:                  -0.696
REMARK UNBOUND:                -0.696
REMARK  Name = 
REMARK  9 active torsions:
REMARK  status: ('A' for Active; 'I' for Inactive)
REMARK    1  A    between atoms: C_2  and  C_22
REMARK    2  A    between atoms: N_3  and  CA_4
REMARK    3  A    between atoms: CA_4  and  C_5
REMARK    4  A    between atoms: CA_4  and  C_7
REMARK    5  A    between atoms: C_5  and  O_6
REMARK    6  A    between atoms: C_10  and  C_11
REMARK    7  A    between atoms: C_11  and  N_12
REMARK    8  A    between atoms: N_12  and  C_13
REMARK    9  A    between atoms: C_13  and  C_14
REMARK                            x       y       z     vdW  Elec       q    Type
REMARK                         _______ _______ _______ _____ _____    ______ ____
ROOT
ATOM      1  CA  UNL     1      46.604   8.049  13.068  0.00  0.00    +0.000 C 
ENDROOT
BRANCH   1   2
ATOM      2  C   UNL     1      45.850   6.945  12.337  0.00  0.00    +0.000 A 
ATOM      3  C   UNL     1      46.236   6.587  11.048  0.00  0.00    +0.000 A 
ATOM      4  C   UNL     1      45.611   5.507  10.434  0.00  0.00    +0.000 A 
ATOM      5  C   UNL     1      44.610   4.803  11.108  0.00  0.00    +0.000 A 
ATOM      6  C   UNL     1      44.278   5.240  12.385  0.00  0.00    +0.000 A 
ATOM      7  N   UNL     1      44.879   6.276  13.021  0.00  0.00    +0.000 NA
BRANCH   5   8
ATOM      8  C   UNL     1      43.929   3.617  10.476  0.00  0.00    +0.000 C 
BRANCH   8   9
ATOM      9  N   UNL     1      44.862   2.503  10.321  0.00  0.00    +0.000 NA
ATOM     10  H   UNL     1      44.681   1.810  11.051  0.00  0.00    +0.000 HD
BRANCH   9  11
ATOM     11  C   UNL     1      44.698   1.837   9.025  0.00  0.00    +0.000 C 
BRANCH  11  12
ATOM     12  C   UNL     1      45.898   2.066   8.136  0.00  0.00    +0.000 A 
ATOM     13  C   UNL     1      46.737   1.010   7.792  0.00  0.00    +0.000 A 
ATOM     14  N   UNL     1      47.806   1.152   6.970  0.00  0.00    +0.000 NA
ATOM     15  C   UNL     1      47.991   2.399   6.483  0.00  0.00    +0.000 A 
ATOM     16  C   UNL     1      47.156   3.454   6.807  0.00  0.00    +0.000 A 
ATOM     17  N   UNL     1      46.095   3.317   7.636  0.00  0.00    +0.000 NA
ENDBRANCH  11  12
ENDBRANCH   9  11
ENDBRANCH   8   9
ENDBRANCH   5   8
ENDBRANCH   1   2
BRANCH   1  20
ATOM     18  O   UNL     1      48.774   6.214  13.251  0.00  0.00    +0.000 OA
ATOM     19  C   UNL     1      48.258   6.636  14.283  0.00  0.00    +0.000 C 
ATOM     20  N   UNL     1      47.236   7.541  14.276  0.00  0.00    +0.000 N 
ATOM     21  H   UNL     1      46.837   7.866  15.148  0.00  0.00    +0.000 HD
BRANCH  19  22
ATOM     22  C   UNL     1      48.739   6.227  15.609  0.00  0.00    +0.000 A 
ATOM     23  C   UNL     1      49.742   6.946  16.245  0.00  0.00    +0.000 A 
ATOM     24  S   UNL     1      50.135   6.341  17.792  0.00  0.00    +0.000 S 
ATOM     25  C   UNL     1      49.007   5.074  17.649  0.00  0.00    +0.000 A 
ATOM     26  N   UNL     1      48.834   4.166  18.650  0.00  0.00    +0.000 NA
ATOM     27  C   UNL     1      47.965   3.247  18.389  0.00  0.00    +0.000 A 
ATOM     28  N   UNL     1      47.260   3.146  17.219  0.00  0.00    +0.000 N 
ATOM     29  C   UNL     1      47.385   4.049  16.192  0.00  0.00    +0.000 A 
ATOM     30  O   UNL     1      46.706   3.948  15.178  0.00  0.00    +0.000 OA
ATOM     31  C   UNL     1      48.342   5.112  16.436  0.00  0.00    +0.000 A 
ATOM     32  H   UNL     1      46.590   2.405  17.074  0.00  0.00    +0.000 HD
ENDBRANCH  19  22
ENDBRANCH   1  20
BRANCH   1  33
ATOM     33  C   UNL     1      47.660   8.668  12.121  0.00  0.00    +0.000 C 
BRANCH  33  34
ATOM     34  O   UNL     1      47.539  10.084  11.950  0.00  0.00    +0.000 OA
ATOM     35  H   UNL     1      47.043  10.247  11.124  0.00  0.00    +0.000 HD
ENDBRANCH  33  34
ENDBRANCH   1  33
TORSDOF 9
ENDMDL
MODEL 2
REMARK VINA RESULT:    -8.189      2.890      4.344
REMARK INTER + INTRA:         -12.955
REMARK INTER:                 -11.628
REMARK INTRA:                  -1.327
REMARK UNBOUND:                -0.696
REMARK  Name = 
REMARK  9 active torsions:
REMARK  status: ('A' for Active; 'I' for Inactive)
REMARK    1  A    between atoms: C_2  and  C_22
REMARK    2  A    between atoms: N_3  and  CA_4
REMARK    3  A    between atoms: CA_4  and  C_5
REMARK    4  A    between atoms: CA_4  and  C_7
REMARK    5  A    between atoms: C_5  and  O_6
REMARK    6  A    between atoms: C_10  and  C_11
REMARK    7  A    between atoms: C_11  and  N_12
REMARK    8  A    between atoms: N_12  and  C_13
REMARK    9  A    between atoms: C_13  and  C_14
REMARK                            x       y       z     vdW  Elec       q    Type
REMARK                         _______ _______ _______ _____ _____    ______ ____
ROOT
ATOM      1  CA  UNL     1      48.012   4.741  16.008  0.00  0.00    +0.000 C 
ENDROOT
BRANCH   1   2
ATOM      2  C   UNL     1      47.244   4.962  14.711  0.00  0.00    +0.000 A 
ATOM      3  C   UNL     1      47.543   6.065  13.915  0.00  0.00    +0.000 A 
ATOM      4  C   UNL     1      46.911   6.198  12.684  0.00  0.00    +0.000 A 
ATOM      5  C   UNL     1      45.990   5.235  12.264  0.00  0.00    +0.000 A 
ATOM      6  C   UNL     1      45.741   4.176  13.129  0.00  0.00    +0.000 A 
ATOM      7  N   UNL     1      46.352   4.006  14.327  0.00  0.00    +0.000 NA
BRANCH   5   8
ATOM      8  C   UNL     1      45.304   5.342  10.927  0.00  0.00    +0.000 C 
BRANCH   8   9
ATOM      9  N   UNL     1      44.745   4.053  10.524  0.00  0.00    +0.000 NA
ATOM     10  H   UNL     1      43.837   3.925  10.978  0.00  0.00    +0.000 HD
BRANCH   9  11
ATOM     11  C   UNL     1      44.532   3.984   9.075  0.00  0.00    +0.000 C 
BRANCH  11  12
ATOM     12  C   UNL     1      45.552   3.087   8.414  0.00  0.00    +0.000 A 
ATOM     13  C   UNL     1      45.555   1.717   8.658  0.00  0.00    +0.000 A 
ATOM     14  N   UNL     1      46.423   0.862   8.065  0.00  0.00    +0.000 NA
ATOM     15  C   UNL     1      47.283   1.433   7.192  0.00  0.00    +0.000 A 
ATOM     16  C   UNL     1      47.281   2.792   6.930  0.00  0.00    +0.000 A 
ATOM     17  N   UNL     1      46.422   3.649   7.530  0.00  0.00    +0.000 NA
ENDBRANCH  11  12
ENDBRANCH   9  11
ENDBRANCH   8   9
ENDBRANCH   5   8
ENDBRANCH   1   2
BRANCH   1  20
ATOM     18  O   UNL     1      49.748   5.705  18.051  0.00  0.00    +0.000 OA
ATOM     19  C   UNL     1      48.628   6.198  17.934  0.00  0.00    +0.000 C 
ATOM     20  N   UNL     1      47.754   5.811  16.960  0.00  0.00    +0.000 N 
ATOM     21  H   UNL     1      46.840   6.242  16.894  0.00  0.00    +0.000 HD
BRANCH  19  22
ATOM     22  C   UNL     1      48.166   7.280  18.812  0.00  0.00    +0.000 A 
ATOM     23  C   UNL     1      47.880   7.029  20.146  0.00  0.00    +0.000 A 
ATOM     24  S   UNL     1      47.398   8.419  21.012  0.00  0.00    +0.000 S 
ATOM     25  C   UNL     1      47.517   9.398  19.624  0.00  0.00    +0.000 A 
ATOM     26  N   UNL     1      47.235  10.730  19.673  0.00  0.00    +0.000 NA
ATOM     27  C   UNL     1      47.341  11.337  18.539  0.00  0.00    +0.000 A 
ATOM     28  N   UNL     1      47.695  10.736  17.359  0.00  0.00    +0.000 N 
ATOM     29  C   UNL     1      48.009   9.402  17.266  0.00  0.00    +0.000 A 
ATOM     30  O   UNL     1      48.361   8.911  16.201  0.00  0.00    +0.000 OA
ATOM     31  C   UNL     1      47.916   8.672  18.516  0.00  0.00    +0.000 A 
ATOM     32  H   UNL     1      47.765  11.266  16.502  0.00  0.00    +0.000 HD
ENDBRANCH  19  22
ENDBRANCH   1  20
BRANCH   1  33
ATOM     33  C   UNL     1      47.623   3.371  16.612  0.00  0.00    +0.000 C 
BRANCH  33  34
ATOM     34  O   UNL     1      46.477   3.411  17.471  0.00  0.00    +0.000 OA
ATOM     35  H   UNL     1      45.679   3.325  16.914  0.00  0.00    +0.000 HD
ENDBRANCH  33  34
ENDBRANCH   1  33
TORSDOF 9
ENDMDL
MODEL 3
REMARK VINA RESULT:    -8.076      2.500      3.470
REMARK INTER + INTRA:         -12.785
REMARK INTER:                 -11.224
REMARK INTRA:                  -1.562
REMARK UNBOUND:                -0.696
REMARK  Name = 
REMARK  9 active torsions:
REMARK  status: ('A' for Active; 'I' for Inactive)
REMARK    1  A    between atoms: C_2  and  C_22
REMARK    2  A    between atoms: N_3  and  CA_4
REMARK    3  A    between atoms: CA_4  and  C_5
REMARK    4  A    between atoms: CA_4  and  C_7
REMARK    5  A    between atoms: C_5  and  O_6
REMARK    6  A    between atoms: C_10  and  C_11
REMARK    7  A    between atoms: C_11  and  N_12
REMARK    8  A    between atoms: N_12  and  C_13
REMARK    9  A    between atoms: C_13  and  C_14
REMARK                            x       y       z     vdW  Elec       q    Type
REMARK                         _______ _______ _______ _____ _____    ______ ____
ROOT
ATOM      1  CA  UNL     1      47.781   4.651  15.052  0.00  0.00    +0.000 C 
ENDROOT
BRANCH   1   2
ATOM      2  C   UNL     1      46.708   4.762  13.976  0.00  0.00    +0.000 A 
ATOM      3  C   UNL     1      46.550   5.962  13.286  0.00  0.00    +0.000 A 
ATOM      4  C   UNL     1      45.642   6.018  12.234  0.00  0.00    +0.000 A 
ATOM      5  C   UNL     1      44.904   4.884  11.887  0.00  0.00    +0.000 A 
ATOM      6  C   UNL     1      45.115   3.735  12.640  0.00  0.00    +0.000 A 
ATOM      7  N   UNL     1      46.004   3.639  13.658  0.00  0.00    +0.000 NA
BRANCH   5   8
ATOM      8  C   UNL     1      43.927   4.910  10.740  0.00  0.00    +0.000 C 
BRANCH   8   9
ATOM      9  N   UNL     1      44.110   3.746   9.875  0.00  0.00    +0.000 NA
ATOM     10  H   UNL     1      43.200   3.316   9.694  0.00  0.00    +0.000 HD
BRANCH   9  11
ATOM     11  C   UNL     1      44.690   4.120   8.581  0.00  0.00    +0.000 C 
BRANCH  11  12
ATOM     12  C   UNL     1      45.694   3.091   8.114  0.00  0.00    +0.000 A 
ATOM     13  C   UNL     1      45.593   1.765   8.525  0.00  0.00    +0.000 A 
ATOM     14  N   UNL     1      46.444   0.796   8.109  0.00  0.00    +0.000 NA
ATOM     15  C   UNL     1      47.394   1.202   7.240  0.00  0.00    +0.000 A 
ATOM     16  C   UNL     1      47.497   2.515   6.813  0.00  0.00    +0.000 A 
ATOM     17  N   UNL     1      46.655   3.487   7.235  0.00  0.00    +0.000 NA
ENDBRANCH  11  12
ENDBRANCH   9  11
ENDBRANCH   8   9
ENDBRANCH   5   8
ENDBRANCH   1   2
BRANCH   1  20
ATOM     18  O   UNL     1      49.921   6.454  15.583  0.00  0.00    +0.000 OA
ATOM     19  C   UNL     1      48.846   6.615  16.156  0.00  0.00    +0.000 C 
ATOM     20  N   UNL     1      47.766   5.812  15.929  0.00  0.00    +0.000 N 
ATOM     21  H   UNL     1      46.896   5.977  16.420  0.00  0.00    +0.000 HD
BRANCH  19  22
ATOM     22  C   UNL     1      48.633   7.720  17.098  0.00  0.00    +0.000 A 
ATOM     23  C   UNL     1      48.878   9.030  16.711  0.00  0.00    +0.000 A 
ATOM     24  S   UNL     1      48.533  10.175  17.930  0.00  0.00    +0.000 S 
ATOM     25  C   UNL     1      48.082   8.956  19.030  0.00  0.00    +0.000 A 
ATOM     26  N   UNL     1      47.669   9.262  20.292  0.00  0.00    +0.000 NA
ATOM     27  C   UNL     1      47.386   8.235  21.022  0.00  0.00    +0.000 A 
ATOM     28  N   UNL     1      47.486   6.932  20.610  0.00  0.00    +0.000 N 
ATOM     29  C   UNL     1      47.876   6.577  19.342  0.00  0.00    +0.000 A 
ATOM     30  O   UNL     1      47.912   5.402  19.000  0.00  0.00    +0.000 OA
ATOM     31  C   UNL     1      48.196   7.695  18.475  0.00  0.00    +0.000 A 
ATOM     32  H   UNL     1      47.247   6.169  21.227  0.00  0.00    +0.000 HD
ENDBRANCH  19  22
ENDBRANCH   1  20
BRANCH   1  33
ATOM     33  C   UNL     1      47.564   3.353  15.866  0.00  0.00    +0.000 C 
BRANCH  33  34
ATOM     34  O   UNL     1      46.617   3.479  16.933  0.00  0.00    +0.000 OA
ATOM     35  H   UNL     1      46.447   4.430  17.075  0.00  0.00    +0.000 HD
ENDBRANCH  33  34
ENDBRANCH   1  33
TORSDOF 9
ENDMDL
MODEL 4
REMARK VINA RESULT:    -7.958      4.662      8.847
REMARK INTER + INTRA:         -12.608
REMARK INTER:                 -11.338
REMARK INTRA:                  -1.270
REMARK UNBOUND:                -0.696
REMARK  Name = 
REMARK  9 active torsions:
REMARK  status: ('A' for Active; 'I' for Inactive)
REMARK    1  A    between atoms: C_2  and  C_22
REMARK    2  A    between atoms: N_3  and  CA_4
REMARK    3  A    between atoms: CA_4  and  C_5
REMARK    4  A    between atoms: CA_4  and  C_7
REMARK    5  A    between atoms: C_5  and  O_6
REMARK    6  A    between atoms: C_10  and  C_11
REMARK    7  A    between atoms: C_11  and  N_12
REMARK    8  A    between atoms: N_12  and  C_13
REMARK    9  A    between atoms: C_13  and  C_14
REMARK                            x       y       z     vdW  Elec       q    Type
REMARK                         _______ _______ _______ _____ _____    ______ ____
ROOT
ATOM      1  CA  UNL     1      48.643   5.896  17.027  0.00  0.00    +0.000 C 
ENDROOT
BRANCH   1   2
ATOM      2  C   UNL     1      49.509   4.644  17.083  0.00  0.00    +0.000 A 
ATOM      3  C   UNL     1      50.840   4.747  17.479  0.00  0.00    +0.000 A 
ATOM      4  C   UNL     1      51.589   3.585  17.630  0.00  0.00    +0.000 A 
ATOM      5  C   UNL     1      51.006   2.340  17.383  0.00  0.00    +0.000 A 
ATOM      6  C   UNL     1      49.676   2.333  16.977  0.00  0.00    +0.000 A 
ATOM      7  N   UNL     1      48.911   3.444  16.838  0.00  0.00    +0.000 NA
BRANCH   5   8
ATOM      8  C   UNL     1      51.786   1.063  17.557  0.00  0.00    +0.000 C 
BRANCH   8   9
ATOM      9  N   UNL     1      52.881   1.249  18.507  0.00  0.00    +0.000 NA
ATOM     10  H   UNL     1      52.710   0.673  19.334  0.00  0.00    +0.000 HD
BRANCH   9  11
ATOM     11  C   UNL     1      54.168   0.836  17.937  0.00  0.00    +0.000 C 
BRANCH  11  12
ATOM     12  C   UNL     1      54.347  -0.662  18.017  0.00  0.00    +0.000 A 
ATOM     13  C   UNL     1      54.941  -1.361  16.970  0.00  0.00    +0.000 A 
ATOM     14  N   UNL     1      55.158  -2.699  17.005  0.00  0.00    +0.000 NA
ATOM     15  C   UNL     1      54.776  -3.312  18.146  0.00  0.00    +0.000 A 
ATOM     16  C   UNL     1      54.197  -2.625  19.200  0.00  0.00    +0.000 A 
ATOM     17  N   UNL     1      53.969  -1.292  19.163  0.00  0.00    +0.000 NA
ENDBRANCH  11  12
ENDBRANCH   9  11
ENDBRANCH   8   9
ENDBRANCH   5   8
ENDBRANCH   1   2
BRANCH   1  20
ATOM     18  O   UNL     1      49.326   6.581  14.347  0.00  0.00    +0.000 OA
ATOM     19  C   UNL     1      48.170   6.253  14.606  0.00  0.00    +0.000 C 
ATOM     20  N   UNL     1      47.776   5.881  15.858  0.00  0.00    +0.000 N 
ATOM     21  H   UNL     1      46.814   5.615  16.032  0.00  0.00    +0.000 HD
BRANCH  19  22
ATOM     22  C   UNL     1      47.136   6.192  13.566  0.00  0.00    +0.000 A 
ATOM     23  C   UNL     1      46.682   7.354  12.958  0.00  0.00    +0.000 A 
ATOM     24  S   UNL     1      45.510   7.076  11.748  0.00  0.00    +0.000 S 
ATOM     25  C   UNL     1      45.539   5.396  12.023  0.00  0.00    +0.000 A 
ATOM     26  N   UNL     1      44.751   4.549  11.304  0.00  0.00    +0.000 NA
ATOM     27  C   UNL     1      44.858   3.307  11.642  0.00  0.00    +0.000 A 
ATOM     28  N   UNL     1      45.675   2.835  12.636  0.00  0.00    +0.000 N 
ATOM     29  C   UNL     1      46.502   3.647  13.372  0.00  0.00    +0.000 A 
ATOM     30  O   UNL     1      47.248   3.182  14.224  0.00  0.00    +0.000 OA
ATOM     31  C   UNL     1      46.429   5.054  13.026  0.00  0.00    +0.000 A 
ATOM     32  H   UNL     1      45.719   1.850  12.852  0.00  0.00    +0.000 HD
ENDBRANCH  19  22
ENDBRANCH   1  20
BRANCH   1  33
ATOM     33  C   UNL     1      47.805   6.004  18.323  0.00  0.00    +0.000 C 
BRANCH  33  34
ATOM     34  O   UNL     1      46.673   5.129  18.367  0.00  0.00    +0.000 OA
ATOM     35  H   UNL     1      46.838   4.390  17.750  0.00  0.00    +0.000 HD
ENDBRANCH  33  34
ENDBRANCH   1  33
TORSDOF 9
ENDMDL
MODEL 5
REMARK VINA RESULT:    -7.798      1.835      2.349
REMARK INTER + INTRA:         -12.369
REMARK INTER:                 -10.848
REMARK INTRA:                  -1.522
REMARK UNBOUND:                -0.696
REMARK  Name = 
REMARK  9 active torsions:
REMARK  status: ('A' for Active; 'I' for Inactive)
REMARK    1  A    between atoms: C_2  and  C_22
REMARK    2  A    between atoms: N_3  and  CA_4
REMARK    3  A    between atoms: CA_4  and  C_5
REMARK    4  A    between atoms: CA_4  and  C_7
REMARK    5  A    between atoms: C_5  and  O_6
REMARK    6  A    between atoms: C_10  and  C_11
REMARK    7  A    between atoms: C_11  and  N_12
REMARK    8  A    between atoms: N_12  and  C_13
REMARK    9  A    between atoms: C_13  and  C_14
REMARK                            x       y       z     vdW  Elec       q    Type
REMARK                         _______ _______ _______ _____ _____    ______ ____
ROOT
ATOM      1  CA  UNL     1      47.605   8.179  13.390  0.00  0.00    +0.000 C 
ENDROOT
BRANCH   1   2
ATOM      2  C   UNL     1      46.450   7.384  12.794  0.00  0.00    +0.000 A 
ATOM      3  C   UNL     1      45.525   8.026  11.975  0.00  0.00    +0.000 A 
ATOM      4  C   UNL     1      44.539   7.270  11.350  0.00  0.00    +0.000 A 
ATOM      5  C   UNL     1      44.486   5.888  11.552  0.00  0.00    +0.000 A 
ATOM      6  C   UNL     1      45.440   5.334  12.398  0.00  0.00    +0.000 A 
ATOM      7  N   UNL     1      46.426   6.038  13.007  0.00  0.00    +0.000 NA
BRANCH   5   8
ATOM      8  C   UNL     1      43.442   5.040  10.874  0.00  0.00    +0.000 C 
BRANCH   8   9
ATOM      9  N   UNL     1      43.929   4.544   9.589  0.00  0.00    +0.000 NA
ATOM     10  H   UNL     1      44.790   5.038   9.343  0.00  0.00    +0.000 HD
BRANCH   9  11
ATOM     11  C   UNL     1      44.239   3.112   9.644  0.00  0.00    +0.000 C 
BRANCH  11  12
ATOM     12  C   UNL     1      45.295   2.741   8.629  0.00  0.00    +0.000 A 
ATOM     13  C   UNL     1      45.797   3.695   7.748  0.00  0.00    +0.000 A 
ATOM     14  N   UNL     1      46.769   3.425   6.842  0.00  0.00    +0.000 NA
ATOM     15  C   UNL     1      47.240   2.159   6.867  0.00  0.00    +0.000 A 
ATOM     16  C   UNL     1      46.759   1.205   7.748  0.00  0.00    +0.000 A 
ATOM     17  N   UNL     1      45.781   1.469   8.646  0.00  0.00    +0.000 NA
ENDBRANCH  11  12
ENDBRANCH   9  11
ENDBRANCH   8   9
ENDBRANCH   5   8
ENDBRANCH   1   2
BRANCH   1  20
ATOM     18  O   UNL     1      48.773   9.879  15.355  0.00  0.00    +0.000 OA
ATOM     19  C   UNL     1      48.332   8.784  15.696  0.00  0.00    +0.000 C 
ATOM     20  N   UNL     1      47.731   7.929  14.818  0.00  0.00    +0.000 N 
ATOM     21  H   UNL     1      47.379   7.035  15.138  0.00  0.00    +0.000 HD
BRANCH  19  22
ATOM     22  C   UNL     1      48.381   8.334  17.093  0.00  0.00    +0.000 A 
ATOM     23  C   UNL     1      48.120   9.222  18.127  0.00  0.00    +0.000 A 
ATOM     24  S   UNL     1      48.185   8.503  19.673  0.00  0.00    +0.000 S 
ATOM     25  C   UNL     1      48.605   6.989  19.017  0.00  0.00    +0.000 A 
ATOM     26  N   UNL     1      48.813   5.906  19.817  0.00  0.00    +0.000 NA
ATOM     27  C   UNL     1      49.152   4.834  19.183  0.00  0.00    +0.000 A 
ATOM     28  N   UNL     1      49.310   4.746  17.825  0.00  0.00    +0.000 N 
ATOM     29  C   UNL     1      49.090   5.804  16.977  0.00  0.00    +0.000 A 
ATOM     30  O   UNL     1      49.202   5.675  15.765  0.00  0.00    +0.000 OA
ATOM     31  C   UNL     1      48.696   7.034  17.638  0.00  0.00    +0.000 A 
ATOM     32  H   UNL     1      49.574   3.877  17.384  0.00  0.00    +0.000 HD
ENDBRANCH  19  22
ENDBRANCH   1  20
BRANCH   1  33
ATOM     33  C   UNL     1      48.918   7.813  12.658  0.00  0.00    +0.000 C 
BRANCH  33  34
ATOM     34  O   UNL     1      49.375   6.478  12.900  0.00  0.00    +0.000 OA
ATOM     35  H   UNL     1      49.948   6.214  12.155  0.00  0.00    +0.000 HD
ENDBRANCH  33  34
ENDBRANCH   1  33
TORSDOF 9
ENDMDL
MODEL 6
REMARK VINA RESULT:    -7.491      1.719      2.065
REMARK INTER + INTRA:         -11.910
REMARK INTER:                 -10.598
REMARK INTRA:                  -1.312
REMARK UNBOUND:                -0.696
REMARK  Name = 
REMARK  9 active torsions:
REMARK  status: ('A' for Active; 'I' for Inactive)
REMARK    1  A    between atoms: C_2  and  C_22
REMARK    2  A    between atoms: N_3  and  CA_4
REMARK    3  A    between atoms: CA_4  and  C_5
REMARK    4  A    between atoms: CA_4  and  C_7
REMARK    5  A    between atoms: C_5  and  O_6
REMARK    6  A    between atoms: C_10  and  C_11
REMARK    7  A    between atoms: C_11  and  N_12
REMARK    8  A    between atoms: N_12  and  C_13
REMARK    9  A    between atoms: C_13  and  C_14
REMARK                            x       y       z     vdW  Elec       q    Type
REMARK                         _______ _______ _______ _____ _____    ______ ____
ROOT
ATOM      1  CA  UNL     1      47.517   7.678  13.434  0.00  0.00    +0.000 C 
ENDROOT
BRANCH   1   2
ATOM      2  C   UNL     1      46.712   6.537  12.825  0.00  0.00    +0.000 A 
ATOM      3  C   UNL     1      46.336   5.459  13.622  0.00  0.00    +0.000 A 
ATOM      4  C   UNL     1      45.511   4.478  13.083  0.00  0.00    +0.000 A 
ATOM      5  C   UNL     1      45.076   4.580  11.760  0.00  0.00    +0.000 A 
ATOM      6  C   UNL     1      45.513   5.682  11.032  0.00  0.00    +0.000 A 
ATOM      7  N   UNL     1      46.301   6.665  11.531  0.00  0.00    +0.000 NA
BRANCH   5   8
ATOM      8  C   UNL     1      44.167   3.543  11.155  0.00  0.00    +0.000 C 
BRANCH   8   9
ATOM      9  N   UNL     1      44.941   2.441  10.586  0.00  0.00    +0.000 NA
ATOM     10  H   UNL     1      44.760   1.591  11.124  0.00  0.00    +0.000 HD
BRANCH   9  11
ATOM     11  C   UNL     1      44.561   2.175   9.195  0.00  0.00    +0.000 C 
BRANCH  11  12
ATOM     12  C   UNL     1      45.764   2.220   8.281  0.00  0.00    +0.000 A 
ATOM     13  C   UNL     1      46.457   1.055   7.966  0.00  0.00    +0.000 A 
ATOM     14  N   UNL     1      47.520   1.032   7.124  0.00  0.00    +0.000 NA
ATOM     15  C   UNL     1      47.851   2.227   6.587  0.00  0.00    +0.000 A 
ATOM     16  C   UNL     1      47.160   3.390   6.882  0.00  0.00    +0.000 A 
ATOM     17  N   UNL     1      46.106   3.417   7.730  0.00  0.00    +0.000 NA
ENDBRANCH  11  12
ENDBRANCH   9  11
ENDBRANCH   8   9
ENDBRANCH   5   8
ENDBRANCH   1   2
BRANCH   1  20
ATOM     18  O   UNL     1      48.560   8.592  15.922  0.00  0.00    +0.000 OA
ATOM     19  C   UNL     1      49.140   7.687  15.325  0.00  0.00    +0.000 C 
ATOM     20  N   UNL     1      48.682   7.175  14.145  0.00  0.00    +0.000 N 
ATOM     21  H   UNL     1      49.187   6.428  13.684  0.00  0.00    +0.000 HD
BRANCH  19  22
ATOM     22  C   UNL     1      50.349   7.057  15.868  0.00  0.00    +0.000 A 
ATOM     23  C   UNL     1      51.606   7.524  15.510  0.00  0.00    +0.000 A 
ATOM     24  S   UNL     1      52.884   6.690  16.276  0.00  0.00    +0.000 S 
ATOM     25  C   UNL     1      51.803   5.650  17.081  0.00  0.00    +0.000 A 
ATOM     26  N   UNL     1      52.253   4.675  17.919  0.00  0.00    +0.000 NA
ATOM     27  C   UNL     1      51.321   3.947  18.436  0.00  0.00    +0.000 A 
ATOM     28  N   UNL     1      49.982   4.098  18.187  0.00  0.00    +0.000 N 
ATOM     29  C   UNL     1      49.480   5.079  17.368  0.00  0.00    +0.000 A 
ATOM     30  O   UNL     1      48.274   5.207  17.204  0.00  0.00    +0.000 OA
ATOM     31  C   UNL     1      50.486   5.935  16.768  0.00  0.00    +0.000 A 
ATOM     32  H   UNL     1      49.298   3.498  18.625  0.00  0.00    +0.000 HD
ENDBRANCH  19  22
ENDBRANCH   1  20
BRANCH   1  33
ATOM     33  C   UNL     1      47.944   8.662  12.319  0.00  0.00    +0.000 C 
BRANCH  33  34
ATOM     34  O   UNL     1      48.877   8.116  11.378  0.00  0.00    +0.000 OA
ATOM     35  H   UNL     1      49.016   7.176  11.602  0.00  0.00    +0.000 HD
ENDBRANCH  33  34
ENDBRANCH   1  33
TORSDOF 9
ENDMDL
MODEL 7
REMARK VINA RESULT:    -7.481      3.287      4.225
REMARK INTER + INTRA:         -11.895
REMARK INTER:                 -10.538
REMARK INTRA:                  -1.356
REMARK UNBOUND:                -0.696
REMARK  Name = 
REMARK  9 active torsions:
REMARK  status: ('A' for Active; 'I' for Inactive)
REMARK    1  A    between atoms: C_2  and  C_22
REMARK    2  A    between atoms: N_3  and  CA_4
REMARK    3  A    between atoms: CA_4  and  C_5
REMARK    4  A    between atoms: CA_4  and  C_7
REMARK    5  A    between atoms: C_5  and  O_6
REMARK    6  A    between atoms: C_10  and  C_11
REMARK    7  A    between atoms: C_11  and  N_12
REMARK    8  A    between atoms: N_12  and  C_13
REMARK    9  A    between atoms: C_13  and  C_14
REMARK                            x       y       z     vdW  Elec       q    Type
REMARK                         _______ _______ _______ _____ _____    ______ ____
ROOT
ATOM      1  CA  UNL     1      45.992   8.847  12.948  0.00  0.00    +0.000 C 
ENDROOT
BRANCH   1   2
ATOM      2  C   UNL     1      45.567   7.434  12.569  0.00  0.00    +0.000 A 
ATOM      3  C   UNL     1      46.117   6.346  13.243  0.00  0.00    +0.000 A 
ATOM      4  C   UNL     1      45.642   5.070  12.962  0.00  0.00    +0.000 A 
ATOM      5  C   UNL     1      44.631   4.893  12.014  0.00  0.00    +0.000 A 
ATOM      6  C   UNL     1      44.151   6.033  11.378  0.00  0.00    +0.000 A 
ATOM      7  N   UNL     1      44.578   7.293  11.641  0.00  0.00    +0.000 NA
BRANCH   5   8
ATOM      8  C   UNL     1      44.083   3.525  11.702  0.00  0.00    +0.000 C 
BRANCH   8   9
ATOM      9  N   UNL     1      45.051   2.738  10.941  0.00  0.00    +0.000 NA
ATOM     10  H   UNL     1      45.322   1.918  11.489  0.00  0.00    +0.000 HD
BRANCH   9  11
ATOM     11  C   UNL     1      44.484   2.260   9.676  0.00  0.00    +0.000 C 
BRANCH  11  12
ATOM     12  C   UNL     1      45.482   2.384   8.548  0.00  0.00    +0.000 A 
ATOM     13  C   UNL     1      45.657   3.596   7.887  0.00  0.00    +0.000 A 
ATOM     14  N   UNL     1      46.562   3.772   6.893  0.00  0.00    +0.000 NA
ATOM     15  C   UNL     1      47.308   2.685   6.599  0.00  0.00    +0.000 A 
ATOM     16  C   UNL     1      47.153   1.477   7.258  0.00  0.00    +0.000 A 
ATOM     17  N   UNL     1      46.243   1.297   8.243  0.00  0.00    +0.000 NA
ENDBRANCH  11  12
ENDBRANCH   9  11
ENDBRANCH   8   9
ENDBRANCH   5   8
ENDBRANCH   1   2
BRANCH   1  20
ATOM     18  O   UNL     1      47.847   8.925  15.109  0.00  0.00    +0.000 OA
ATOM     19  C   UNL     1      48.261   9.055  13.959  0.00  0.00    +0.000 C 
ATOM     20  N   UNL     1      47.438   8.997  12.872  0.00  0.00    +0.000 N 
ATOM     21  H   UNL     1      47.816   9.107  11.939  0.00  0.00    +0.000 HD
BRANCH  19  22
ATOM     22  C   UNL     1      49.689   9.237  13.669  0.00  0.00    +0.000 A 
ATOM     23  C   UNL     1      50.451  10.121  14.420  0.00  0.00    +0.000 A 
ATOM     24  S   UNL     1      52.094  10.164  13.959  0.00  0.00    +0.000 S 
ATOM     25  C   UNL     1      51.835   9.032  12.713  0.00  0.00    +0.000 A 
ATOM     26  N   UNL     1      52.856   8.618  11.912  0.00  0.00    +0.000 NA
ATOM     27  C   UNL     1      52.506   7.781  10.995  0.00  0.00    +0.000 A 
ATOM     28  N   UNL     1      51.229   7.324  10.799  0.00  0.00    +0.000 N 
ATOM     29  C   UNL     1      50.173   7.696  11.594  0.00  0.00    +0.000 A 
ATOM     30  O   UNL     1      49.054   7.234  11.412  0.00  0.00    +0.000 OA
ATOM     31  C   UNL     1      50.513   8.631  12.650  0.00  0.00    +0.000 A 
ATOM     32  H   UNL     1      51.016   6.665  10.064  0.00  0.00    +0.000 HD
ENDBRANCH  19  22
ENDBRANCH   1  20
BRANCH   1  33
ATOM     33  C   UNL     1      45.290   9.865  12.019  0.00  0.00    +0.000 C 
BRANCH  33  34
ATOM     34  O   UNL     1      43.947  10.182  12.401  0.00  0.00    +0.000 OA
ATOM     35  H   UNL     1      43.928  10.294  13.372  0.00  0.00    +0.000 HD
ENDBRANCH  33  34
ENDBRANCH   1  33
TORSDOF 9
ENDMDL
MODEL 8
REMARK VINA RESULT:    -7.383      3.357      5.904
REMARK INTER + INTRA:         -11.748
REMARK INTER:                 -10.400
REMARK INTRA:                  -1.348
REMARK UNBOUND:                -0.696
REMARK  Name = 
REMARK  9 active torsions:
REMARK  status: ('A' for Active; 'I' for Inactive)
REMARK    1  A    between atoms: C_2  and  C_22
REMARK    2  A    between atoms: N_3  and  CA_4
REMARK    3  A    between atoms: CA_4  and  C_5
REMARK    4  A    between atoms: CA_4  and  C_7
REMARK    5  A    between atoms: C_5  and  O_6
REMARK    6  A    between atoms: C_10  and  C_11
REMARK    7  A    between atoms: C_11  and  N_12
REMARK    8  A    between atoms: N_12  and  C_13
REMARK    9  A    between atoms: C_13  and  C_14
REMARK                            x       y       z     vdW  Elec       q    Type
REMARK                         _______ _______ _______ _____ _____    ______ ____
ROOT
ATOM      1  CA  UNL     1      48.169   3.874  17.551  0.00  0.00    +0.000 C 
ENDROOT
BRANCH   1   2
ATOM      2  C   UNL     1      47.988   4.577  16.212  0.00  0.00    +0.000 A 
ATOM      3  C   UNL     1      47.128   4.033  15.261  0.00  0.00    +0.000 A 
ATOM      4  C   UNL     1      46.888   4.738  14.087  0.00  0.00    +0.000 A 
ATOM      5  C   UNL     1      47.510   5.971  13.874  0.00  0.00    +0.000 A 
ATOM      6  C   UNL     1      48.366   6.430  14.869  0.00  0.00    +0.000 A 
ATOM      7  N   UNL     1      48.607   5.778  16.033  0.00  0.00    +0.000 NA
BRANCH   5   8
ATOM      8  C   UNL     1      47.256   6.767  12.621  0.00  0.00    +0.000 C 
BRANCH   8   9
ATOM      9  N   UNL     1      45.961   7.441  12.687  0.00  0.00    +0.000 NA
ATOM     10  H   UNL     1      46.110   8.452  12.722  0.00  0.00    +0.000 HD
BRANCH   9  11
ATOM     11  C   UNL     1      45.141   7.154  11.506  0.00  0.00    +0.000 C 
BRANCH  11  12
ATOM     12  C   UNL     1      44.456   5.812  11.628  0.00  0.00    +0.000 A 
ATOM     13  C   UNL     1      44.623   4.840  10.647  0.00  0.00    +0.000 A 
ATOM     14  N   UNL     1      44.062   3.608  10.723  0.00  0.00    +0.000 NA
ATOM     15  C   UNL     1      43.338   3.377  11.841  0.00  0.00    +0.000 A 
ATOM     16  C   UNL     1      43.175   4.332  12.830  0.00  0.00    +0.000 A 
ATOM     17  N   UNL     1      43.726   5.565  12.751  0.00  0.00    +0.000 NA
ENDBRANCH  11  12
ENDBRANCH   9  11
ENDBRANCH   8   9
ENDBRANCH   5   8
ENDBRANCH   1   2
BRANCH   1  20
ATOM     18  O   UNL     1      49.567   1.776  16.225  0.00  0.00    +0.000 OA
ATOM     19  C   UNL     1      50.146   2.428  17.091  0.00  0.00    +0.000 C 
ATOM     20  N   UNL     1      49.553   3.467  17.747  0.00  0.00    +0.000 N 
ATOM     21  H   UNL     1      50.063   3.982  18.454  0.00  0.00    +0.000 HD
BRANCH  19  22
ATOM     22  C   UNL     1      51.544   2.161  17.451  0.00  0.00    +0.000 A 
ATOM     23  C   UNL     1      51.983   0.858  17.644  0.00  0.00    +0.000 A 
ATOM     24  S   UNL     1      53.646   0.750  18.016  0.00  0.00    +0.000 S 
ATOM     25  C   UNL     1      53.827   2.442  17.971  0.00  0.00    +0.000 A 
ATOM     26  N   UNL     1      55.034   3.030  18.206  0.00  0.00    +0.000 NA
ATOM     27  C   UNL     1      55.014   4.320  18.166  0.00  0.00    +0.000 A 
ATOM     28  N   UNL     1      53.898   5.077  17.920  0.00  0.00    +0.000 N 
ATOM     29  C   UNL     1      52.667   4.530  17.657  0.00  0.00    +0.000 A 
ATOM     30  O   UNL     1      51.703   5.240  17.401  0.00  0.00    +0.000 OA
ATOM     31  C   UNL     1      52.635   3.080  17.679  0.00  0.00    +0.000 A 
ATOM     32  H   UNL     1      53.946   6.086  17.898  0.00  0.00    +0.000 HD
ENDBRANCH  19  22
ENDBRANCH   1  20
BRANCH   1  33
ATOM     33  C   UNL     1      47.712   4.813  18.693  0.00  0.00    +0.000 C 
BRANCH  33  34
ATOM     34  O   UNL     1      46.405   5.369  18.511  0.00  0.00    +0.000 OA
ATOM     35  H   UNL     1      45.800   4.643  18.262  0.00  0.00    +0.000 HD
ENDBRANCH  33  34
ENDBRANCH   1  33
TORSDOF 9
ENDMDL
MODEL 9
REMARK VINA RESULT:    -7.380      2.637      3.447
REMARK INTER + INTRA:         -11.744
REMARK INTER:                 -10.866
REMARK INTRA:                  -0.878
REMARK UNBOUND:                -0.696
REMARK  Name = 
REMARK  9 active torsions:
REMARK  status: ('A' for Active; 'I' for Inactive)
REMARK    1  A    between atoms: C_2  and  C_22
REMARK    2  A    between atoms: N_3  and  CA_4
REMARK    3  A    between atoms: CA_4  and  C_5
REMARK    4  A    between atoms: CA_4  and  C_7
REMARK    5  A    between atoms: C_5  and  O_6
REMARK    6  A    between atoms: C_10  and  C_11
REMARK    7  A    between atoms: C_11  and  N_12
REMARK    8  A    between atoms: N_12  and  C_13
REMARK    9  A    between atoms: C_13  and  C_14
REMARK                            x       y       z     vdW  Elec       q    Type
REMARK                         _______ _______ _______ _____ _____    ______ ____
ROOT
ATOM      1  CA  UNL     1      49.009   7.087  15.271  0.00  0.00    +0.000 C 
ENDROOT
BRANCH   1   2
ATOM      2  C   UNL     1      47.967   6.250  14.540  0.00  0.00    +0.000 A 
ATOM      3  C   UNL     1      47.416   6.723  13.353  0.00  0.00    +0.000 A 
ATOM      4  C   UNL     1      46.547   5.904  12.640  0.00  0.00    +0.000 A 
ATOM      5  C   UNL     1      46.237   4.629  13.120  0.00  0.00    +0.000 A 
ATOM      6  C   UNL     1      46.821   4.245  14.322  0.00  0.00    +0.000 A 
ATOM      7  N   UNL     1      47.686   5.010  15.032  0.00  0.00    +0.000 NA
BRANCH   5   8
ATOM      8  C   UNL     1      45.315   3.711  12.360  0.00  0.00    +0.000 C 
BRANCH   8   9
ATOM      9  N   UNL     1      44.163   4.445  11.842  0.00  0.00    +0.000 NA
ATOM     10  H   UNL     1      44.476   5.350  11.480  0.00  0.00    +0.000 HD
BRANCH   9  11
ATOM     11  C   UNL     1      43.515   3.727  10.740  0.00  0.00    +0.000 C 
BRANCH  11  12
ATOM     12  C   UNL     1      44.488   3.450   9.619  0.00  0.00    +0.000 A 
ATOM     13  C   UNL     1      45.076   4.498   8.917  0.00  0.00    +0.000 A 
ATOM     14  N   UNL     1      45.982   4.308   7.926  0.00  0.00    +0.000 NA
ATOM     15  C   UNL     1      46.298   3.018   7.679  0.00  0.00    +0.000 A 
ATOM     16  C   UNL     1      45.730   1.967   8.379  0.00  0.00    +0.000 A 
ATOM     17  N   UNL     1      44.817   2.154   9.361  0.00  0.00    +0.000 NA
ENDBRANCH  11  12
ENDBRANCH   9  11
ENDBRANCH   8   9
ENDBRANCH   5   8
ENDBRANCH   1   2
BRANCH   1  20
ATOM     18  O   UNL     1      49.117   6.106  17.944  0.00  0.00    +0.000 OA
ATOM     19  C   UNL     1      50.033   5.837  17.169  0.00  0.00    +0.000 C 
ATOM     20  N   UNL     1      50.035   6.244  15.866  0.00  0.00    +0.000 N 
ATOM     21  H   UNL     1      50.807   6.001  15.258  0.00  0.00    +0.000 HD
BRANCH  19  22
ATOM     22  C   UNL     1      51.175   5.012  17.582  0.00  0.00    +0.000 A 
ATOM     23  C   UNL     1      52.334   5.606  18.061  0.00  0.00    +0.000 A 
ATOM     24  S   UNL     1      53.531   4.482  18.528  0.00  0.00    +0.000 S 
ATOM     25  C   UNL     1      52.556   3.163  18.069  0.00  0.00    +0.000 A 
ATOM     26  N   UNL     1      52.992   1.880  18.209  0.00  0.00    +0.000 NA
ATOM     27  C   UNL     1      52.159   0.987  17.793  0.00  0.00    +0.000 A 
ATOM     28  N   UNL     1      50.933   1.257  17.244  0.00  0.00    +0.000 N 
ATOM     29  C   UNL     1      50.442   2.532  17.102  0.00  0.00    +0.000 A 
ATOM     30  O   UNL     1      49.324   2.730  16.644  0.00  0.00    +0.000 OA
ATOM     31  C   UNL     1      51.337   3.577  17.564  0.00  0.00    +0.000 A 
ATOM     32  H   UNL     1      50.321   0.514  16.939  0.00  0.00    +0.000 HD
ENDBRANCH  19  22
ENDBRANCH   1  20
BRANCH   1  33
ATOM     33  C   UNL     1      49.642   8.100  14.287  0.00  0.00    +0.000 C 
BRANCH  33  34
ATOM     34  O   UNL     1      50.904   7.689  13.750  0.00  0.00    +0.000 OA
ATOM     35  H   UNL     1      51.107   8.260  12.985  0.00  0.00    +0.000 HD
ENDBRANCH  33  34
ENDBRANCH   1  33
TORSDOF 9
ENDMDL
