MODEL 1
REMARK VINA RESULT:    -8.424      0.000      0.000
REMARK INTER + INTRA:         -11.849
REMARK INTER:                 -10.886
REMARK INTRA:                  -0.963
REMARK UNBOUND:                -0.963
REMARK  Name = 
REMARK  5 active torsions:
REMARK  status: ('A' for Active; 'I' for Inactive)
REMARK    1  A    between atoms: C_2  and  C_4
REMARK    2  A    between atoms: C_7  and  N_8
REMARK    3  A    between atoms: N_8  and  C_9
REMARK    4  A    between atoms: C_9  and  C_10
REMARK    5  A    between atoms: C_14  and  N_15
REMARK                            x       y       z     vdW  Elec       q    Type
REMARK                         _______ _______ _______ _____ _____    ______ ____
ROOT
ATOM      1  N   UNL     1      43.767   4.814   9.979  0.00  0.00    +0.000 N 
ATOM      2  H   UNL     1      42.950   5.159   9.481  0.00  0.00    +0.000 HD
ENDROOT
BRANCH   1   6
ATOM      3  C   UNL     1      46.342   2.271   7.790  0.00  0.00    +0.000 A 
ATOM      4  C   UNL     1      45.394   1.716   8.652  0.00  0.00    +0.000 A 
ATOM      5  C   UNL     1      44.529   2.549   9.366  0.00  0.00    +0.000 A 
ATOM      6  C   UNL     1      44.556   3.945   9.217  0.00  0.00    +0.000 A 
ATOM      7  C   UNL     1      45.516   4.483   8.347  0.00  0.00    +0.000 A 
ATOM      8  C   UNL     1      46.404   3.658   7.645  0.00  0.00    +0.000 A 
BRANCH   3  10
ATOM      9  N   UNL     1      48.448   2.017   6.599  0.00  0.00    +0.000 N 
ATOM     10  C   UNL     1      47.322   1.415   7.083  0.00  0.00    +0.000 C 
ATOM     11  O   UNL     1      47.144   0.205   6.950  0.00  0.00    +0.000 OA
ATOM     12  H   UNL     1      49.145   1.413   6.185  0.00  0.00    +0.000 HD
ATOM     13  H   UNL     1      48.738   2.938   6.900  0.00  0.00    +0.000 HD
ENDBRANCH   3  10
ENDBRANCH   1   6
BRANCH   1  14
ATOM     14  C   UNL     1      43.513   4.481  11.371  0.00  0.00    +0.000 C 
BRANCH  14  15
ATOM     15  C   UNL     1      44.705   4.759  12.250  0.00  0.00    +0.000 A 
ATOM     16  C   UNL     1      45.465   3.693  12.751  0.00  0.00    +0.000 A 
ATOM     17  C   UNL     1      46.659   3.942  13.423  0.00  0.00    +0.000 A 
ATOM     18  C   UNL     1      47.115   5.246  13.561  0.00  0.00    +0.000 A 
ATOM     19  C   UNL     1      46.386   6.337  13.072  0.00  0.00    +0.000 A 
ATOM     20  C   UNL     1      45.149   6.068  12.461  0.00  0.00    +0.000 A 
BRANCH  19  21
ATOM     21  N   UNL     1      46.886   7.610  13.144  0.00  0.00    +0.000 N 
ATOM     22  C   UNL     1      46.012   8.785  13.182  0.00  0.00    +0.000 C 
ATOM     23  C   UNL     1      46.353   9.738  12.034  0.00  0.00    +0.000 C 
ATOM     24  O   UNL     1      47.752  10.078  12.028  0.00  0.00    +0.000 OA
ATOM     25  C   UNL     1      48.557   8.893  11.887  0.00  0.00    +0.000 C 
ATOM     26  C   UNL     1      48.320   7.900  13.041  0.00  0.00    +0.000 C 
ENDBRANCH  19  21
ENDBRANCH  14  15
ENDBRANCH   1  14
TORSDOF 5
ENDMDL
MODEL 2
REMARK VINA RESULT:    -8.246      2.068      3.211
REMARK INTER + INTRA:         -11.620
REMARK INTER:                 -10.766
REMARK INTRA:                  -0.854
REMARK UNBOUND:                -0.963
REMARK  Name = 
REMARK  5 active torsions:
REMARK  status: ('A' for Active; 'I' for Inactive)
REMARK    1  A    between atoms: C_2  and  C_4
REMARK    2  A    between atoms: C_7  and  N_8
REMARK    3  A    between atoms: N_8  and  C_9
REMARK    4  A    between atoms: C_9  and  C_10
REMARK    5  A    between atoms: C_14  and  N_15
REMARK                            x       y       z     vdW  Elec       q    Type
REMARK                         _______ _______ _______ _____ _____    ______ ____
ROOT
ATOM      1  N   UNL     1      43.687   4.981   9.661  0.00  0.00    +0.000 N 
ATOM      2  H   UNL     1      42.797   4.991   9.167  0.00  0.00    +0.000 HD
ENDROOT
BRANCH   1   6
ATOM      3  C   UNL     1      46.258   2.071   7.985  0.00  0.00    +0.000 A 
ATOM      4  C   UNL     1      46.436   3.417   7.660  0.00  0.00    +0.000 A 
ATOM      5  C   UNL     1      45.601   4.386   8.223  0.00  0.00    +0.000 A 
ATOM      6  C   UNL     1      44.597   4.051   9.145  0.00  0.00    +0.000 A 
ATOM      7  C   UNL     1      44.433   2.694   9.459  0.00  0.00    +0.000 A 
ATOM      8  C   UNL     1      45.250   1.711   8.882  0.00  0.00    +0.000 A 
BRANCH   3  10
ATOM      9  N   UNL     1      46.796  -0.280   7.663  0.00  0.00    +0.000 N 
ATOM     10  C   UNL     1      47.077   1.017   7.343  0.00  0.00    +0.000 C 
ATOM     11  O   UNL     1      47.964   1.293   6.537  0.00  0.00    +0.000 OA
ATOM     12  H   UNL     1      47.309  -0.993   7.163  0.00  0.00    +0.000 HD
ATOM     13  H   UNL     1      45.933  -0.548   8.118  0.00  0.00    +0.000 HD
ENDBRANCH   3  10
ENDBRANCH   1   6
BRANCH   1  14
ATOM     14  C   UNL     1      43.563   5.106  11.103  0.00  0.00    +0.000 C 
BRANCH  14  15
ATOM     15  C   UNL     1      44.662   5.950  11.699  0.00  0.00    +0.000 A 
ATOM     16  C   UNL     1      44.604   7.345  11.589  0.00  0.00    +0.000 A 
ATOM     17  C   UNL     1      45.521   8.138  12.275  0.00  0.00    +0.000 A 
ATOM     18  C   UNL     1      46.467   7.544  13.099  0.00  0.00    +0.000 A 
ATOM     19  C   UNL     1      46.554   6.153  13.237  0.00  0.00    +0.000 A 
ATOM     20  C   UNL     1      45.666   5.370  12.480  0.00  0.00    +0.000 A 
BRANCH  19  21
ATOM     21  N   UNL     1      47.439   5.584  14.114  0.00  0.00    +0.000 N 
ATOM     22  C   UNL     1      47.245   4.232  14.644  0.00  0.00    +0.000 C 
ATOM     23  C   UNL     1      47.216   4.260  16.174  0.00  0.00    +0.000 C 
ATOM     24  O   UNL     1      48.381   4.913  16.712  0.00  0.00    +0.000 OA
ATOM     25  C   UNL     1      48.462   6.269  16.237  0.00  0.00    +0.000 C 
ATOM     26  C   UNL     1      48.558   6.331  14.700  0.00  0.00    +0.000 C 
ENDBRANCH  19  21
ENDBRANCH  14  15
ENDBRANCH   1  14
TORSDOF 5
ENDMDL
MODEL 3
REMARK VINA RESULT:    -7.965      2.483      3.489
REMARK INTER + INTRA:         -11.256
REMARK INTER:                 -10.551
REMARK INTRA:                  -0.706
REMARK UNBOUND:                -0.963
REMARK  Name = 
REMARK  5 active torsions:
REMARK  status: ('A' for Active; 'I' for Inactive)
REMARK    1  A    between atoms: C_2  and  C_4
REMARK    2  A    between atoms: C_7  and  N_8
REMARK    3  A    between atoms: N_8  and  C_9
REMARK    4  A    between atoms: C_9  and  C_10
REMARK    5  A    between atoms: C_14  and  N_15
REMARK                            x       y       z     vdW  Elec       q    Type
REMARK                         _______ _______ _______ _____ _____    ______ ____
ROOT
ATOM      1  N   UNL     1      44.269   4.975  10.270  0.00  0.00    +0.000 N 
ATOM      2  H   UNL     1      43.347   5.260   9.949  0.00  0.00    +0.000 HD
ENDROOT
BRANCH   1   6
ATOM      3  C   UNL     1      46.422   2.377   7.720  0.00  0.00    +0.000 A 
ATOM      4  C   UNL     1      45.577   1.843   8.694  0.00  0.00    +0.000 A 
ATOM      5  C   UNL     1      44.850   2.695   9.529  0.00  0.00    +0.000 A 
ATOM      6  C   UNL     1      44.913   4.091   9.397  0.00  0.00    +0.000 A 
ATOM      7  C   UNL     1      45.768   4.609   8.413  0.00  0.00    +0.000 A 
ATOM      8  C   UNL     1      46.520   3.764   7.586  0.00  0.00    +0.000 A 
BRANCH   3  10
ATOM      9  N   UNL     1      48.323   2.071   6.233  0.00  0.00    +0.000 N 
ATOM     10  C   UNL     1      47.263   1.498   6.875  0.00  0.00    +0.000 C 
ATOM     11  O   UNL     1      47.032   0.295   6.768  0.00  0.00    +0.000 OA
ATOM     12  H   UNL     1      48.934   1.450   5.720  0.00  0.00    +0.000 HD
ATOM     13  H   UNL     1      48.681   2.982   6.489  0.00  0.00    +0.000 HD
ENDBRANCH   3  10
ENDBRANCH   1   6
BRANCH   1  14
ATOM     14  C   UNL     1      44.343   4.717  11.698  0.00  0.00    +0.000 C 
BRANCH  14  15
ATOM     15  C   UNL     1      45.650   5.176  12.293  0.00  0.00    +0.000 A 
ATOM     16  C   UNL     1      46.394   6.175  11.652  0.00  0.00    +0.000 A 
ATOM     17  C   UNL     1      47.514   6.721  12.275  0.00  0.00    +0.000 A 
ATOM     18  C   UNL     1      47.867   6.302  13.550  0.00  0.00    +0.000 A 
ATOM     19  C   UNL     1      47.146   5.309  14.225  0.00  0.00    +0.000 A 
ATOM     20  C   UNL     1      46.065   4.720  13.548  0.00  0.00    +0.000 A 
BRANCH  19  21
ATOM     21  N   UNL     1      47.457   4.962  15.514  0.00  0.00    +0.000 N 
ATOM     22  C   UNL     1      48.301   5.806  16.362  0.00  0.00    +0.000 C 
ATOM     23  C   UNL     1      49.510   5.014  16.866  0.00  0.00    +0.000 C 
ATOM     24  O   UNL     1      49.108   3.792  17.513  0.00  0.00    +0.000 OA
ATOM     25  C   UNL     1      48.370   2.960  16.600  0.00  0.00    +0.000 C 
ATOM     26  C   UNL     1      47.097   3.660  16.088  0.00  0.00    +0.000 C 
ENDBRANCH  19  21
ENDBRANCH  14  15
ENDBRANCH   1  14
TORSDOF 5
ENDMDL
MODEL 4
REMARK VINA RESULT:    -7.644      1.564      2.218
REMARK INTER + INTRA:         -10.841
REMARK INTER:                 -10.053
REMARK INTRA:                  -0.789
REMARK UNBOUND:                -0.963
REMARK  Name = 
REMARK  5 active torsions:
REMARK  status: ('A' for Active; 'I' for Inactive)
REMARK    1  A    between atoms: C_2  and  C_4
REMARK    2  A    between atoms: C_7  and  N_8
REMARK    3  A    between atoms: N_8  and  C_9
REMARK    4  A    between atoms: C_9  and  C_10
REMARK    5  A    between atoms: C_14  and  N_15
REMARK                            x       y       z     vdW  Elec       q    Type
REMARK                         _______ _______ _______ _____ _____    ______ ____
ROOT
ATOM      1  N   UNL     1      43.764   3.567  10.482  0.00  0.00    +0.000 N 
ATOM      2  H   UNL     1      42.910   3.016  10.526  0.00  0.00    +0.000 HD
ENDROOT
BRANCH   1   6
ATOM      3  C   UNL     1      46.485   2.588   7.396  0.00  0.00    +0.000 A 
ATOM      4  C   UNL     1      46.043   1.591   8.266  0.00  0.00    +0.000 A 
ATOM      5  C   UNL     1      45.131   1.903   9.278  0.00  0.00    +0.000 A 
ATOM      6  C   UNL     1      44.609   3.198   9.429  0.00  0.00    +0.000 A 
ATOM      7  C   UNL     1      45.066   4.186   8.545  0.00  0.00    +0.000 A 
ATOM      8  C   UNL     1      45.998   3.889   7.542  0.00  0.00    +0.000 A 
BRANCH   3  10
ATOM      9  N   UNL     1      47.475   3.043   5.220  0.00  0.00    +0.000 N 
ATOM     10  C   UNL     1      47.510   2.302   6.366  0.00  0.00    +0.000 C 
ATOM     11  O   UNL     1      48.374   1.443   6.538  0.00  0.00    +0.000 OA
ATOM     12  H   UNL     1      48.223   2.893   4.557  0.00  0.00    +0.000 HD
ATOM     13  H   UNL     1      46.948   3.904   5.152  0.00  0.00    +0.000 HD
ENDBRANCH   3  10
ENDBRANCH   1   6
BRANCH   1  14
ATOM     14  C   UNL     1      44.354   3.845  11.781  0.00  0.00    +0.000 C 
BRANCH  14  15
ATOM     15  C   UNL     1      45.043   5.186  11.818  0.00  0.00    +0.000 A 
ATOM     16  C   UNL     1      44.325   6.346  11.501  0.00  0.00    +0.000 A 
ATOM     17  C   UNL     1      44.902   7.599  11.692  0.00  0.00    +0.000 A 
ATOM     18  C   UNL     1      46.176   7.697  12.234  0.00  0.00    +0.000 A 
ATOM     19  C   UNL     1      46.924   6.560  12.567  0.00  0.00    +0.000 A 
ATOM     20  C   UNL     1      46.351   5.306  12.298  0.00  0.00    +0.000 A 
BRANCH  19  21
ATOM     21  N   UNL     1      48.147   6.672  13.174  0.00  0.00    +0.000 N 
ATOM     22  C   UNL     1      48.308   6.535  14.624  0.00  0.00    +0.000 C 
ATOM     23  C   UNL     1      48.968   7.787  15.206  0.00  0.00    +0.000 C 
ATOM     24  O   UNL     1      50.201   8.097  14.530  0.00  0.00    +0.000 OA
ATOM     25  C   UNL     1      49.963   8.321  13.129  0.00  0.00    +0.000 C 
ATOM     26  C   UNL     1      49.354   7.081  12.447  0.00  0.00    +0.000 C 
ENDBRANCH  19  21
ENDBRANCH  14  15
ENDBRANCH   1  14
TORSDOF 5
ENDMDL
MODEL 5
REMARK VINA RESULT:    -7.628      1.550      2.234
REMARK INTER + INTRA:         -10.821
REMARK INTER:                  -9.912
REMARK INTRA:                  -0.909
REMARK UNBOUND:                -0.963
REMARK  Name = 
REMARK  5 active torsions:
REMARK  status: ('A' for Active; 'I' for Inactive)
REMARK    1  A    between atoms: C_2  and  C_4
REMARK    2  A    between atoms: C_7  and  N_8
REMARK    3  A    between atoms: N_8  and  C_9
REMARK    4  A    between atoms: C_9  and  C_10
REMARK    5  A    between atoms: C_14  and  N_15
REMARK                            x       y       z     vdW  Elec       q    Type
REMARK                         _______ _______ _______ _____ _____    ______ ____
ROOT
ATOM      1  N   UNL     1      43.507   4.344  10.116  0.00  0.00    +0.000 N 
ATOM      2  H   UNL     1      42.578   4.076   9.801  0.00  0.00    +0.000 HD
ENDROOT
BRANCH   1   6
ATOM      3  C   UNL     1      46.454   2.447   7.750  0.00  0.00    +0.000 A 
ATOM      4  C   UNL     1      46.265   3.826   7.640  0.00  0.00    +0.000 A 
ATOM      5  C   UNL     1      45.304   4.462   8.431  0.00  0.00    +0.000 A 
ATOM      6  C   UNL     1      44.537   3.758   9.372  0.00  0.00    +0.000 A 
ATOM      7  C   UNL     1      44.741   2.373   9.467  0.00  0.00    +0.000 A 
ATOM      8  C   UNL     1      45.685   1.722   8.662  0.00  0.00    +0.000 A 
BRANCH   3  10
ATOM      9  N   UNL     1      48.531   2.413   6.483  0.00  0.00    +0.000 N 
ATOM     10  C   UNL     1      47.409   1.737   6.868  0.00  0.00    +0.000 C 
ATOM     11  O   UNL     1      47.214   0.577   6.510  0.00  0.00    +0.000 OA
ATOM     12  H   UNL     1      49.212   1.895   5.944  0.00  0.00    +0.000 HD
ATOM     13  H   UNL     1      48.839   3.256   6.948  0.00  0.00    +0.000 HD
ENDBRANCH   3  10
ENDBRANCH   1   6
BRANCH   1  14
ATOM     14  C   UNL     1      43.645   4.409  11.562  0.00  0.00    +0.000 C 
BRANCH  14  15
ATOM     15  C   UNL     1      44.593   5.498  11.996  0.00  0.00    +0.000 A 
ATOM     16  C   UNL     1      45.891   5.168  12.405  0.00  0.00    +0.000 A 
ATOM     17  C   UNL     1      46.824   6.173  12.648  0.00  0.00    +0.000 A 
ATOM     18  C   UNL     1      46.476   7.501  12.444  0.00  0.00    +0.000 A 
ATOM     19  C   UNL     1      45.190   7.871  12.032  0.00  0.00    +0.000 A 
ATOM     20  C   UNL     1      44.244   6.846  11.863  0.00  0.00    +0.000 A 
BRANCH  19  21
ATOM     21  N   UNL     1      44.884   9.178  11.758  0.00  0.00    +0.000 N 
ATOM     22  C   UNL     1      43.694   9.551  10.989  0.00  0.00    +0.000 C 
ATOM     23  C   UNL     1      44.090  10.383   9.767  0.00  0.00    +0.000 C 
ATOM     24  O   UNL     1      44.898  11.516  10.138  0.00  0.00    +0.000 OA
ATOM     25  C   UNL     1      46.100  11.081  10.799  0.00  0.00    +0.000 C 
ATOM     26  C   UNL     1      45.793  10.284  12.081  0.00  0.00    +0.000 C 
ENDBRANCH  19  21
ENDBRANCH  14  15
ENDBRANCH   1  14
TORSDOF 5
ENDMDL
MODEL 6
REMARK VINA RESULT:    -6.638      1.925      6.699
REMARK INTER + INTRA:          -9.542
REMARK INTER:                  -8.684
REMARK INTRA:                  -0.858
REMARK UNBOUND:                -0.963
REMARK  Name = 
REMARK  5 active torsions:
REMARK  status: ('A' for Active; 'I' for Inactive)
REMARK    1  A    between atoms: C_2  and  C_4
REMARK    2  A    between atoms: C_7  and  N_8
REMARK    3  A    between atoms: N_8  and  C_9
REMARK    4  A    between atoms: C_9  and  C_10
REMARK    5  A    between atoms: C_14  and  N_15
REMARK                            x       y       z     vdW  Elec       q    Type
REMARK                         _______ _______ _______ _____ _____    ______ ____
ROOT
ATOM      1  N   UNL     1      45.577   7.361  13.092  0.00  0.00    +0.000 N 
ATOM      2  H   UNL     1      45.189   7.992  13.789  0.00  0.00    +0.000 HD
ENDROOT
BRANCH   1   6
ATOM      3  C   UNL     1      49.611   8.003  11.995  0.00  0.00    +0.000 A 
ATOM      4  C   UNL     1      48.669   9.011  11.778  0.00  0.00    +0.000 A 
ATOM      5  C   UNL     1      47.338   8.812  12.153  0.00  0.00    +0.000 A 
ATOM      6  C   UNL     1      46.915   7.630  12.783  0.00  0.00    +0.000 A 
ATOM      7  C   UNL     1      47.876   6.630  12.991  0.00  0.00    +0.000 A 
ATOM      8  C   UNL     1      49.209   6.809  12.596  0.00  0.00    +0.000 A 
BRANCH   3  10
ATOM      9  N   UNL     1      51.514   7.186  10.718  0.00  0.00    +0.000 N 
ATOM     10  C   UNL     1      51.010   8.157  11.535  0.00  0.00    +0.000 C 
ATOM     11  O   UNL     1      51.691   9.130  11.858  0.00  0.00    +0.000 OA
ATOM     12  H   UNL     1      52.443   7.338  10.349  0.00  0.00    +0.000 HD
ATOM     13  H   UNL     1      50.920   6.520  10.243  0.00  0.00    +0.000 HD
ENDBRANCH   3  10
ENDBRANCH   1   6
BRANCH   1  14
ATOM     14  C   UNL     1      44.663   7.046  12.006  0.00  0.00    +0.000 C 
BRANCH  14  15
ATOM     15  C   UNL     1      44.527   5.561  11.788  0.00  0.00    +0.000 A 
ATOM     16  C   UNL     1      43.869   4.775  12.743  0.00  0.00    +0.000 A 
ATOM     17  C   UNL     1      43.592   3.436  12.476  0.00  0.00    +0.000 A 
ATOM     18  C   UNL     1      43.934   2.893  11.245  0.00  0.00    +0.000 A 
ATOM     19  C   UNL     1      44.590   3.648  10.264  0.00  0.00    +0.000 A 
ATOM     20  C   UNL     1      44.924   4.974  10.583  0.00  0.00    +0.000 A 
BRANCH  19  21
ATOM     21  N   UNL     1      44.850   3.122   9.026  0.00  0.00    +0.000 N 
ATOM     22  C   UNL     1      45.000   1.681   8.811  0.00  0.00    +0.000 C 
ATOM     23  C   UNL     1      46.358   1.378   8.174  0.00  0.00    +0.000 C 
ATOM     24  O   UNL     1      46.565   2.149   6.976  0.00  0.00    +0.000 OA
ATOM     25  C   UNL     1      46.507   3.557   7.269  0.00  0.00    +0.000 C 
ATOM     26  C   UNL     1      45.143   3.963   7.859  0.00  0.00    +0.000 C 
ENDBRANCH  19  21
ENDBRANCH  14  15
ENDBRANCH   1  14
TORSDOF 5
ENDMDL
MODEL 7
REMARK VINA RESULT:    -6.493      3.128      7.636
REMARK INTER + INTRA:          -9.354
REMARK INTER:                  -8.790
REMARK INTRA:                  -0.564
REMARK UNBOUND:                -0.963
REMARK  Name = 
REMARK  5 active torsions:
REMARK  status: ('A' for Active; 'I' for Inactive)
REMARK    1  A    between atoms: C_2  and  C_4
REMARK    2  A    between atoms: C_7  and  N_8
REMARK    3  A    between atoms: N_8  and  C_9
REMARK    4  A    between atoms: C_9  and  C_10
REMARK    5  A    between atoms: C_14  and  N_15
REMARK                            x       y       z     vdW  Elec       q    Type
REMARK                         _______ _______ _______ _____ _____    ______ ____
ROOT
ATOM      1  N   UNL     1      47.190   6.025  13.067  0.00  0.00    +0.000 N 
ATOM      2  H   UNL     1      47.693   5.505  12.352  0.00  0.00    +0.000 HD
ENDROOT
BRANCH   1   6
ATOM      3  C   UNL     1      48.382   4.745  16.917  0.00  0.00    +0.000 A 
ATOM      4  C   UNL     1      48.805   5.987  16.442  0.00  0.00    +0.000 A 
ATOM      5  C   UNL     1      48.401   6.425  15.178  0.00  0.00    +0.000 A 
ATOM      6  C   UNL     1      47.543   5.661  14.371  0.00  0.00    +0.000 A 
ATOM      7  C   UNL     1      47.130   4.415  14.865  0.00  0.00    +0.000 A 
ATOM      8  C   UNL     1      47.548   3.956  16.121  0.00  0.00    +0.000 A 
BRANCH   3  10
ATOM      9  N   UNL     1      47.984   3.481  18.957  0.00  0.00    +0.000 N 
ATOM     10  C   UNL     1      48.860   4.223  18.219  0.00  0.00    +0.000 C 
ATOM     11  O   UNL     1      50.005   4.432  18.615  0.00  0.00    +0.000 OA
ATOM     12  H   UNL     1      48.342   3.067  19.807  0.00  0.00    +0.000 HD
ATOM     13  H   UNL     1      47.140   3.090  18.560  0.00  0.00    +0.000 HD
ENDBRANCH   3  10
ENDBRANCH   1   6
BRANCH   1  14
ATOM     14  C   UNL     1      45.785   6.239  12.762  0.00  0.00    +0.000 C 
BRANCH  14  15
ATOM     15  C   UNL     1      45.110   4.983  12.271  0.00  0.00    +0.000 A 
ATOM     16  C   UNL     1      44.062   4.422  13.012  0.00  0.00    +0.000 A 
ATOM     17  C   UNL     1      43.326   3.362  12.487  0.00  0.00    +0.000 A 
ATOM     18  C   UNL     1      43.607   2.891  11.212  0.00  0.00    +0.000 A 
ATOM     19  C   UNL     1      44.644   3.429  10.440  0.00  0.00    +0.000 A 
ATOM     20  C   UNL     1      45.420   4.447  11.018  0.00  0.00    +0.000 A 
BRANCH  19  21
ATOM     21  N   UNL     1      44.858   3.008   9.154  0.00  0.00    +0.000 N 
ATOM     22  C   UNL     1      45.053   1.595   8.822  0.00  0.00    +0.000 C 
ATOM     23  C   UNL     1      46.387   1.398   8.098  0.00  0.00    +0.000 C 
ATOM     24  O   UNL     1      46.499   2.264   6.954  0.00  0.00    +0.000 OA
ATOM     25  C   UNL     1      46.403   3.642   7.355  0.00  0.00    +0.000 C 
ATOM     26  C   UNL     1      45.057   3.945   8.042  0.00  0.00    +0.000 C 
ENDBRANCH  19  21
ENDBRANCH  14  15
ENDBRANCH   1  14
TORSDOF 5
ENDMDL
MODEL 8
REMARK VINA RESULT:    -6.467      4.850      7.978
REMARK INTER + INTRA:          -9.321
REMARK INTER:                  -8.671
REMARK INTRA:                  -0.650
REMARK UNBOUND:                -0.963
REMARK  Name = 
REMARK  5 active torsions:
REMARK  status: ('A' for Active; 'I' for Inactive)
REMARK    1  A    between atoms: C_2  and  C_4
REMARK    2  A    between atoms: C_7  and  N_8
REMARK    3  A    between atoms: N_8  and  C_9
REMARK    4  A    between atoms: C_9  and  C_10
REMARK    5  A    between atoms: C_14  and  N_15
REMARK                            x       y       z     vdW  Elec       q    Type
REMARK                         _______ _______ _______ _____ _____    ______ ____
ROOT
ATOM      1  N   UNL     1      48.201   5.482  16.372  0.00  0.00    +0.000 N 
ATOM      2  H   UNL     1      47.558   5.801  17.093  0.00  0.00    +0.000 HD
ENDROOT
BRANCH   1   6
ATOM      3  C   UNL     1      51.062   2.606  17.568  0.00  0.00    +0.000 A 
ATOM      4  C   UNL     1      51.415   3.956  17.531  0.00  0.00    +0.000 A 
ATOM      5  C   UNL     1      50.470   4.914  17.153  0.00  0.00    +0.000 A 
ATOM      6  C   UNL     1      49.148   4.563  16.839  0.00  0.00    +0.000 A 
ATOM      7  C   UNL     1      48.812   3.202  16.881  0.00  0.00    +0.000 A 
ATOM      8  C   UNL     1      49.758   2.231  17.235  0.00  0.00    +0.000 A 
BRANCH   3  10
ATOM      9  N   UNL     1      51.616   0.283  18.032  0.00  0.00    +0.000 N 
ATOM     10  C   UNL     1      52.065   1.564  17.888  0.00  0.00    +0.000 C 
ATOM     11  O   UNL     1      53.260   1.834  18.002  0.00  0.00    +0.000 OA
ATOM     12  H   UNL     1      52.317  -0.431  18.176  0.00  0.00    +0.000 HD
ATOM     13  H   UNL     1      50.703  -0.008  17.708  0.00  0.00    +0.000 HD
ENDBRANCH   3  10
ENDBRANCH   1   6
BRANCH   1  14
ATOM     14  C   UNL     1      48.638   6.530  15.466  0.00  0.00    +0.000 C 
BRANCH  14  15
ATOM     15  C   UNL     1      47.849   6.538  14.180  0.00  0.00    +0.000 A 
ATOM     16  C   UNL     1      48.361   7.194  13.054  0.00  0.00    +0.000 A 
ATOM     17  C   UNL     1      47.723   7.068  11.822  0.00  0.00    +0.000 A 
ATOM     18  C   UNL     1      46.602   6.258  11.705  0.00  0.00    +0.000 A 
ATOM     19  C   UNL     1      46.063   5.583  12.808  0.00  0.00    +0.000 A 
ATOM     20  C   UNL     1      46.679   5.783  14.054  0.00  0.00    +0.000 A 
BRANCH  19  21
ATOM     21  N   UNL     1      45.005   4.725  12.662  0.00  0.00    +0.000 N 
ATOM     22  C   UNL     1      45.175   3.366  12.144  0.00  0.00    +0.000 C 
ATOM     23  C   UNL     1      44.288   3.151  10.915  0.00  0.00    +0.000 C 
ATOM     24  O   UNL     1      42.914   3.479  11.191  0.00  0.00    +0.000 OA
ATOM     25  C   UNL     1      42.798   4.855  11.598  0.00  0.00    +0.000 C 
ATOM     26  C   UNL     1      43.615   5.146  12.871  0.00  0.00    +0.000 C 
ENDBRANCH  19  21
ENDBRANCH  14  15
ENDBRANCH   1  14
TORSDOF 5
ENDMDL
MODEL 9
REMARK VINA RESULT:    -5.942      3.772      5.866
REMARK INTER + INTRA:          -8.642
REMARK INTER:                  -7.877
REMARK INTRA:                  -0.766
REMARK UNBOUND:                -0.963
REMARK  Name = 
REMARK  5 active torsions:
REMARK  status: ('A' for Active; 'I' for Inactive)
REMARK    1  A    between atoms: C_2  and  C_4
REMARK    2  A    between atoms: C_7  and  N_8
REMARK    3  A    between atoms: N_8  and  C_9
REMARK    4  A    between atoms: C_9  and  C_10
REMARK    5  A    between atoms: C_14  and  N_15
REMARK                            x       y       z     vdW  Elec       q    Type
REMARK                         _______ _______ _______ _____ _____    ______ ____
ROOT
ATOM      1  N   UNL     1      46.843   7.553  12.688  0.00  0.00    +0.000 N 
ATOM      2  H   UNL     1      46.278   8.035  13.383  0.00  0.00    +0.000 HD
ENDROOT
BRANCH   1   6
ATOM      3  C   UNL     1      44.839   4.088  11.324  0.00  0.00    +0.000 A 
ATOM      4  C   UNL     1      45.233   5.062  10.406  0.00  0.00    +0.000 A 
ATOM      5  C   UNL     1      45.911   6.202  10.847  0.00  0.00    +0.000 A 
ATOM      6  C   UNL     1      46.245   6.386  12.198  0.00  0.00    +0.000 A 
ATOM      7  C   UNL     1      45.839   5.397  13.105  0.00  0.00    +0.000 A 
ATOM      8  C   UNL     1      45.138   4.262  12.677  0.00  0.00    +0.000 A 
BRANCH   3  10
ATOM      9  N   UNL     1      44.532   2.181   9.845  0.00  0.00    +0.000 N 
ATOM     10  C   UNL     1      44.051   2.910  10.894  0.00  0.00    +0.000 C 
ATOM     11  O   UNL     1      43.012   2.585  11.467  0.00  0.00    +0.000 OA
ATOM     12  H   UNL     1      44.029   1.336   9.608  0.00  0.00    +0.000 HD
ATOM     13  H   UNL     1      45.486   2.269   9.519  0.00  0.00    +0.000 HD
ENDBRANCH   3  10
ENDBRANCH   1   6
BRANCH   1  14
ATOM     14  C   UNL     1      48.263   7.529  12.995  0.00  0.00    +0.000 C 
BRANCH  14  15
ATOM     15  C   UNL     1      48.528   7.648  14.475  0.00  0.00    +0.000 A 
ATOM     16  C   UNL     1      48.500   8.907  15.088  0.00  0.00    +0.000 A 
ATOM     17  C   UNL     1      48.579   9.011  16.474  0.00  0.00    +0.000 A 
ATOM     18  C   UNL     1      48.644   7.861  17.250  0.00  0.00    +0.000 A 
ATOM     19  C   UNL     1      48.670   6.585  16.674  0.00  0.00    +0.000 A 
ATOM     20  C   UNL     1      48.664   6.507  15.272  0.00  0.00    +0.000 A 
BRANCH  19  21
ATOM     21  N   UNL     1      48.654   5.458  17.453  0.00  0.00    +0.000 N 
ATOM     22  C   UNL     1      49.887   4.799  17.889  0.00  0.00    +0.000 C 
ATOM     23  C   UNL     1      49.893   3.335  17.441  0.00  0.00    +0.000 C 
ATOM     24  O   UNL     1      48.705   2.646  17.873  0.00  0.00    +0.000 OA
ATOM     25  C   UNL     1      47.532   3.279  17.331  0.00  0.00    +0.000 C 
ATOM     26  C   UNL     1      47.414   4.747  17.784  0.00  0.00    +0.000 C 
ENDBRANCH  19  21
ENDBRANCH  14  15
ENDBRANCH   1  14
TORSDOF 5
ENDMDL
