MODEL 1
REMARK VINA RESULT:    -8.628      0.000      0.000
REMARK INTER + INTRA:         -12.383
REMARK INTER:                 -11.654
REMARK INTRA:                  -0.729
REMARK UNBOUND:                -0.729
REMARK  Name = 
REMARK  7 active torsions:
REMARK  status: ('A' for Active; 'I' for Inactive)
REMARK    1  A    between atoms: C_1  and  C_2
REMARK    2  A    between atoms: C_2  and  N_3
REMARK    3  A    between atoms: C_2  and  C_16
REMARK    4  A    between atoms: C_4  and  C_6
REMARK    5  A    between atoms: C_19  and  C_20
REMARK    6  A    between atoms: C_20  and  O_21
REMARK    7  A    between atoms: O_21  and  C_22
REMARK                            x       y       z     vdW  Elec       q    Type
REMARK                         _______ _______ _______ _____ _____    ______ ____
ROOT
ATOM      1  C   UNL     1      45.623   8.582  12.711  0.00  0.00    +0.000 C 
ATOM      2  C   UNL     1      46.617   7.415  12.695  0.00  0.00    +0.000 C 
ENDROOT
BRANCH   2   3
ATOM      3  C   UNL     1      46.016   6.231  11.949  0.00  0.00    +0.000 A 
ATOM      4  C   UNL     1      45.478   5.145  12.637  0.00  0.00    +0.000 A 
ATOM      5  N   UNL     1      44.968   4.051  12.022  0.00  0.00    +0.000 NA
ATOM      6  C   UNL     1      45.008   4.062  10.665  0.00  0.00    +0.000 A 
ATOM      7  C   UNL     1      45.525   5.153   9.975  0.00  0.00    +0.000 A 
ATOM      8  N   UNL     1      46.039   6.246  10.592  0.00  0.00    +0.000 NA
BRANCH   6   9
ATOM      9  C   UNL     1      44.548   2.833   9.921  0.00  0.00    +0.000 C 
BRANCH   9  10
ATOM     10  O   UNL     1      44.559   3.054   8.507  0.00  0.00    +0.000 OA
BRANCH  10  11
ATOM     11  C   UNL     1      45.630   2.422   7.897  0.00  0.00    +0.000 A 
ATOM     12  C   UNL     1      46.321   3.142   6.949  0.00  0.00    +0.000 A 
ATOM     13  C   UNL     1      47.396   2.499   6.387  0.00  0.00    +0.000 A 
ATOM     14  N   UNL     1      47.772   1.250   6.718  0.00  0.00    +0.000 NA
ATOM     15  C   UNL     1      47.023   0.646   7.650  0.00  0.00    +0.000 A 
ATOM     16  N   UNL     1      45.961   1.172   8.271  0.00  0.00    +0.000 NA
ENDBRANCH  10  11
ENDBRANCH   9  10
ENDBRANCH   6   9
ENDBRANCH   2   3
BRANCH   2  17
ATOM     17  N   UNL     1      47.036   7.015  14.037  0.00  0.00    +0.000 N 
ATOM     18  C   UNL     1      48.338   6.693  14.337  0.00  0.00    +0.000 C 
ATOM     19  O   UNL     1      49.255   6.810  13.531  0.00  0.00    +0.000 OA
ATOM     20  H   UNL     1      46.319   6.570  14.605  0.00  0.00    +0.000 HD
BRANCH  18  21
ATOM     21  C   UNL     1      48.596   6.263  15.717  0.00  0.00    +0.000 A 
ATOM     22  C   UNL     1      49.332   7.078  16.565  0.00  0.00    +0.000 A 
ATOM     23  S   UNL     1      49.526   6.433  18.132  0.00  0.00    +0.000 S 
ATOM     24  C   UNL     1      48.679   5.020  17.713  0.00  0.00    +0.000 A 
ATOM     25  N   UNL     1      48.516   4.007  18.608  0.00  0.00    +0.000 NA
ATOM     26  C   UNL     1      47.889   2.979  18.140  0.00  0.00    +0.000 A 
ATOM     27  N   UNL     1      47.396   2.877  16.864  0.00  0.00    +0.000 N 
ATOM     28  C   UNL     1      47.479   3.899  15.950  0.00  0.00    +0.000 A 
ATOM     29  O   UNL     1      46.937   3.829  14.851  0.00  0.00    +0.000 OA
ATOM     30  C   UNL     1      48.217   5.058  16.409  0.00  0.00    +0.000 A 
ATOM     31  H   UNL     1      46.889   2.055  16.571  0.00  0.00    +0.000 HD
ENDBRANCH  18  21
ENDBRANCH   2  17
TORSDOF 6
ENDMDL
MODEL 2
REMARK VINA RESULT:    -7.894      1.764      2.237
REMARK INTER + INTRA:         -11.392
REMARK INTER:                 -10.634
REMARK INTRA:                  -0.757
REMARK UNBOUND:                -0.729
REMARK  Name = 
REMARK  7 active torsions:
REMARK  status: ('A' for Active; 'I' for Inactive)
REMARK    1  A    between atoms: C_1  and  C_2
REMARK    2  A    between atoms: C_2  and  N_3
REMARK    3  A    between atoms: C_2  and  C_16
REMARK    4  A    between atoms: C_4  and  C_6
REMARK    5  A    between atoms: C_19  and  C_20
REMARK    6  A    between atoms: C_20  and  O_21
REMARK    7  A    between atoms: O_21  and  C_22
REMARK                            x       y       z     vdW  Elec       q    Type
REMARK                         _______ _______ _______ _____ _____    ______ ____
ROOT
ATOM      1  C   UNL     1      48.442   7.988  12.841  0.00  0.00    +0.000 C 
ATOM      2  C   UNL     1      48.287   6.634  13.543  0.00  0.00    +0.000 C 
ENDROOT
BRANCH   2   3
ATOM      3  C   UNL     1      47.124   5.864  12.933  0.00  0.00    +0.000 A 
ATOM      4  C   UNL     1      46.758   4.610  13.420  0.00  0.00    +0.000 A 
ATOM      5  N   UNL     1      45.757   3.867  12.888  0.00  0.00    +0.000 NA
ATOM      6  C   UNL     1      45.112   4.415  11.827  0.00  0.00    +0.000 A 
ATOM      7  C   UNL     1      45.461   5.674  11.352  0.00  0.00    +0.000 A 
ATOM      8  N   UNL     1      46.465   6.416  11.882  0.00  0.00    +0.000 NA
BRANCH   6   9
ATOM      9  C   UNL     1      44.055   3.598  11.126  0.00  0.00    +0.000 C 
BRANCH   9  10
ATOM     10  O   UNL     1      43.915   4.002   9.760  0.00  0.00    +0.000 OA
BRANCH  10  11
ATOM     11  C   UNL     1      44.879   3.423   8.952  0.00  0.00    +0.000 A 
ATOM     12  C   UNL     1      45.102   2.074   9.117  0.00  0.00    +0.000 A 
ATOM     13  C   UNL     1      46.040   1.524   8.278  0.00  0.00    +0.000 A 
ATOM     14  N   UNL     1      46.713   2.230   7.350  0.00  0.00    +0.000 NA
ATOM     15  C   UNL     1      46.415   3.534   7.284  0.00  0.00    +0.000 A 
ATOM     16  N   UNL     1      45.519   4.178   8.040  0.00  0.00    +0.000 NA
ENDBRANCH  10  11
ENDBRANCH   9  10
ENDBRANCH   6   9
ENDBRANCH   2   3
BRANCH   2  17
ATOM     17  N   UNL     1      48.113   6.766  14.988  0.00  0.00    +0.000 N 
ATOM     18  C   UNL     1      49.171   6.734  15.864  0.00  0.00    +0.000 C 
ATOM     19  O   UNL     1      50.339   6.691  15.496  0.00  0.00    +0.000 OA
ATOM     20  H   UNL     1      47.216   6.450  15.351  0.00  0.00    +0.000 HD
BRANCH  18  21
ATOM     21  C   UNL     1      48.832   6.831  17.290  0.00  0.00    +0.000 A 
ATOM     22  C   UNL     1      48.480   8.059  17.831  0.00  0.00    +0.000 A 
ATOM     23  S   UNL     1      48.107   7.989  19.494  0.00  0.00    +0.000 S 
ATOM     24  C   UNL     1      48.456   6.326  19.557  0.00  0.00    +0.000 A 
ATOM     25  N   UNL     1      48.377   5.635  20.727  0.00  0.00    +0.000 NA
ATOM     26  C   UNL     1      48.710   4.391  20.634  0.00  0.00    +0.000 A 
ATOM     27  N   UNL     1      49.098   3.769  19.475  0.00  0.00    +0.000 N 
ATOM     28  C   UNL     1      49.127   4.410  18.261  0.00  0.00    +0.000 A 
ATOM     29  O   UNL     1      49.372   3.810  17.218  0.00  0.00    +0.000 OA
ATOM     30  C   UNL     1      48.810   5.822  18.317  0.00  0.00    +0.000 A 
ATOM     31  H   UNL     1      49.317   2.784  19.465  0.00  0.00    +0.000 HD
ENDBRANCH  18  21
ENDBRANCH   2  17
TORSDOF 6
ENDMDL
MODEL 3
REMARK VINA RESULT:    -7.714      2.697      3.880
REMARK INTER + INTRA:         -11.149
REMARK INTER:                 -10.242
REMARK INTRA:                  -0.906
REMARK UNBOUND:                -0.729
REMARK  Name = 
REMARK  7 active torsions:
REMARK  status: ('A' for Active; 'I' for Inactive)
REMARK    1  A    between atoms: C_1  and  C_2
REMARK    2  A    between atoms: C_2  and  N_3
REMARK    3  A    between atoms: C_2  and  C_16
REMARK    4  A    between atoms: C_4  and  C_6
REMARK    5  A    between atoms: C_19  and  C_20
REMARK    6  A    between atoms: C_20  and  O_21
REMARK    7  A    between atoms: O_21  and  C_22
REMARK                            x       y       z     vdW  Elec       q    Type
REMARK                         _______ _______ _______ _____ _____    ______ ____
ROOT
ATOM      1  C   UNL     1      46.859   4.353  14.789  0.00  0.00    +0.000 C 
ATOM      2  C   UNL     1      46.595   5.526  13.838  0.00  0.00    +0.000 C 
ENDROOT
BRANCH   2   3
ATOM      3  C   UNL     1      45.950   5.019  12.556  0.00  0.00    +0.000 A 
ATOM      4  C   UNL     1      45.434   3.727  12.472  0.00  0.00    +0.000 A 
ATOM      5  N   UNL     1      44.887   3.214  11.344  0.00  0.00    +0.000 NA
ATOM      6  C   UNL     1      44.867   4.040  10.267  0.00  0.00    +0.000 A 
ATOM      7  C   UNL     1      45.363   5.336  10.352  0.00  0.00    +0.000 A 
ATOM      8  N   UNL     1      45.914   5.848  11.481  0.00  0.00    +0.000 NA
BRANCH   6   9
ATOM      9  C   UNL     1      44.363   3.498   8.952  0.00  0.00    +0.000 C 
BRANCH   9  10
ATOM     10  O   UNL     1      45.157   3.975   7.861  0.00  0.00    +0.000 OA
BRANCH  10  11
ATOM     11  C   UNL     1      46.056   3.017   7.423  0.00  0.00    +0.000 A 
ATOM     12  C   UNL     1      46.899   3.378   6.396  0.00  0.00    +0.000 A 
ATOM     13  C   UNL     1      47.800   2.417   6.007  0.00  0.00    +0.000 A 
ATOM     14  N   UNL     1      47.877   1.197   6.571  0.00  0.00    +0.000 NA
ATOM     15  C   UNL     1      47.004   0.959   7.559  0.00  0.00    +0.000 A 
ATOM     16  N   UNL     1      46.089   1.815   8.027  0.00  0.00    +0.000 NA
ENDBRANCH  10  11
ENDBRANCH   9  10
ENDBRANCH   6   9
ENDBRANCH   2   3
BRANCH   2  17
ATOM     17  N   UNL     1      47.804   6.289  13.537  0.00  0.00    +0.000 N 
ATOM     18  C   UNL     1      47.808   7.661  13.448  0.00  0.00    +0.000 C 
ATOM     19  O   UNL     1      46.826   8.347  13.709  0.00  0.00    +0.000 OA
ATOM     20  H   UNL     1      48.504   5.800  12.983  0.00  0.00    +0.000 HD
BRANCH  18  21
ATOM     21  C   UNL     1      49.089   8.282  13.089  0.00  0.00    +0.000 A 
ATOM     22  C   UNL     1      49.162   9.122  11.988  0.00  0.00    +0.000 A 
ATOM     23  S   UNL     1      50.719   9.765  11.722  0.00  0.00    +0.000 S 
ATOM     24  C   UNL     1      51.359   8.899  13.037  0.00  0.00    +0.000 A 
ATOM     25  N   UNL     1      52.684   8.967  13.346  0.00  0.00    +0.000 NA
ATOM     26  C   UNL     1      53.036   8.225  14.342  0.00  0.00    +0.000 A 
ATOM     27  N   UNL     1      52.185   7.435  15.070  0.00  0.00    +0.000 N 
ATOM     28  C   UNL     1      50.832   7.387  14.837  0.00  0.00    +0.000 A 
ATOM     29  O   UNL     1      50.072   6.758  15.567  0.00  0.00    +0.000 OA
ATOM     30  C   UNL     1      50.390   8.164  13.697  0.00  0.00    +0.000 A 
ATOM     31  H   UNL     1      52.521   6.901  15.858  0.00  0.00    +0.000 HD
ENDBRANCH  18  21
ENDBRANCH   2  17
TORSDOF 6
ENDMDL
MODEL 4
REMARK VINA RESULT:    -7.433      2.633      4.315
REMARK INTER + INTRA:         -10.769
REMARK INTER:                  -9.778
REMARK INTRA:                  -0.991
REMARK UNBOUND:                -0.729
REMARK  Name = 
REMARK  7 active torsions:
REMARK  status: ('A' for Active; 'I' for Inactive)
REMARK    1  A    between atoms: C_1  and  C_2
REMARK    2  A    between atoms: C_2  and  N_3
REMARK    3  A    between atoms: C_2  and  C_16
REMARK    4  A    between atoms: C_4  and  C_6
REMARK    5  A    between atoms: C_19  and  C_20
REMARK    6  A    between atoms: C_20  and  O_21
REMARK    7  A    between atoms: O_21  and  C_22
REMARK                            x       y       z     vdW  Elec       q    Type
REMARK                         _______ _______ _______ _____ _____    ______ ____
ROOT
ATOM      1  C   UNL     1      47.154   4.301  14.900  0.00  0.00    +0.000 C 
ATOM      2  C   UNL     1      46.960   5.552  14.035  0.00  0.00    +0.000 C 
ENDROOT
BRANCH   2   3
ATOM      3  C   UNL     1      46.256   5.180  12.737  0.00  0.00    +0.000 A 
ATOM      4  C   UNL     1      45.523   3.999  12.629  0.00  0.00    +0.000 A 
ATOM      5  N   UNL     1      44.912   3.603  11.486  0.00  0.00    +0.000 NA
ATOM      6  C   UNL     1      45.053   4.433  10.421  0.00  0.00    +0.000 A 
ATOM      7  C   UNL     1      45.766   5.621  10.531  0.00  0.00    +0.000 A 
ATOM      8  N   UNL     1      46.381   6.016  11.674  0.00  0.00    +0.000 NA
BRANCH   6   9
ATOM      9  C   UNL     1      44.482   4.003   9.093  0.00  0.00    +0.000 C 
BRANCH   9  10
ATOM     10  O   UNL     1      44.563   2.582   8.934  0.00  0.00    +0.000 OA
BRANCH  10  11
ATOM     11  C   UNL     1      45.677   2.210   8.201  0.00  0.00    +0.000 A 
ATOM     12  C   UNL     1      46.321   3.204   7.498  0.00  0.00    +0.000 A 
ATOM     13  C   UNL     1      47.441   2.809   6.808  0.00  0.00    +0.000 A 
ATOM     14  N   UNL     1      47.900   1.544   6.798  0.00  0.00    +0.000 NA
ATOM     15  C   UNL     1      47.190   0.663   7.515  0.00  0.00    +0.000 A 
ATOM     16  N   UNL     1      46.092   0.931   8.230  0.00  0.00    +0.000 NA
ENDBRANCH  10  11
ENDBRANCH   9  10
ENDBRANCH   6   9
ENDBRANCH   2   3
BRANCH   2  17
ATOM     17  N   UNL     1      48.216   6.244  13.756  0.00  0.00    +0.000 N 
ATOM     18  C   UNL     1      48.787   7.124  14.645  0.00  0.00    +0.000 C 
ATOM     19  O   UNL     1      48.338   7.319  15.769  0.00  0.00    +0.000 OA
ATOM     20  H   UNL     1      48.420   6.401  12.771  0.00  0.00    +0.000 HD
BRANCH  18  21
ATOM     21  C   UNL     1      50.024   7.778  14.202  0.00  0.00    +0.000 A 
ATOM     22  C   UNL     1      51.190   7.613  14.937  0.00  0.00    +0.000 A 
ATOM     23  S   UNL     1      52.533   8.430  14.277  0.00  0.00    +0.000 S 
ATOM     24  C   UNL     1      51.590   9.074  13.017  0.00  0.00    +0.000 A 
ATOM     25  N   UNL     1      52.130   9.919  12.096  0.00  0.00    +0.000 NA
ATOM     26  C   UNL     1      51.288  10.362  11.223  0.00  0.00    +0.000 A 
ATOM     27  N   UNL     1      49.959  10.026  11.176  0.00  0.00    +0.000 N 
ATOM     28  C   UNL     1      49.388   9.128  12.043  0.00  0.00    +0.000 A 
ATOM     29  O   UNL     1      48.224   8.759  11.918  0.00  0.00    +0.000 OA
ATOM     30  C   UNL     1      50.278   8.637  13.075  0.00  0.00    +0.000 A 
ATOM     31  H   UNL     1      49.361  10.387  10.447  0.00  0.00    +0.000 HD
ENDBRANCH  18  21
ENDBRANCH   2  17
TORSDOF 6
ENDMDL
MODEL 5
REMARK VINA RESULT:    -7.372      3.436      7.826
REMARK INTER + INTRA:         -10.686
REMARK INTER:                  -9.666
REMARK INTRA:                  -1.020
REMARK UNBOUND:                -0.729
REMARK  Name = 
REMARK  7 active torsions:
REMARK  status: ('A' for Active; 'I' for Inactive)
REMARK    1  A    between atoms: C_1  and  C_2
REMARK    2  A    between atoms: C_2  and  N_3
REMARK    3  A    between atoms: C_2  and  C_16
REMARK    4  A    between atoms: C_4  and  C_6
REMARK    5  A    between atoms: C_19  and  C_20
REMARK    6  A    between atoms: C_20  and  O_21
REMARK    7  A    between atoms: O_21  and  C_22
REMARK                            x       y       z     vdW  Elec       q    Type
REMARK                         _______ _______ _______ _____ _____    ______ ____
ROOT
ATOM      1  C   UNL     1      49.533   8.363  11.457  0.00  0.00    +0.000 C 
ATOM      2  C   UNL     1      48.389   7.817  12.319  0.00  0.00    +0.000 C 
ENDROOT
BRANCH   2   3
ATOM      3  C   UNL     1      48.932   7.328  13.654  0.00  0.00    +0.000 A 
ATOM      4  C   UNL     1      48.228   6.401  14.421  0.00  0.00    +0.000 A 
ATOM      5  N   UNL     1      48.648   5.963  15.633  0.00  0.00    +0.000 NA
ATOM      6  C   UNL     1      49.818   6.487  16.079  0.00  0.00    +0.000 A 
ATOM      7  C   UNL     1      50.533   7.397  15.307  0.00  0.00    +0.000 A 
ATOM      8  N   UNL     1      50.110   7.837  14.096  0.00  0.00    +0.000 NA
BRANCH   6   9
ATOM      9  C   UNL     1      50.291   6.119  17.463  0.00  0.00    +0.000 C 
BRANCH   9  10
ATOM     10  O   UNL     1      49.629   4.940  17.935  0.00  0.00    +0.000 OA
BRANCH  10  11
ATOM     11  C   UNL     1      50.405   3.807  17.751  0.00  0.00    +0.000 A 
ATOM     12  C   UNL     1      51.688   3.843  18.250  0.00  0.00    +0.000 A 
ATOM     13  C   UNL     1      52.419   2.693  18.081  0.00  0.00    +0.000 A 
ATOM     14  N   UNL     1      51.942   1.591  17.472  0.00  0.00    +0.000 NA
ATOM     15  C   UNL     1      50.682   1.675  17.025  0.00  0.00    +0.000 A 
ATOM     16  N   UNL     1      49.874   2.735  17.137  0.00  0.00    +0.000 NA
ENDBRANCH  10  11
ENDBRANCH   9  10
ENDBRANCH   6   9
ENDBRANCH   2   3
BRANCH   2  17
ATOM     17  N   UNL     1      47.640   6.755  11.650  0.00  0.00    +0.000 N 
ATOM     18  C   UNL     1      46.282   6.824  11.449  0.00  0.00    +0.000 C 
ATOM     19  O   UNL     1      45.618   7.818  11.725  0.00  0.00    +0.000 OA
ATOM     20  H   UNL     1      48.036   5.821  11.733  0.00  0.00    +0.000 HD
BRANCH  18  21
ATOM     21  C   UNL     1      45.663   5.658  10.807  0.00  0.00    +0.000 A 
ATOM     22  C   UNL     1      45.742   5.509   9.429  0.00  0.00    +0.000 A 
ATOM     23  S   UNL     1      44.982   4.095   8.853  0.00  0.00    +0.000 S 
ATOM     24  C   UNL     1      44.476   3.665  10.417  0.00  0.00    +0.000 A 
ATOM     25  N   UNL     1      43.722   2.551  10.631  0.00  0.00    +0.000 NA
ATOM     26  C   UNL     1      43.375   2.371  11.862  0.00  0.00    +0.000 A 
ATOM     27  N   UNL     1      43.727   3.192  12.902  0.00  0.00    +0.000 N 
ATOM     28  C   UNL     1      44.540   4.288  12.743  0.00  0.00    +0.000 A 
ATOM     29  O   UNL     1      44.931   4.947  13.702  0.00  0.00    +0.000 OA
ATOM     30  C   UNL     1      44.917   4.563  11.372  0.00  0.00    +0.000 A 
ATOM     31  H   UNL     1      43.446   2.978  13.847  0.00  0.00    +0.000 HD
ENDBRANCH  18  21
ENDBRANCH   2  17
TORSDOF 6
ENDMDL
MODEL 6
REMARK VINA RESULT:    -7.312      3.022      8.172
REMARK INTER + INTRA:         -10.605
REMARK INTER:                  -9.600
REMARK INTRA:                  -1.005
REMARK UNBOUND:                -0.729
REMARK  Name = 
REMARK  7 active torsions:
REMARK  status: ('A' for Active; 'I' for Inactive)
REMARK    1  A    between atoms: C_1  and  C_2
REMARK    2  A    between atoms: C_2  and  N_3
REMARK    3  A    between atoms: C_2  and  C_16
REMARK    4  A    between atoms: C_4  and  C_6
REMARK    5  A    between atoms: C_19  and  C_20
REMARK    6  A    between atoms: C_20  and  O_21
REMARK    7  A    between atoms: O_21  and  C_22
REMARK                            x       y       z     vdW  Elec       q    Type
REMARK                         _______ _______ _______ _____ _____    ______ ____
ROOT
ATOM      1  C   UNL     1      48.739   7.880  11.400  0.00  0.00    +0.000 C 
ATOM      2  C   UNL     1      47.776   7.428  12.503  0.00  0.00    +0.000 C 
ENDROOT
BRANCH   2   3
ATOM      3  C   UNL     1      48.550   7.143  13.783  0.00  0.00    +0.000 A 
ATOM      4  C   UNL     1      49.840   7.637  13.968  0.00  0.00    +0.000 A 
ATOM      5  N   UNL     1      50.586   7.379  15.070  0.00  0.00    +0.000 NA
ATOM      6  C   UNL     1      50.002   6.594  16.010  0.00  0.00    +0.000 A 
ATOM      7  C   UNL     1      48.707   6.117  15.837  0.00  0.00    +0.000 A 
ATOM      8  N   UNL     1      47.962   6.372  14.733  0.00  0.00    +0.000 NA
BRANCH   6   9
ATOM      9  C   UNL     1      50.814   6.188  17.215  0.00  0.00    +0.000 C 
BRANCH   9  10
ATOM     10  O   UNL     1      50.146   5.168  17.964  0.00  0.00    +0.000 OA
BRANCH  10  11
ATOM     11  C   UNL     1      50.710   3.921  17.750  0.00  0.00    +0.000 A 
ATOM     12  C   UNL     1      51.996   3.733  18.203  0.00  0.00    +0.000 A 
ATOM     13  C   UNL     1      52.514   2.476  18.005  0.00  0.00    +0.000 A 
ATOM     14  N   UNL     1      51.836   1.478  17.410  0.00  0.00    +0.000 NA
ATOM     15  C   UNL     1      50.594   1.778  17.008  0.00  0.00    +0.000 A 
ATOM     16  N   UNL     1      49.983   2.960  17.152  0.00  0.00    +0.000 NA
ENDBRANCH  10  11
ENDBRANCH   9  10
ENDBRANCH   6   9
ENDBRANCH   2   3
BRANCH   2  17
ATOM     17  N   UNL     1      46.983   6.263  12.114  0.00  0.00    +0.000 N 
ATOM     18  C   UNL     1      45.611   6.297  12.038  0.00  0.00    +0.000 C 
ATOM     19  O   UNL     1      44.961   7.325  12.195  0.00  0.00    +0.000 OA
ATOM     20  H   UNL     1      47.401   5.359  12.324  0.00  0.00    +0.000 HD
BRANCH  18  21
ATOM     21  C   UNL     1      44.953   5.034  11.681  0.00  0.00    +0.000 A 
ATOM     22  C   UNL     1      44.201   4.358  12.632  0.00  0.00    +0.000 A 
ATOM     23  S   UNL     1      43.497   2.919  12.047  0.00  0.00    +0.000 S 
ATOM     24  C   UNL     1      44.218   3.124  10.521  0.00  0.00    +0.000 A 
ATOM     25  N   UNL     1      44.054   2.198   9.536  0.00  0.00    +0.000 NA
ATOM     26  C   UNL     1      44.692   2.463   8.445  0.00  0.00    +0.000 A 
ATOM     27  N   UNL     1      45.466   3.577   8.242  0.00  0.00    +0.000 N 
ATOM     28  C   UNL     1      45.606   4.567   9.183  0.00  0.00    +0.000 A 
ATOM     29  O   UNL     1      46.215   5.606   8.942  0.00  0.00    +0.000 OA
ATOM     30  C   UNL     1      44.950   4.296  10.445  0.00  0.00    +0.000 A 
ATOM     31  H   UNL     1      45.916   3.738   7.352  0.00  0.00    +0.000 HD
ENDBRANCH  18  21
ENDBRANCH   2  17
TORSDOF 6
ENDMDL
MODEL 7
REMARK VINA RESULT:    -7.165      3.476      4.944
REMARK INTER + INTRA:         -10.406
REMARK INTER:                  -9.420
REMARK INTRA:                  -0.986
REMARK UNBOUND:                -0.729
REMARK  Name = 
REMARK  7 active torsions:
REMARK  status: ('A' for Active; 'I' for Inactive)
REMARK    1  A    between atoms: C_1  and  C_2
REMARK    2  A    between atoms: C_2  and  N_3
REMARK    3  A    between atoms: C_2  and  C_16
REMARK    4  A    between atoms: C_4  and  C_6
REMARK    5  A    between atoms: C_19  and  C_20
REMARK    6  A    between atoms: C_20  and  O_21
REMARK    7  A    between atoms: O_21  and  C_22
REMARK                            x       y       z     vdW  Elec       q    Type
REMARK                         _______ _______ _______ _____ _____    ______ ____
ROOT
ATOM      1  C   UNL     1      47.184   2.893  17.493  0.00  0.00    +0.000 C 
ATOM      2  C   UNL     1      48.045   4.091  17.078  0.00  0.00    +0.000 C 
ENDROOT
BRANCH   2   3
ATOM      3  C   UNL     1      47.664   4.543  15.675  0.00  0.00    +0.000 A 
ATOM      4  C   UNL     1      48.020   5.806  15.204  0.00  0.00    +0.000 A 
ATOM      5  N   UNL     1      47.672   6.271  13.980  0.00  0.00    +0.000 NA
ATOM      6  C   UNL     1      46.937   5.426  13.213  0.00  0.00    +0.000 A 
ATOM      7  C   UNL     1      46.597   4.158  13.672  0.00  0.00    +0.000 A 
ATOM      8  N   UNL     1      46.943   3.694  14.898  0.00  0.00    +0.000 NA
BRANCH   6   9
ATOM      9  C   UNL     1      46.432   5.919  11.879  0.00  0.00    +0.000 C 
BRANCH   9  10
ATOM     10  O   UNL     1      45.127   5.401  11.601  0.00  0.00    +0.000 OA
BRANCH  10  11
ATOM     11  C   UNL     1      45.128   4.579  10.486  0.00  0.00    +0.000 A 
ATOM     12  C   UNL     1      44.570   3.329  10.634  0.00  0.00    +0.000 A 
ATOM     13  C   UNL     1      44.556   2.551   9.502  0.00  0.00    +0.000 A 
ATOM     14  N   UNL     1      45.049   2.955   8.316  0.00  0.00    +0.000 NA
ATOM     15  C   UNL     1      45.570   4.190   8.293  0.00  0.00    +0.000 A 
ATOM     16  N   UNL     1      45.632   5.038   9.326  0.00  0.00    +0.000 NA
ENDBRANCH  10  11
ENDBRANCH   9  10
ENDBRANCH   6   9
ENDBRANCH   2   3
BRANCH   2  17
ATOM     17  N   UNL     1      49.477   3.809  17.154  0.00  0.00    +0.000 N 
ATOM     18  C   UNL     1      50.234   4.125  18.257  0.00  0.00    +0.000 C 
ATOM     19  O   UNL     1      49.749   4.576  19.289  0.00  0.00    +0.000 OA
ATOM     20  H   UNL     1      49.967   3.787  16.262  0.00  0.00    +0.000 HD
BRANCH  18  21
ATOM     21  C   UNL     1      51.667   3.824  18.164  0.00  0.00    +0.000 A 
ATOM     22  C   UNL     1      52.598   4.825  18.406  0.00  0.00    +0.000 A 
ATOM     23  S   UNL     1      54.215   4.301  18.268  0.00  0.00    +0.000 S 
ATOM     24  C   UNL     1      53.725   2.733  17.828  0.00  0.00    +0.000 A 
ATOM     25  N   UNL     1      54.639   1.772  17.520  0.00  0.00    +0.000 NA
ATOM     26  C   UNL     1      54.123   0.642  17.164  0.00  0.00    +0.000 A 
ATOM     27  N   UNL     1      52.779   0.380  17.103  0.00  0.00    +0.000 N 
ATOM     28  C   UNL     1      51.824   1.298  17.467  0.00  0.00    +0.000 A 
ATOM     29  O   UNL     1      50.632   1.009  17.508  0.00  0.00    +0.000 OA
ATOM     30  C   UNL     1      52.348   2.600  17.829  0.00  0.00    +0.000 A 
ATOM     31  H   UNL     1      52.442  -0.535  16.843  0.00  0.00    +0.000 HD
ENDBRANCH  18  21
ENDBRANCH   2  17
TORSDOF 6
ENDMDL
MODEL 8
REMARK VINA RESULT:    -7.163      2.554      3.917
REMARK INTER + INTRA:         -10.404
REMARK INTER:                  -9.362
REMARK INTRA:                  -1.042
REMARK UNBOUND:                -0.729
REMARK  Name = 
REMARK  7 active torsions:
REMARK  status: ('A' for Active; 'I' for Inactive)
REMARK    1  A    between atoms: C_1  and  C_2
REMARK    2  A    between atoms: C_2  and  N_3
REMARK    3  A    between atoms: C_2  and  C_16
REMARK    4  A    between atoms: C_4  and  C_6
REMARK    5  A    between atoms: C_19  and  C_20
REMARK    6  A    between atoms: C_20  and  O_21
REMARK    7  A    between atoms: O_21  and  C_22
REMARK                            x       y       z     vdW  Elec       q    Type
REMARK                         _______ _______ _______ _____ _____    ______ ____
ROOT
ATOM      1  C   UNL     1      47.892   3.045  15.858  0.00  0.00    +0.000 C 
ATOM      2  C   UNL     1      47.172   4.398  15.816  0.00  0.00    +0.000 C 
ENDROOT
BRANCH   2   3
ATOM      3  C   UNL     1      46.717   4.699  14.395  0.00  0.00    +0.000 A 
ATOM      4  C   UNL     1      47.358   5.668  13.625  0.00  0.00    +0.000 A 
ATOM      5  N   UNL     1      46.969   6.002  12.370  0.00  0.00    +0.000 NA
ATOM      6  C   UNL     1      45.892   5.331  11.886  0.00  0.00    +0.000 A 
ATOM      7  C   UNL     1      45.263   4.350  12.645  0.00  0.00    +0.000 A 
ATOM      8  N   UNL     1      45.651   4.019  13.901  0.00  0.00    +0.000 NA
BRANCH   6   9
ATOM      9  C   UNL     1      45.346   5.725  10.536  0.00  0.00    +0.000 C 
BRANCH   9  10
ATOM     10  O   UNL     1      44.522   4.688   9.994  0.00  0.00    +0.000 OA
BRANCH  10  11
ATOM     11  C   UNL     1      45.224   3.880   9.115  0.00  0.00    +0.000 A 
ATOM     12  C   UNL     1      45.164   2.522   9.332  0.00  0.00    +0.000 A 
ATOM     13  C   UNL     1      45.844   1.748   8.423  0.00  0.00    +0.000 A 
ATOM     14  N   UNL     1      46.533   2.254   7.383  0.00  0.00    +0.000 NA
ATOM     15  C   UNL     1      46.523   3.590   7.275  0.00  0.00    +0.000 A 
ATOM     16  N   UNL     1      45.894   4.442   8.092  0.00  0.00    +0.000 NA
ENDBRANCH  10  11
ENDBRANCH   9  10
ENDBRANCH   6   9
ENDBRANCH   2   3
BRANCH   2  17
ATOM     17  N   UNL     1      47.995   5.490  16.333  0.00  0.00    +0.000 N 
ATOM     18  C   UNL     1      47.997   5.848  17.660  0.00  0.00    +0.000 C 
ATOM     19  O   UNL     1      47.387   5.220  18.519  0.00  0.00    +0.000 OA
ATOM     20  H   UNL     1      48.212   6.228  15.666  0.00  0.00    +0.000 HD
BRANCH  18  21
ATOM     21  C   UNL     1      48.839   6.996  18.018  0.00  0.00    +0.000 A 
ATOM     22  C   UNL     1      48.261   8.120  18.591  0.00  0.00    +0.000 A 
ATOM     23  S   UNL     1      49.382   9.353  18.954  0.00  0.00    +0.000 S 
ATOM     24  C   UNL     1      50.668   8.447  18.309  0.00  0.00    +0.000 A 
ATOM     25  N   UNL     1      51.932   8.951  18.267  0.00  0.00    +0.000 NA
ATOM     26  C   UNL     1      52.798   8.170  17.713  0.00  0.00    +0.000 A 
ATOM     27  N   UNL     1      52.522   6.924  17.212  0.00  0.00    +0.000 N 
ATOM     28  C   UNL     1      51.277   6.349  17.293  0.00  0.00    +0.000 A 
ATOM     29  O   UNL     1      51.075   5.192  16.937  0.00  0.00    +0.000 OA
ATOM     30  C   UNL     1      50.255   7.204  17.862  0.00  0.00    +0.000 A 
ATOM     31  H   UNL     1      53.253   6.352  16.817  0.00  0.00    +0.000 HD
ENDBRANCH  18  21
ENDBRANCH   2  17
TORSDOF 6
ENDMDL
MODEL 9
REMARK VINA RESULT:    -6.870      3.484      5.529
REMARK INTER + INTRA:         -10.008
REMARK INTER:                  -8.902
REMARK INTRA:                  -1.107
REMARK UNBOUND:                -0.729
REMARK  Name = 
REMARK  7 active torsions:
REMARK  status: ('A' for Active; 'I' for Inactive)
REMARK    1  A    between atoms: C_1  and  C_2
REMARK    2  A    between atoms: C_2  and  N_3
REMARK    3  A    between atoms: C_2  and  C_16
REMARK    4  A    between atoms: C_4  and  C_6
REMARK    5  A    between atoms: C_19  and  C_20
REMARK    6  A    between atoms: C_20  and  O_21
REMARK    7  A    between atoms: O_21  and  C_22
REMARK                            x       y       z     vdW  Elec       q    Type
REMARK                         _______ _______ _______ _____ _____    ______ ____
ROOT
ATOM      1  C   UNL     1      48.828   6.801  19.058  0.00  0.00    +0.000 C 
ATOM      2  C   UNL     1      49.817   6.484  17.930  0.00  0.00    +0.000 C 
ENDROOT
BRANCH   2   3
ATOM      3  C   UNL     1      49.057   6.106  16.666  0.00  0.00    +0.000 A 
ATOM      4  C   UNL     1      49.238   6.815  15.479  0.00  0.00    +0.000 A 
ATOM      5  N   UNL     1      48.558   6.545  14.339  0.00  0.00    +0.000 NA
ATOM      6  C   UNL     1      47.666   5.524  14.408  0.00  0.00    +0.000 A 
ATOM      7  C   UNL     1      47.498   4.802  15.585  0.00  0.00    +0.000 A 
ATOM      8  N   UNL     1      48.176   5.075  16.727  0.00  0.00    +0.000 NA
BRANCH   6   9
ATOM      9  C   UNL     1      46.805   5.236  13.203  0.00  0.00    +0.000 C 
BRANCH   9  10
ATOM     10  O   UNL     1      45.467   4.914  13.593  0.00  0.00    +0.000 OA
BRANCH  10  11
ATOM     11  C   UNL     1      44.770   4.289  12.572  0.00  0.00    +0.000 A 
ATOM     12  C   UNL     1      44.974   4.766  11.297  0.00  0.00    +0.000 A 
ATOM     13  C   UNL     1      44.295   4.103  10.304  0.00  0.00    +0.000 A 
ATOM     14  N   UNL     1      43.477   3.059  10.531  0.00  0.00    +0.000 NA
ATOM     15  C   UNL     1      43.354   2.686  11.812  0.00  0.00    +0.000 A 
ATOM     16  N   UNL     1      43.968   3.248  12.859  0.00  0.00    +0.000 NA
ENDBRANCH  10  11
ENDBRANCH   9  10
ENDBRANCH   6   9
ENDBRANCH   2   3
BRANCH   2  17
ATOM     17  N   UNL     1      50.764   5.432  18.292  0.00  0.00    +0.000 N 
ATOM     18  C   UNL     1      51.990   5.301  17.683  0.00  0.00    +0.000 C 
ATOM     19  O   UNL     1      52.415   6.110  16.865  0.00  0.00    +0.000 OA
ATOM     20  H   UNL     1      50.351   4.578  18.661  0.00  0.00    +0.000 HD
BRANCH  18  21
ATOM     21  C   UNL     1      52.811   4.166  18.120  0.00  0.00    +0.000 A 
ATOM     22  C   UNL     1      54.035   4.398  18.731  0.00  0.00    +0.000 A 
ATOM     23  S   UNL     1      54.852   2.971  19.186  0.00  0.00    +0.000 S 
ATOM     24  C   UNL     1      53.622   1.996  18.532  0.00  0.00    +0.000 A 
ATOM     25  N   UNL     1      53.718   0.638  18.549  0.00  0.00    +0.000 NA
ATOM     26  C   UNL     1      52.731   0.028  17.981  0.00  0.00    +0.000 A 
ATOM     27  N   UNL     1      51.649   0.649  17.412  0.00  0.00    +0.000 N 
ATOM     28  C   UNL     1      51.479   2.012  17.431  0.00  0.00    +0.000 A 
ATOM     29  O   UNL     1      50.454   2.541  17.013  0.00  0.00    +0.000 OA
ATOM     30  C   UNL     1      52.582   2.748  18.014  0.00  0.00    +0.000 A 
ATOM     31  H   UNL     1      50.897   0.110  17.010  0.00  0.00    +0.000 HD
ENDBRANCH  18  21
ENDBRANCH   2  17
TORSDOF 6
ENDMDL
