MODEL 1
REMARK VINA RESULT:    -8.900      0.000      0.000
REMARK INTER + INTRA:         -12.346
REMARK INTER:                 -11.502
REMARK INTRA:                  -0.844
REMARK UNBOUND:                -0.844
REMARK  Name = 
REMARK  8 active torsions:
REMARK  status: ('A' for Active; 'I' for Inactive)
REMARK    1  A    between atoms: C_1  and  C_2
REMARK    2  A    between atoms: C_9  and  C_10
REMARK    3  A    between atoms: C_10  and  C_11
REMARK    4  A    between atoms: C_10  and  C_12
REMARK    5  A    between atoms: C_10  and  C_13
REMARK    6  A    between atoms: C_13  and  N_14
REMARK    7  A    between atoms: N_14  and  C_15
REMARK    8  A    between atoms: C_18  and  C_19
REMARK                            x       y       z     vdW  Elec       q    Type
REMARK                         _______ _______ _______ _____ _____    ______ ____
ROOT
ATOM      1  C   UNL     1      43.908   4.439  12.308  0.00  0.00    +0.000 C 
ATOM      2  C   UNL     1      43.716   2.906  12.336  0.00  0.00    +0.000 C 
ATOM      3  C   UNL     1      42.812   5.122  13.156  0.00  0.00    +0.000 C 
ENDROOT
BRANCH   1  12
ATOM      4  C   UNL     1      49.575   8.187  15.009  0.00  0.00    +0.000 C 
ATOM      5  C   UNL     1      49.907   8.396  13.531  0.00  0.00    +0.000 C 
ATOM      6  C   UNL     1      49.313   9.705  12.987  0.00  0.00    +0.000 C 
ATOM      7  C   UNL     1      47.795   9.627  12.839  0.00  0.00    +0.000 C 
ATOM      8  C   UNL     1      47.376   8.423  11.999  0.00  0.00    +0.000 C 
ATOM      9  N   UNL     1      47.995   7.205  12.513  0.00  0.00    +0.000 N 
ATOM     10  C   UNL     1      47.255   6.131  12.964  0.00  0.00    +0.000 A 
ATOM     11  C   UNL     1      46.011   5.852  12.422  0.00  0.00    +0.000 A 
ATOM     12  C   UNL     1      45.284   4.775  12.905  0.00  0.00    +0.000 A 
ATOM     13  N   UNL     1      45.772   4.005  13.898  0.00  0.00    +0.000 NA
ATOM     14  C   UNL     1      46.995   4.325  14.349  0.00  0.00    +0.000 A 
ATOM     15  N   UNL     1      47.759   5.339  13.924  0.00  0.00    +0.000 NA
ATOM     16  C   UNL     1      49.447   7.204  12.679  0.00  0.00    +0.000 C 
ENDBRANCH   1  12
BRANCH   1  17
ATOM     17  C   UNL     1      43.833   4.947  10.840  0.00  0.00    +0.000 C 
BRANCH  17  18
ATOM     18  N   UNL     1      43.721   3.860   9.861  0.00  0.00    +0.000 N 
ATOM     19  H   UNL     1      43.156   3.063  10.135  0.00  0.00    +0.000 HD
BRANCH  18  20
ATOM     20  C   UNL     1      44.808   3.515   9.060  0.00  0.00    +0.000 A 
ATOM     21  C   UNL     1      45.536   4.438   8.303  0.00  0.00    +0.000 A 
ATOM     22  C   UNL     1      46.542   4.023   7.423  0.00  0.00    +0.000 A 
ATOM     23  C   UNL     1      46.827   2.666   7.270  0.00  0.00    +0.000 A 
ATOM     24  C   UNL     1      46.099   1.727   8.002  0.00  0.00    +0.000 A 
ATOM     25  C   UNL     1      45.097   2.154   8.884  0.00  0.00    +0.000 A 
BRANCH  23  26
ATOM     26  C   UNL     1      47.870   2.273   6.286  0.00  0.00    +0.000 C 
ATOM     27  N   UNL     1      47.887   2.933   5.090  0.00  0.00    +0.000 N 
ATOM     28  O   UNL     1      48.666   1.373   6.518  0.00  0.00    +0.000 OA
ATOM     29  H   UNL     1      47.120   3.506   4.772  0.00  0.00    +0.000 HD
ATOM     30  H   UNL     1      48.535   2.581   4.398  0.00  0.00    +0.000 HD
ENDBRANCH  23  26
ENDBRANCH  18  20
ENDBRANCH  17  18
ENDBRANCH   1  17
TORSDOF 5
ENDMDL
MODEL 2
REMARK VINA RESULT:    -7.845      1.801      2.936
REMARK INTER + INTRA:         -10.982
REMARK INTER:                 -10.526
REMARK INTRA:                  -0.455
REMARK UNBOUND:                -0.844
REMARK  Name = 
REMARK  8 active torsions:
REMARK  status: ('A' for Active; 'I' for Inactive)
REMARK    1  A    between atoms: C_1  and  C_2
REMARK    2  A    between atoms: C_9  and  C_10
REMARK    3  A    between atoms: C_10  and  C_11
REMARK    4  A    between atoms: C_10  and  C_12
REMARK    5  A    between atoms: C_10  and  C_13
REMARK    6  A    between atoms: C_13  and  N_14
REMARK    7  A    between atoms: N_14  and  C_15
REMARK    8  A    between atoms: C_18  and  C_19
REMARK                            x       y       z     vdW  Elec       q    Type
REMARK                         _______ _______ _______ _____ _____    ______ ____
ROOT
ATOM      1  C   UNL     1      45.748   6.001  12.278  0.00  0.00    +0.000 C 
ATOM      2  C   UNL     1      44.810   7.163  12.677  0.00  0.00    +0.000 C 
ATOM      3  C   UNL     1      46.736   6.473  11.188  0.00  0.00    +0.000 C 
ENDROOT
BRANCH   1  12
ATOM      4  C   UNL     1      49.097   6.119  18.776  0.00  0.00    +0.000 C 
ATOM      5  C   UNL     1      50.244   6.731  17.969  0.00  0.00    +0.000 C 
ATOM      6  C   UNL     1      50.197   8.267  17.975  0.00  0.00    +0.000 C 
ATOM      7  C   UNL     1      49.050   8.809  17.127  0.00  0.00    +0.000 C 
ATOM      8  C   UNL     1      49.090   8.250  15.707  0.00  0.00    +0.000 C 
ATOM      9  N   UNL     1      49.182   6.793  15.738  0.00  0.00    +0.000 N 
ATOM     10  C   UNL     1      48.225   5.978  15.169  0.00  0.00    +0.000 A 
ATOM     11  C   UNL     1      47.509   6.396  14.059  0.00  0.00    +0.000 A 
ATOM     12  C   UNL     1      46.544   5.562  13.517  0.00  0.00    +0.000 A 
ATOM     13  N   UNL     1      46.291   4.356  14.063  0.00  0.00    +0.000 NA
ATOM     14  C   UNL     1      47.047   4.015  15.118  0.00  0.00    +0.000 A 
ATOM     15  N   UNL     1      48.003   4.760  15.687  0.00  0.00    +0.000 NA
ATOM     16  C   UNL     1      50.259   6.201  16.528  0.00  0.00    +0.000 C 
ENDBRANCH   1  12
BRANCH   1  17
ATOM     17  C   UNL     1      44.903   4.810  11.744  0.00  0.00    +0.000 C 
BRANCH  17  18
ATOM     18  N   UNL     1      44.539   4.950  10.330  0.00  0.00    +0.000 N 
ATOM     19  H   UNL     1      43.572   5.189  10.135  0.00  0.00    +0.000 HD
BRANCH  18  20
ATOM     20  C   UNL     1      45.106   4.117   9.368  0.00  0.00    +0.000 A 
ATOM     21  C   UNL     1      45.057   2.720   9.428  0.00  0.00    +0.000 A 
ATOM     22  C   UNL     1      45.746   1.929   8.501  0.00  0.00    +0.000 A 
ATOM     23  C   UNL     1      46.514   2.525   7.501  0.00  0.00    +0.000 A 
ATOM     24  C   UNL     1      46.591   3.918   7.435  0.00  0.00    +0.000 A 
ATOM     25  C   UNL     1      45.895   4.700   8.366  0.00  0.00    +0.000 A 
BRANCH  23  26
ATOM     26  C   UNL     1      47.266   1.642   6.571  0.00  0.00    +0.000 C 
ATOM     27  N   UNL     1      48.139   2.239   5.706  0.00  0.00    +0.000 N 
ATOM     28  O   UNL     1      47.095   0.431   6.554  0.00  0.00    +0.000 OA
ATOM     29  H   UNL     1      48.139   3.232   5.528  0.00  0.00    +0.000 HD
ATOM     30  H   UNL     1      48.563   1.634   5.014  0.00  0.00    +0.000 HD
ENDBRANCH  23  26
ENDBRANCH  18  20
ENDBRANCH  17  18
ENDBRANCH   1  17
TORSDOF 5
ENDMDL
MODEL 3
REMARK VINA RESULT:    -7.000      2.931      5.844
REMARK INTER + INTRA:          -9.890
REMARK INTER:                  -9.030
REMARK INTRA:                  -0.860
REMARK UNBOUND:                -0.844
REMARK  Name = 
REMARK  8 active torsions:
REMARK  status: ('A' for Active; 'I' for Inactive)
REMARK    1  A    between atoms: C_1  and  C_2
REMARK    2  A    between atoms: C_9  and  C_10
REMARK    3  A    between atoms: C_10  and  C_11
REMARK    4  A    between atoms: C_10  and  C_12
REMARK    5  A    between atoms: C_10  and  C_13
REMARK    6  A    between atoms: C_13  and  N_14
REMARK    7  A    between atoms: N_14  and  C_15
REMARK    8  A    between atoms: C_18  and  C_19
REMARK                            x       y       z     vdW  Elec       q    Type
REMARK                         _______ _______ _______ _____ _____    ______ ____
ROOT
ATOM      1  C   UNL     1      49.111   8.476  12.749  0.00  0.00    +0.000 C 
ATOM      2  C   UNL     1      48.175   9.622  13.198  0.00  0.00    +0.000 C 
ATOM      3  C   UNL     1      50.312   9.055  11.967  0.00  0.00    +0.000 C 
ENDROOT
BRANCH   1  12
ATOM      4  C   UNL     1      50.437   3.247  17.684  0.00  0.00    +0.000 C 
ATOM      5  C   UNL     1      49.057   3.648  18.208  0.00  0.00    +0.000 C 
ATOM      6  C   UNL     1      47.939   2.783  17.606  0.00  0.00    +0.000 C 
ATOM      7  C   UNL     1      47.692   3.109  16.136  0.00  0.00    +0.000 C 
ATOM      8  C   UNL     1      47.428   4.598  15.929  0.00  0.00    +0.000 C 
ATOM      9  N   UNL     1      48.483   5.391  16.553  0.00  0.00    +0.000 N 
ATOM     10  C   UNL     1      49.283   6.256  15.836  0.00  0.00    +0.000 A 
ATOM     11  C   UNL     1      48.800   6.895  14.706  0.00  0.00    +0.000 A 
ATOM     12  C   UNL     1      49.633   7.746  13.997  0.00  0.00    +0.000 A 
ATOM     13  N   UNL     1      50.905   7.952  14.391  0.00  0.00    +0.000 NA
ATOM     14  C   UNL     1      51.287   7.317  15.510  0.00  0.00    +0.000 A 
ATOM     15  N   UNL     1      50.538   6.492  16.252  0.00  0.00    +0.000 NA
ATOM     16  C   UNL     1      48.774   5.136  17.963  0.00  0.00    +0.000 C 
ENDBRANCH   1  12
BRANCH   1  17
ATOM     17  C   UNL     1      48.323   7.483  11.848  0.00  0.00    +0.000 C 
BRANCH  17  18
ATOM     18  N   UNL     1      46.871   7.560  12.041  0.00  0.00    +0.000 N 
ATOM     19  H   UNL     1      46.549   8.138  12.810  0.00  0.00    +0.000 HD
BRANCH  18  20
ATOM     20  C   UNL     1      46.068   6.443  11.816  0.00  0.00    +0.000 A 
ATOM     21  C   UNL     1      45.584   5.620  12.838  0.00  0.00    +0.000 A 
ATOM     22  C   UNL     1      44.884   4.443  12.552  0.00  0.00    +0.000 A 
ATOM     23  C   UNL     1      44.667   4.057  11.229  0.00  0.00    +0.000 A 
ATOM     24  C   UNL     1      45.158   4.856  10.193  0.00  0.00    +0.000 A 
ATOM     25  C   UNL     1      45.855   6.034  10.492  0.00  0.00    +0.000 A 
BRANCH  23  26
ATOM     26  C   UNL     1      43.961   2.774  10.976  0.00  0.00    +0.000 C 
ATOM     27  N   UNL     1      44.423   1.993   9.955  0.00  0.00    +0.000 N 
ATOM     28  O   UNL     1      42.984   2.437  11.632  0.00  0.00    +0.000 OA
ATOM     29  H   UNL     1      45.063   2.333   9.253  0.00  0.00    +0.000 HD
ATOM     30  H   UNL     1      43.867   1.176   9.734  0.00  0.00    +0.000 HD
ENDBRANCH  23  26
ENDBRANCH  18  20
ENDBRANCH  17  18
ENDBRANCH   1  17
TORSDOF 5
ENDMDL
MODEL 4
REMARK VINA RESULT:    -6.664      4.888      6.989
REMARK INTER + INTRA:          -9.456
REMARK INTER:                  -8.918
REMARK INTRA:                  -0.538
REMARK UNBOUND:                -0.844
REMARK  Name = 
REMARK  8 active torsions:
REMARK  status: ('A' for Active; 'I' for Inactive)
REMARK    1  A    between atoms: C_1  and  C_2
REMARK    2  A    between atoms: C_9  and  C_10
REMARK    3  A    between atoms: C_10  and  C_11
REMARK    4  A    between atoms: C_10  and  C_12
REMARK    5  A    between atoms: C_10  and  C_13
REMARK    6  A    between atoms: C_13  and  N_14
REMARK    7  A    between atoms: N_14  and  C_15
REMARK    8  A    between atoms: C_18  and  C_19
REMARK                            x       y       z     vdW  Elec       q    Type
REMARK                         _______ _______ _______ _____ _____    ______ ____
ROOT
ATOM      1  C   UNL     1      48.094   4.351  16.863  0.00  0.00    +0.000 C 
ATOM      2  C   UNL     1      47.747   2.848  16.966  0.00  0.00    +0.000 C 
ATOM      3  C   UNL     1      47.345   5.140  17.961  0.00  0.00    +0.000 C 
ENDROOT
BRANCH   1  12
ATOM      4  C   UNL     1      55.292   3.067  16.836  0.00  0.00    +0.000 C 
ATOM      5  C   UNL     1      54.972   2.286  18.112  0.00  0.00    +0.000 C 
ATOM      6  C   UNL     1      54.715   0.798  17.827  0.00  0.00    +0.000 C 
ATOM      7  C   UNL     1      53.381   0.573  17.119  0.00  0.00    +0.000 C 
ATOM      8  C   UNL     1      52.225   1.209  17.886  0.00  0.00    +0.000 C 
ATOM      9  N   UNL     1      52.522   2.608  18.182  0.00  0.00    +0.000 N 
ATOM     10  C   UNL     1      51.733   3.645  17.730  0.00  0.00    +0.000 A 
ATOM     11  C   UNL     1      50.372   3.467  17.539  0.00  0.00    +0.000 A 
ATOM     12  C   UNL     1      49.607   4.523  17.068  0.00  0.00    +0.000 A 
ATOM     13  N   UNL     1      50.174   5.713  16.790  0.00  0.00    +0.000 NA
ATOM     14  C   UNL     1      51.491   5.812  17.027  0.00  0.00    +0.000 A 
ATOM     15  N   UNL     1      52.290   4.842  17.491  0.00  0.00    +0.000 NA
ATOM     16  C   UNL     1      53.782   2.901  18.862  0.00  0.00    +0.000 C 
ENDBRANCH   1  12
BRANCH   1  17
ATOM     17  C   UNL     1      47.688   4.884  15.460  0.00  0.00    +0.000 C 
BRANCH  17  18
ATOM     18  N   UNL     1      46.374   4.401  15.019  0.00  0.00    +0.000 N 
ATOM     19  H   UNL     1      46.037   3.551  15.459  0.00  0.00    +0.000 HD
BRANCH  18  20
ATOM     20  C   UNL     1      45.987   4.523  13.686  0.00  0.00    +0.000 A 
ATOM     21  C   UNL     1      45.490   3.460  12.924  0.00  0.00    +0.000 A 
ATOM     22  C   UNL     1      45.229   3.606  11.557  0.00  0.00    +0.000 A 
ATOM     23  C   UNL     1      45.479   4.822  10.919  0.00  0.00    +0.000 A 
ATOM     24  C   UNL     1      45.993   5.890  11.658  0.00  0.00    +0.000 A 
ATOM     25  C   UNL     1      46.247   5.732  13.027  0.00  0.00    +0.000 A 
BRANCH  23  26
ATOM     26  C   UNL     1      45.233   4.913   9.456  0.00  0.00    +0.000 C 
ATOM     27  N   UNL     1      44.002   4.533   9.001  0.00  0.00    +0.000 N 
ATOM     28  O   UNL     1      46.104   5.282   8.679  0.00  0.00    +0.000 OA
ATOM     29  H   UNL     1      43.348   4.012   9.565  0.00  0.00    +0.000 HD
ATOM     30  H   UNL     1      43.890   4.505   7.996  0.00  0.00    +0.000 HD
ENDBRANCH  23  26
ENDBRANCH  18  20
ENDBRANCH  17  18
ENDBRANCH   1  17
TORSDOF 5
ENDMDL
MODEL 5
REMARK VINA RESULT:    -6.598      3.650      7.896
REMARK INTER + INTRA:          -9.371
REMARK INTER:                  -8.238
REMARK INTRA:                  -1.133
REMARK UNBOUND:                -0.844
REMARK  Name = 
REMARK  8 active torsions:
REMARK  status: ('A' for Active; 'I' for Inactive)
REMARK    1  A    between atoms: C_1  and  C_2
REMARK    2  A    between atoms: C_9  and  C_10
REMARK    3  A    between atoms: C_10  and  C_11
REMARK    4  A    between atoms: C_10  and  C_12
REMARK    5  A    between atoms: C_10  and  C_13
REMARK    6  A    between atoms: C_13  and  N_14
REMARK    7  A    between atoms: N_14  and  C_15
REMARK    8  A    between atoms: C_18  and  C_19
REMARK                            x       y       z     vdW  Elec       q    Type
REMARK                         _______ _______ _______ _____ _____    ______ ____
ROOT
ATOM      1  C   UNL     1      48.592   9.109  12.791  0.00  0.00    +0.000 C 
ATOM      2  C   UNL     1      49.660   8.284  12.036  0.00  0.00    +0.000 C 
ATOM      3  C   UNL     1      48.797  10.615  12.513  0.00  0.00    +0.000 C 
ENDROOT
BRANCH   1  12
ATOM      4  C   UNL     1      42.276   5.502  12.039  0.00  0.00    +0.000 C 
ATOM      5  C   UNL     1      43.125   4.566  11.176  0.00  0.00    +0.000 C 
ATOM      6  C   UNL     1      43.689   3.390  11.988  0.00  0.00    +0.000 C 
ATOM      7  C   UNL     1      44.794   3.831  12.944  0.00  0.00    +0.000 C 
ATOM      8  C   UNL     1      45.896   4.594  12.213  0.00  0.00    +0.000 C 
ATOM      9  N   UNL     1      45.322   5.673  11.415  0.00  0.00    +0.000 N 
ATOM     10  C   UNL     1      45.650   6.998  11.615  0.00  0.00    +0.000 A 
ATOM     11  C   UNL     1      46.905   7.354  12.081  0.00  0.00    +0.000 A 
ATOM     12  C   UNL     1      47.201   8.692  12.288  0.00  0.00    +0.000 A 
ATOM     13  N   UNL     1      46.280   9.646  12.047  0.00  0.00    +0.000 NA
ATOM     14  C   UNL     1      45.099   9.221  11.572  0.00  0.00    +0.000 A 
ATOM     15  N   UNL     1      44.746   7.951  11.336  0.00  0.00    +0.000 NA
ATOM     16  C   UNL     1      44.259   5.325  10.474  0.00  0.00    +0.000 C 
ENDBRANCH   1  12
BRANCH   1  17
ATOM     17  C   UNL     1      48.705   8.833  14.317  0.00  0.00    +0.000 C 
BRANCH  17  18
ATOM     18  N   UNL     1      49.496   7.637  14.628  0.00  0.00    +0.000 N 
ATOM     19  H   UNL     1      50.056   7.259  13.872  0.00  0.00    +0.000 HD
BRANCH  18  20
ATOM     20  C   UNL     1      48.992   6.659  15.484  0.00  0.00    +0.000 A 
ATOM     21  C   UNL     1      49.584   6.318  16.704  0.00  0.00    +0.000 A 
ATOM     22  C   UNL     1      49.108   5.247  17.468  0.00  0.00    +0.000 A 
ATOM     23  C   UNL     1      48.034   4.481  17.013  0.00  0.00    +0.000 A 
ATOM     24  C   UNL     1      47.441   4.792  15.788  0.00  0.00    +0.000 A 
ATOM     25  C   UNL     1      47.924   5.870  15.033  0.00  0.00    +0.000 A 
BRANCH  23  26
ATOM     26  C   UNL     1      47.597   3.322  17.836  0.00  0.00    +0.000 C 
ATOM     27  N   UNL     1      48.272   3.088  19.000  0.00  0.00    +0.000 N 
ATOM     28  O   UNL     1      46.689   2.584  17.477  0.00  0.00    +0.000 OA
ATOM     29  H   UNL     1      49.158   3.520  19.214  0.00  0.00    +0.000 HD
ATOM     30  H   UNL     1      48.027   2.238  19.492  0.00  0.00    +0.000 HD
ENDBRANCH  23  26
ENDBRANCH  18  20
ENDBRANCH  17  18
ENDBRANCH   1  17
TORSDOF 5
ENDMDL
MODEL 6
REMARK VINA RESULT:    -6.004      3.191      5.933
REMARK INTER + INTRA:          -8.603
REMARK INTER:                  -8.016
REMARK INTRA:                  -0.587
REMARK UNBOUND:                -0.844
REMARK  Name = 
REMARK  8 active torsions:
REMARK  status: ('A' for Active; 'I' for Inactive)
REMARK    1  A    between atoms: C_1  and  C_2
REMARK    2  A    between atoms: C_9  and  C_10
REMARK    3  A    between atoms: C_10  and  C_11
REMARK    4  A    between atoms: C_10  and  C_12
REMARK    5  A    between atoms: C_10  and  C_13
REMARK    6  A    between atoms: C_13  and  N_14
REMARK    7  A    between atoms: N_14  and  C_15
REMARK    8  A    between atoms: C_18  and  C_19
REMARK                            x       y       z     vdW  Elec       q    Type
REMARK                         _______ _______ _______ _____ _____    ______ ____
ROOT
ATOM      1  C   UNL     1      48.542   8.408  12.904  0.00  0.00    +0.000 C 
ATOM      2  C   UNL     1      49.362   9.504  12.184  0.00  0.00    +0.000 C 
ATOM      3  C   UNL     1      49.044   7.010  12.477  0.00  0.00    +0.000 C 
ENDROOT
BRANCH   1  12
ATOM      4  C   UNL     1      50.753   7.266  19.778  0.00  0.00    +0.000 C 
ATOM      5  C   UNL     1      49.592   6.270  19.792  0.00  0.00    +0.000 C 
ATOM      6  C   UNL     1      50.048   4.850  19.420  0.00  0.00    +0.000 C 
ATOM      7  C   UNL     1      50.392   4.729  17.938  0.00  0.00    +0.000 C 
ATOM      8  C   UNL     1      49.241   5.204  17.055  0.00  0.00    +0.000 C 
ATOM      9  N   UNL     1      48.802   6.535  17.465  0.00  0.00    +0.000 N 
ATOM     10  C   UNL     1      48.837   7.621  16.617  0.00  0.00    +0.000 A 
ATOM     11  C   UNL     1      48.676   7.457  15.250  0.00  0.00    +0.000 A 
ATOM     12  C   UNL     1      48.732   8.567  14.420  0.00  0.00    +0.000 A 
ATOM     13  N   UNL     1      48.946   9.796  14.928  0.00  0.00    +0.000 NA
ATOM     14  C   UNL     1      49.064   9.873  16.262  0.00  0.00    +0.000 A 
ATOM     15  N   UNL     1      49.009   8.851  17.126  0.00  0.00    +0.000 NA
ATOM     16  C   UNL     1      48.452   6.725  18.871  0.00  0.00    +0.000 C 
ENDBRANCH   1  12
BRANCH   1  17
ATOM     17  C   UNL     1      47.037   8.562  12.541  0.00  0.00    +0.000 C 
BRANCH  17  18
ATOM     18  N   UNL     1      46.174   7.618  13.259  0.00  0.00    +0.000 N 
ATOM     19  H   UNL     1      46.367   7.492  14.247  0.00  0.00    +0.000 HD
BRANCH  18  20
ATOM     20  C   UNL     1      45.722   6.457  12.634  0.00  0.00    +0.000 A 
ATOM     21  C   UNL     1      45.109   6.443  11.376  0.00  0.00    +0.000 A 
ATOM     22  C   UNL     1      44.565   5.268  10.847  0.00  0.00    +0.000 A 
ATOM     23  C   UNL     1      44.608   4.080  11.578  0.00  0.00    +0.000 A 
ATOM     24  C   UNL     1      45.198   4.077  12.844  0.00  0.00    +0.000 A 
ATOM     25  C   UNL     1      45.743   5.259  13.363  0.00  0.00    +0.000 A 
BRANCH  23  26
ATOM     26  C   UNL     1      43.972   2.870  10.995  0.00  0.00    +0.000 C 
ATOM     27  N   UNL     1      44.593   2.287   9.927  0.00  0.00    +0.000 N 
ATOM     28  O   UNL     1      42.917   2.425  11.428  0.00  0.00    +0.000 OA
ATOM     29  H   UNL     1      45.321   2.746   9.400  0.00  0.00    +0.000 HD
ATOM     30  H   UNL     1      44.092   1.529   9.481  0.00  0.00    +0.000 HD
ENDBRANCH  23  26
ENDBRANCH  18  20
ENDBRANCH  17  18
ENDBRANCH   1  17
TORSDOF 5
ENDMDL
MODEL 7
REMARK VINA RESULT:    -5.987      3.932      8.630
REMARK INTER + INTRA:          -8.581
REMARK INTER:                  -7.669
REMARK INTRA:                  -0.912
REMARK UNBOUND:                -0.844
REMARK  Name = 
REMARK  8 active torsions:
REMARK  status: ('A' for Active; 'I' for Inactive)
REMARK    1  A    between atoms: C_1  and  C_2
REMARK    2  A    between atoms: C_9  and  C_10
REMARK    3  A    between atoms: C_10  and  C_11
REMARK    4  A    between atoms: C_10  and  C_12
REMARK    5  A    between atoms: C_10  and  C_13
REMARK    6  A    between atoms: C_13  and  N_14
REMARK    7  A    between atoms: N_14  and  C_15
REMARK    8  A    between atoms: C_18  and  C_19
REMARK                            x       y       z     vdW  Elec       q    Type
REMARK                         _______ _______ _______ _____ _____    ______ ____
ROOT
ATOM      1  C   UNL     1      48.900   7.865  13.104  0.00  0.00    +0.000 C 
ATOM      2  C   UNL     1      50.214   7.340  12.481  0.00  0.00    +0.000 C 
ATOM      3  C   UNL     1      48.418   9.118  12.339  0.00  0.00    +0.000 C 
ENDROOT
BRANCH   1  12
ATOM      4  C   UNL     1      44.779   2.428  10.476  0.00  0.00    +0.000 C 
ATOM      5  C   UNL     1      44.004   3.575   9.824  0.00  0.00    +0.000 C 
ATOM      6  C   UNL     1      44.504   3.872   8.402  0.00  0.00    +0.000 C 
ATOM      7  C   UNL     1      45.877   4.539   8.404  0.00  0.00    +0.000 C 
ATOM      8  C   UNL     1      45.891   5.788   9.281  0.00  0.00    +0.000 C 
ATOM      9  N   UNL     1      45.367   5.483  10.609  0.00  0.00    +0.000 N 
ATOM     10  C   UNL     1      46.114   5.649  11.756  0.00  0.00    +0.000 A 
ATOM     11  C   UNL     1      47.084   6.635  11.833  0.00  0.00    +0.000 A 
ATOM     12  C   UNL     1      47.829   6.768  12.994  0.00  0.00    +0.000 A 
ATOM     13  N   UNL     1      47.624   5.947  14.042  0.00  0.00    +0.000 NA
ATOM     14  C   UNL     1      46.648   5.037  13.898  0.00  0.00    +0.000 A 
ATOM     15  N   UNL     1      45.881   4.857  12.815  0.00  0.00    +0.000 NA
ATOM     16  C   UNL     1      44.054   4.845  10.685  0.00  0.00    +0.000 C 
ENDBRANCH   1  12
BRANCH   1  17
ATOM     17  C   UNL     1      49.139   8.220  14.600  0.00  0.00    +0.000 C 
BRANCH  17  18
ATOM     18  N   UNL     1      50.183   7.400  15.225  0.00  0.00    +0.000 N 
ATOM     19  H   UNL     1      50.766   6.857  14.597  0.00  0.00    +0.000 HD
BRANCH  18  20
ATOM     20  C   UNL     1      49.950   6.768  16.445  0.00  0.00    +0.000 A 
ATOM     21  C   UNL     1      50.676   5.660  16.894  0.00  0.00    +0.000 A 
ATOM     22  C   UNL     1      50.322   4.989  18.070  0.00  0.00    +0.000 A 
ATOM     23  C   UNL     1      49.218   5.406  18.813  0.00  0.00    +0.000 A 
ATOM     24  C   UNL     1      48.468   6.498  18.372  0.00  0.00    +0.000 A 
ATOM     25  C   UNL     1      48.833   7.165  17.195  0.00  0.00    +0.000 A 
BRANCH  23  26
ATOM     26  C   UNL     1      48.853   4.629  20.027  0.00  0.00    +0.000 C 
ATOM     27  N   UNL     1      48.499   3.321  19.854  0.00  0.00    +0.000 N 
ATOM     28  O   UNL     1      48.838   5.142  21.139  0.00  0.00    +0.000 OA
ATOM     29  H   UNL     1      48.275   2.931  18.951  0.00  0.00    +0.000 HD
ATOM     30  H   UNL     1      48.156   2.841  20.677  0.00  0.00    +0.000 HD
ENDBRANCH  23  26
ENDBRANCH  18  20
ENDBRANCH  17  18
ENDBRANCH   1  17
TORSDOF 5
ENDMDL
