MODEL 1
REMARK VINA RESULT:    -8.026      0.000      0.000
REMARK INTER + INTRA:         -12.146
REMARK INTER:                 -11.076
REMARK INTRA:                  -1.070
REMARK UNBOUND:                -1.070
REMARK  Name = 
REMARK  7 active torsions:
REMARK  status: ('A' for Active; 'I' for Inactive)
REMARK    1  A    between atoms: C_2  and  C_4
REMARK    2  A    between atoms: C_7  and  O_8
REMARK    3  A    between atoms: O_8  and  C_9
REMARK    4  A    between atoms: C_9  and  C_10
REMARK    5  A    between atoms: C_14  and  C_15
REMARK    6  A    between atoms: C_19  and  C_20
REMARK    7  A    between atoms: C_20  and  O_21
REMARK                            x       y       z     vdW  Elec       q    Type
REMARK                         _______ _______ _______ _____ _____    ______ ____
ROOT
ATOM      1  C   UNL     1      45.217   5.705  11.796  0.00  0.00    +0.000 A 
ATOM      2  C   UNL     1      44.986   4.713  12.749  0.00  0.00    +0.000 A 
ATOM      3  C   UNL     1      45.956   4.441  13.712  0.00  0.00    +0.000 A 
ATOM      4  C   UNL     1      47.175   5.132  13.703  0.00  0.00    +0.000 A 
ATOM      5  C   UNL     1      47.424   6.156  12.773  0.00  0.00    +0.000 A 
ATOM      6  C   UNL     1      46.396   6.464  11.868  0.00  0.00    +0.000 A 
ENDROOT
BRANCH   5   7
ATOM      7  C   UNL     1      48.835   6.729  12.610  0.00  0.00    +0.000 C 
ATOM      8  C   UNL     1      49.049   7.688  11.417  0.00  0.00    +0.000 C 
ATOM      9  C   UNL     1      48.531   9.099  11.688  0.00  0.00    +0.000 C 
ATOM     10  C   UNL     1      49.194   9.690  12.928  0.00  0.00    +0.000 C 
ATOM     11  C   UNL     1      49.030   8.802  14.170  0.00  0.00    +0.000 C 
ATOM     12  C   UNL     1      49.465   7.355  13.872  0.00  0.00    +0.000 C 
BRANCH  11  13
ATOM     13  C   UNL     1      47.619   8.916  14.758  0.00  0.00    +0.000 C 
BRANCH  13  14
ATOM     14  O   UNL     1      47.677   9.278  16.132  0.00  0.00    +0.000 OA
ATOM     15  H   UNL     1      47.255  10.151  16.210  0.00  0.00    +0.000 HD
ENDBRANCH  13  14
ENDBRANCH  11  13
ENDBRANCH   5   7
BRANCH   1  16
ATOM     16  C   UNL     1      44.354   5.822  10.556  0.00  0.00    +0.000 C 
BRANCH  16  17
ATOM     17  O   UNL     1      43.764   4.592  10.139  0.00  0.00    +0.000 OA
BRANCH  17  21
ATOM     18  C   UNL     1      46.386   2.450   7.761  0.00  0.00    +0.000 A 
ATOM     19  C   UNL     1      45.659   1.792   8.759  0.00  0.00    +0.000 A 
ATOM     20  C   UNL     1      44.779   2.524   9.565  0.00  0.00    +0.000 A 
ATOM     21  C   UNL     1      44.658   3.885   9.344  0.00  0.00    +0.000 A 
ATOM     22  N   UNL     1      45.362   4.543   8.398  0.00  0.00    +0.000 NA
ATOM     23  C   UNL     1      46.214   3.821   7.635  0.00  0.00    +0.000 A 
BRANCH  18  25
ATOM     24  N   UNL     1      48.431   2.484   6.458  0.00  0.00    +0.000 N 
ATOM     25  C   UNL     1      47.328   1.782   6.843  0.00  0.00    +0.000 C 
ATOM     26  O   UNL     1      47.155   0.621   6.481  0.00  0.00    +0.000 OA
ATOM     27  H   UNL     1      49.130   1.965   5.936  0.00  0.00    +0.000 HD
ATOM     28  H   UNL     1      48.737   3.323   6.934  0.00  0.00    +0.000 HD
ENDBRANCH  18  25
ENDBRANCH  17  21
ENDBRANCH  16  17
ENDBRANCH   1  16
TORSDOF 7
ENDMDL
MODEL 2
REMARK VINA RESULT:    -7.225      1.371      2.068
REMARK INTER + INTRA:         -11.041
REMARK INTER:                 -10.311
REMARK INTRA:                  -0.729
REMARK UNBOUND:                -1.070
REMARK  Name = 
REMARK  7 active torsions:
REMARK  status: ('A' for Active; 'I' for Inactive)
REMARK    1  A    between atoms: C_2  and  C_4
REMARK    2  A    between atoms: C_7  and  O_8
REMARK    3  A    between atoms: O_8  and  C_9
REMARK    4  A    between atoms: C_9  and  C_10
REMARK    5  A    between atoms: C_14  and  C_15
REMARK    6  A    between atoms: C_19  and  C_20
REMARK    7  A    between atoms: C_20  and  O_21
REMARK                            x       y       z     vdW  Elec       q    Type
REMARK                         _______ _______ _______ _____ _____    ______ ____
ROOT
ATOM      1  C   UNL     1      44.915   4.839  12.356  0.00  0.00    +0.000 A 
ATOM      2  C   UNL     1      45.898   3.988  12.865  0.00  0.00    +0.000 A 
ATOM      3  C   UNL     1      46.982   4.523  13.557  0.00  0.00    +0.000 A 
ATOM      4  C   UNL     1      47.110   5.910  13.711  0.00  0.00    +0.000 A 
ATOM      5  C   UNL     1      46.121   6.788  13.235  0.00  0.00    +0.000 A 
ATOM      6  C   UNL     1      45.000   6.216  12.613  0.00  0.00    +0.000 A 
ENDROOT
BRANCH   5   7
ATOM      7  C   UNL     1      46.383   8.296  13.185  0.00  0.00    +0.000 C 
ATOM      8  C   UNL     1      47.163   8.894  14.378  0.00  0.00    +0.000 C 
ATOM      9  C   UNL     1      48.668   8.653  14.284  0.00  0.00    +0.000 C 
ATOM     10  C   UNL     1      49.230   9.222  12.986  0.00  0.00    +0.000 C 
ATOM     11  C   UNL     1      48.513   8.680  11.741  0.00  0.00    +0.000 C 
ATOM     12  C   UNL     1      46.987   8.838  11.872  0.00  0.00    +0.000 C 
BRANCH  11  13
ATOM     13  C   UNL     1      48.962   7.251  11.414  0.00  0.00    +0.000 C 
BRANCH  13  14
ATOM     14  O   UNL     1      50.292   7.029  11.863  0.00  0.00    +0.000 OA
ATOM     15  H   UNL     1      50.432   6.067  11.861  0.00  0.00    +0.000 HD
ENDBRANCH  13  14
ENDBRANCH  11  13
ENDBRANCH   5   7
BRANCH   1  16
ATOM     16  C   UNL     1      43.902   4.352  11.339  0.00  0.00    +0.000 C 
BRANCH  16  17
ATOM     17  O   UNL     1      44.052   4.931  10.044  0.00  0.00    +0.000 OA
BRANCH  17  21
ATOM     18  C   UNL     1      46.491   2.531   7.717  0.00  0.00    +0.000 A 
ATOM     19  C   UNL     1      45.648   1.947   8.670  0.00  0.00    +0.000 A 
ATOM     20  C   UNL     1      44.832   2.766   9.459  0.00  0.00    +0.000 A 
ATOM     21  C   UNL     1      44.887   4.136   9.267  0.00  0.00    +0.000 A 
ATOM     22  N   UNL     1      45.704   4.721   8.365  0.00  0.00    +0.000 NA
ATOM     23  C   UNL     1      46.493   3.914   7.618  0.00  0.00    +0.000 A 
BRANCH  18  25
ATOM     24  N   UNL     1      48.510   2.396   6.381  0.00  0.00    +0.000 N 
ATOM     25  C   UNL     1      47.381   1.770   6.821  0.00  0.00    +0.000 C 
ATOM     26  O   UNL     1      47.145   0.602   6.522  0.00  0.00    +0.000 OA
ATOM     27  H   UNL     1      49.172   1.817   5.875  0.00  0.00    +0.000 HD
ATOM     28  H   UNL     1      48.866   3.241   6.808  0.00  0.00    +0.000 HD
ENDBRANCH  18  25
ENDBRANCH  17  21
ENDBRANCH  16  17
ENDBRANCH   1  16
TORSDOF 7
ENDMDL
MODEL 3
REMARK VINA RESULT:    -6.581      4.705      7.787
REMARK INTER + INTRA:         -10.152
REMARK INTER:                  -9.165
REMARK INTRA:                  -0.987
REMARK UNBOUND:                -1.070
REMARK  Name = 
REMARK  7 active torsions:
REMARK  status: ('A' for Active; 'I' for Inactive)
REMARK    1  A    between atoms: C_2  and  C_4
REMARK    2  A    between atoms: C_7  and  O_8
REMARK    3  A    between atoms: O_8  and  C_9
REMARK    4  A    between atoms: C_9  and  C_10
REMARK    5  A    between atoms: C_14  and  C_15
REMARK    6  A    between atoms: C_19  and  C_20
REMARK    7  A    between atoms: C_20  and  O_21
REMARK                            x       y       z     vdW  Elec       q    Type
REMARK                         _______ _______ _______ _____ _____    ______ ____
ROOT
ATOM      1  C   UNL     1      47.724   6.654  14.248  0.00  0.00    +0.000 A 
ATOM      2  C   UNL     1      47.924   7.858  13.571  0.00  0.00    +0.000 A 
ATOM      3  C   UNL     1      47.405   8.023  12.288  0.00  0.00    +0.000 A 
ATOM      4  C   UNL     1      46.719   6.974  11.662  0.00  0.00    +0.000 A 
ATOM      5  C   UNL     1      46.477   5.762  12.330  0.00  0.00    +0.000 A 
ATOM      6  C   UNL     1      46.940   5.654  13.651  0.00  0.00    +0.000 A 
ENDROOT
BRANCH   5   7
ATOM      7  C   UNL     1      45.953   4.545  11.563  0.00  0.00    +0.000 C 
ATOM      8  C   UNL     1      45.363   3.400  12.418  0.00  0.00    +0.000 C 
ATOM      9  C   UNL     1      43.940   3.685  12.893  0.00  0.00    +0.000 C 
ATOM     10  C   UNL     1      43.016   3.950  11.709  0.00  0.00    +0.000 C 
ATOM     11  C   UNL     1      43.523   5.079  10.800  0.00  0.00    +0.000 C 
ATOM     12  C   UNL     1      44.990   4.841  10.394  0.00  0.00    +0.000 C 
BRANCH  11  13
ATOM     13  C   UNL     1      43.269   6.457  11.423  0.00  0.00    +0.000 C 
BRANCH  13  14
ATOM     14  O   UNL     1      41.906   6.590  11.803  0.00  0.00    +0.000 OA
ATOM     15  H   UNL     1      41.653   7.512  11.619  0.00  0.00    +0.000 HD
ENDBRANCH  13  14
ENDBRANCH  11  13
ENDBRANCH   5   7
BRANCH   1  16
ATOM     16  C   UNL     1      48.521   6.307  15.489  0.00  0.00    +0.000 C 
BRANCH  16  17
ATOM     17  O   UNL     1      47.927   5.293  16.299  0.00  0.00    +0.000 OA
BRANCH  17  21
ATOM     18  C   UNL     1      50.782   2.487  17.343  0.00  0.00    +0.000 A 
ATOM     19  C   UNL     1      49.517   2.065  16.919  0.00  0.00    +0.000 A 
ATOM     20  C   UNL     1      48.554   3.020  16.575  0.00  0.00    +0.000 A 
ATOM     21  C   UNL     1      48.890   4.360  16.666  0.00  0.00    +0.000 A 
ATOM     22  N   UNL     1      50.098   4.790  17.088  0.00  0.00    +0.000 NA
ATOM     23  C   UNL     1      51.014   3.852  17.425  0.00  0.00    +0.000 A 
BRANCH  18  25
ATOM     24  N   UNL     1      51.540   0.309  18.095  0.00  0.00    +0.000 N 
ATOM     25  C   UNL     1      51.880   1.574  17.715  0.00  0.00    +0.000 C 
ATOM     26  O   UNL     1      53.056   1.919  17.636  0.00  0.00    +0.000 OA
ATOM     27  H   UNL     1      52.310  -0.340  18.219  0.00  0.00    +0.000 HD
ATOM     28  H   UNL     1      50.625  -0.085  17.920  0.00  0.00    +0.000 HD
ENDBRANCH  18  25
ENDBRANCH  17  21
ENDBRANCH  16  17
ENDBRANCH   1  16
TORSDOF 7
ENDMDL
MODEL 4
REMARK VINA RESULT:    -6.445      3.850      6.460
REMARK INTER + INTRA:          -9.964
REMARK INTER:                  -8.423
REMARK INTRA:                  -1.540
REMARK UNBOUND:                -1.070
REMARK  Name = 
REMARK  7 active torsions:
REMARK  status: ('A' for Active; 'I' for Inactive)
REMARK    1  A    between atoms: C_2  and  C_4
REMARK    2  A    between atoms: C_7  and  O_8
REMARK    3  A    between atoms: O_8  and  C_9
REMARK    4  A    between atoms: C_9  and  C_10
REMARK    5  A    between atoms: C_14  and  C_15
REMARK    6  A    between atoms: C_19  and  C_20
REMARK    7  A    between atoms: C_20  and  O_21
REMARK                            x       y       z     vdW  Elec       q    Type
REMARK                         _______ _______ _______ _____ _____    ______ ____
ROOT
ATOM      1  C   UNL     1      49.192   7.487  15.275  0.00  0.00    +0.000 A 
ATOM      2  C   UNL     1      48.583   8.527  15.979  0.00  0.00    +0.000 A 
ATOM      3  C   UNL     1      48.673   8.564  17.369  0.00  0.00    +0.000 A 
ATOM      4  C   UNL     1      49.337   7.544  18.063  0.00  0.00    +0.000 A 
ATOM      5  C   UNL     1      49.984   6.501  17.379  0.00  0.00    +0.000 A 
ATOM      6  C   UNL     1      49.947   6.534  15.976  0.00  0.00    +0.000 A 
ENDROOT
BRANCH   5   7
ATOM      7  C   UNL     1      50.488   5.271  18.139  0.00  0.00    +0.000 C 
ATOM      8  C   UNL     1      49.988   5.114  19.593  0.00  0.00    +0.000 C 
ATOM      9  C   UNL     1      48.569   4.555  19.676  0.00  0.00    +0.000 C 
ATOM     10  C   UNL     1      48.474   3.208  18.967  0.00  0.00    +0.000 C 
ATOM     11  C   UNL     1      48.951   3.269  17.509  0.00  0.00    +0.000 C 
ATOM     12  C   UNL     1      50.345   3.917  17.413  0.00  0.00    +0.000 C 
BRANCH  11  13
ATOM     13  C   UNL     1      47.901   3.922  16.603  0.00  0.00    +0.000 C 
BRANCH  13  14
ATOM     14  O   UNL     1      47.928   3.341  15.306  0.00  0.00    +0.000 OA
ATOM     15  H   UNL     1      48.632   3.794  14.810  0.00  0.00    +0.000 HD
ENDBRANCH  13  14
ENDBRANCH  11  13
ENDBRANCH   5   7
BRANCH   1  16
ATOM     16  C   UNL     1      48.862   7.224  13.819  0.00  0.00    +0.000 C 
BRANCH  16  17
ATOM     17  O   UNL     1      48.421   5.894  13.553  0.00  0.00    +0.000 OA
BRANCH  17  21
ATOM     18  C   UNL     1      44.572   5.959  12.037  0.00  0.00    +0.000 A 
ATOM     19  C   UNL     1      45.560   6.761  11.455  0.00  0.00    +0.000 A 
ATOM     20  C   UNL     1      46.858   6.739  11.978  0.00  0.00    +0.000 A 
ATOM     21  C   UNL     1      47.121   5.919  13.062  0.00  0.00    +0.000 A 
ATOM     22  N   UNL     1      46.179   5.150  13.649  0.00  0.00    +0.000 NA
ATOM     23  C   UNL     1      44.928   5.191  13.136  0.00  0.00    +0.000 A 
BRANCH  18  25
ATOM     24  N   UNL     1      42.607   7.043  11.116  0.00  0.00    +0.000 N 
ATOM     25  C   UNL     1      43.177   5.888  11.564  0.00  0.00    +0.000 C 
ATOM     26  O   UNL     1      42.567   4.822  11.524  0.00  0.00    +0.000 OA
ATOM     27  H   UNL     1      41.698   6.949  10.674  0.00  0.00    +0.000 HD
ATOM     28  H   UNL     1      43.150   7.866  10.889  0.00  0.00    +0.000 HD
ENDBRANCH  18  25
ENDBRANCH  17  21
ENDBRANCH  16  17
ENDBRANCH   1  16
TORSDOF 7
ENDMDL
MODEL 5
REMARK VINA RESULT:    -6.361      4.067      6.601
REMARK INTER + INTRA:          -9.848
REMARK INTER:                  -8.609
REMARK INTRA:                  -1.240
REMARK UNBOUND:                -1.070
REMARK  Name = 
REMARK  7 active torsions:
REMARK  status: ('A' for Active; 'I' for Inactive)
REMARK    1  A    between atoms: C_2  and  C_4
REMARK    2  A    between atoms: C_7  and  O_8
REMARK    3  A    between atoms: O_8  and  C_9
REMARK    4  A    between atoms: C_9  and  C_10
REMARK    5  A    between atoms: C_14  and  C_15
REMARK    6  A    between atoms: C_19  and  C_20
REMARK    7  A    between atoms: C_20  and  O_21
REMARK                            x       y       z     vdW  Elec       q    Type
REMARK                         _______ _______ _______ _____ _____    ______ ____
ROOT
ATOM      1  C   UNL     1      49.573   7.280  14.860  0.00  0.00    +0.000 A 
ATOM      2  C   UNL     1      50.915   7.614  15.042  0.00  0.00    +0.000 A 
ATOM      3  C   UNL     1      51.588   7.174  16.181  0.00  0.00    +0.000 A 
ATOM      4  C   UNL     1      50.913   6.432  17.159  0.00  0.00    +0.000 A 
ATOM      5  C   UNL     1      49.570   6.056  16.988  0.00  0.00    +0.000 A 
ATOM      6  C   UNL     1      48.941   6.443  15.794  0.00  0.00    +0.000 A 
ENDROOT
BRANCH   5   7
ATOM      7  C   UNL     1      48.775   5.466  18.157  0.00  0.00    +0.000 C 
ATOM      8  C   UNL     1      47.274   5.202  17.899  0.00  0.00    +0.000 C 
ATOM      9  C   UNL     1      47.024   3.918  17.111  0.00  0.00    +0.000 C 
ATOM     10  C   UNL     1      47.625   2.715  17.829  0.00  0.00    +0.000 C 
ATOM     11  C   UNL     1      49.121   2.888  18.127  0.00  0.00    +0.000 C 
ATOM     12  C   UNL     1      49.389   4.227  18.841  0.00  0.00    +0.000 C 
BRANCH  11  13
ATOM     13  C   UNL     1      49.971   2.676  16.869  0.00  0.00    +0.000 C 
BRANCH  13  14
ATOM     14  O   UNL     1      49.395   1.677  16.038  0.00  0.00    +0.000 OA
ATOM     15  H   UNL     1      48.824   1.133  16.609  0.00  0.00    +0.000 HD
ENDBRANCH  13  14
ENDBRANCH  11  13
ENDBRANCH   5   7
BRANCH   1  16
ATOM     16  C   UNL     1      48.720   7.984  13.824  0.00  0.00    +0.000 C 
BRANCH  16  17
ATOM     17  O   UNL     1      48.467   7.209  12.653  0.00  0.00    +0.000 OA
BRANCH  17  21
ATOM     18  C   UNL     1      44.551   5.874  12.713  0.00  0.00    +0.000 A 
ATOM     19  C   UNL     1      45.593   4.981  12.988  0.00  0.00    +0.000 A 
ATOM     20  C   UNL     1      46.915   5.438  12.959  0.00  0.00    +0.000 A 
ATOM     21  C   UNL     1      47.149   6.769  12.656  0.00  0.00    +0.000 A 
ATOM     22  N   UNL     1      46.160   7.643  12.371  0.00  0.00    +0.000 NA
ATOM     23  C   UNL     1      44.889   7.182  12.396  0.00  0.00    +0.000 A 
BRANCH  18  25
ATOM     24  N   UNL     1      42.324   6.064  11.772  0.00  0.00    +0.000 N 
ATOM     25  C   UNL     1      43.122   5.512  12.730  0.00  0.00    +0.000 C 
ATOM     26  O   UNL     1      42.674   4.704  13.541  0.00  0.00    +0.000 OA
ATOM     27  H   UNL     1      41.377   5.704  11.719  0.00  0.00    +0.000 HD
ATOM     28  H   UNL     1      42.696   6.513  10.946  0.00  0.00    +0.000 HD
ENDBRANCH  18  25
ENDBRANCH  17  21
ENDBRANCH  16  17
ENDBRANCH   1  16
TORSDOF 7
ENDMDL
MODEL 6
REMARK VINA RESULT:    -6.238      4.465      6.281
REMARK INTER + INTRA:          -9.679
REMARK INTER:                  -9.107
REMARK INTRA:                  -0.572
REMARK UNBOUND:                -1.070
REMARK  Name = 
REMARK  7 active torsions:
REMARK  status: ('A' for Active; 'I' for Inactive)
REMARK    1  A    between atoms: C_2  and  C_4
REMARK    2  A    between atoms: C_7  and  O_8
REMARK    3  A    between atoms: O_8  and  C_9
REMARK    4  A    between atoms: C_9  and  C_10
REMARK    5  A    between atoms: C_14  and  C_15
REMARK    6  A    between atoms: C_19  and  C_20
REMARK    7  A    between atoms: C_20  and  O_21
REMARK                            x       y       z     vdW  Elec       q    Type
REMARK                         _______ _______ _______ _____ _____    ______ ____
ROOT
ATOM      1  C   UNL     1      48.378   3.465  16.773  0.00  0.00    +0.000 A 
ATOM      2  C   UNL     1      49.256   2.386  16.667  0.00  0.00    +0.000 A 
ATOM      3  C   UNL     1      50.476   2.419  17.341  0.00  0.00    +0.000 A 
ATOM      4  C   UNL     1      50.840   3.546  18.090  0.00  0.00    +0.000 A 
ATOM      5  C   UNL     1      49.963   4.635  18.238  0.00  0.00    +0.000 A 
ATOM      6  C   UNL     1      48.709   4.538  17.616  0.00  0.00    +0.000 A 
ENDROOT
BRANCH   5   7
ATOM      7  C   UNL     1      50.459   5.951  18.843  0.00  0.00    +0.000 C 
ATOM      8  C   UNL     1      50.093   7.239  18.070  0.00  0.00    +0.000 C 
ATOM      9  C   UNL     1      48.656   7.692  18.317  0.00  0.00    +0.000 C 
ATOM     10  C   UNL     1      48.406   7.916  19.805  0.00  0.00    +0.000 C 
ATOM     11  C   UNL     1      48.742   6.683  20.656  0.00  0.00    +0.000 C 
ATOM     12  C   UNL     1      50.159   6.167  20.341  0.00  0.00    +0.000 C 
BRANCH  11  13
ATOM     13  C   UNL     1      47.653   5.610  20.542  0.00  0.00    +0.000 C 
BRANCH  13  14
ATOM     14  O   UNL     1      48.084   4.394  21.138  0.00  0.00    +0.000 OA
ATOM     15  H   UNL     1      47.326   4.043  21.637  0.00  0.00    +0.000 HD
ENDBRANCH  13  14
ENDBRANCH  11  13
ENDBRANCH   5   7
BRANCH   1  16
ATOM     16  C   UNL     1      47.205   3.621  15.826  0.00  0.00    +0.000 C 
BRANCH  16  17
ATOM     17  O   UNL     1      47.506   3.306  14.468  0.00  0.00    +0.000 OA
BRANCH  17  21
ATOM     18  C   UNL     1      44.689   5.001  11.956  0.00  0.00    +0.000 A 
ATOM     19  C   UNL     1      45.496   5.825  12.750  0.00  0.00    +0.000 A 
ATOM     20  C   UNL     1      46.442   5.244  13.602  0.00  0.00    +0.000 A 
ATOM     21  C   UNL     1      46.546   3.864  13.632  0.00  0.00    +0.000 A 
ATOM     22  N   UNL     1      45.767   3.050  12.887  0.00  0.00    +0.000 NA
ATOM     23  C   UNL     1      44.853   3.629  12.075  0.00  0.00    +0.000 A 
BRANCH  18  25
ATOM     24  N   UNL     1      43.121   6.719  11.269  0.00  0.00    +0.000 N 
ATOM     25  C   UNL     1      43.673   5.499  11.011  0.00  0.00    +0.000 C 
ATOM     26  O   UNL     1      43.371   4.867  10.001  0.00  0.00    +0.000 OA
ATOM     27  H   UNL     1      42.524   7.101  10.543  0.00  0.00    +0.000 HD
ATOM     28  H   UNL     1      43.525   7.372  11.927  0.00  0.00    +0.000 HD
ENDBRANCH  18  25
ENDBRANCH  17  21
ENDBRANCH  16  17
ENDBRANCH   1  16
TORSDOF 7
ENDMDL
MODEL 7
REMARK VINA RESULT:    -6.146      3.955      5.958
REMARK INTER + INTRA:          -9.552
REMARK INTER:                  -8.363
REMARK INTRA:                  -1.189
REMARK UNBOUND:                -1.070
REMARK  Name = 
REMARK  7 active torsions:
REMARK  status: ('A' for Active; 'I' for Inactive)
REMARK    1  A    between atoms: C_2  and  C_4
REMARK    2  A    between atoms: C_7  and  O_8
REMARK    3  A    between atoms: O_8  and  C_9
REMARK    4  A    between atoms: C_9  and  C_10
REMARK    5  A    between atoms: C_14  and  C_15
REMARK    6  A    between atoms: C_19  and  C_20
REMARK    7  A    between atoms: C_20  and  O_21
REMARK                            x       y       z     vdW  Elec       q    Type
REMARK                         _______ _______ _______ _____ _____    ______ ____
ROOT
ATOM      1  C   UNL     1      48.161   4.120  17.244  0.00  0.00    +0.000 A 
ATOM      2  C   UNL     1      49.427   3.584  17.482  0.00  0.00    +0.000 A 
ATOM      3  C   UNL     1      50.195   4.070  18.539  0.00  0.00    +0.000 A 
ATOM      4  C   UNL     1      49.717   5.118  19.337  0.00  0.00    +0.000 A 
ATOM      5  C   UNL     1      48.435   5.657  19.138  0.00  0.00    +0.000 A 
ATOM      6  C   UNL     1      47.652   5.092  18.119  0.00  0.00    +0.000 A 
ENDROOT
BRANCH   5   7
ATOM      7  C   UNL     1      48.021   6.953  19.842  0.00  0.00    +0.000 C 
ATOM      8  C   UNL     1      49.083   7.603  20.758  0.00  0.00    +0.000 C 
ATOM      9  C   UNL     1      50.137   8.388  19.980  0.00  0.00    +0.000 C 
ATOM     10  C   UNL     1      49.486   9.470  19.126  0.00  0.00    +0.000 C 
ATOM     11  C   UNL     1      48.413   8.915  18.179  0.00  0.00    +0.000 C 
ATOM     12  C   UNL     1      47.400   8.045  18.946  0.00  0.00    +0.000 C 
BRANCH  11  13
ATOM     13  C   UNL     1      49.042   8.212  16.971  0.00  0.00    +0.000 C 
BRANCH  13  14
ATOM     14  O   UNL     1      48.036   7.757  16.076  0.00  0.00    +0.000 OA
ATOM     15  H   UNL     1      47.525   7.078  16.550  0.00  0.00    +0.000 HD
ENDBRANCH  13  14
ENDBRANCH  11  13
ENDBRANCH   5   7
BRANCH   1  16
ATOM     16  C   UNL     1      47.429   3.861  15.942  0.00  0.00    +0.000 C 
BRANCH  16  17
ATOM     17  O   UNL     1      47.624   4.870  14.953  0.00  0.00    +0.000 OA
BRANCH  17  21
ATOM     18  C   UNL     1      45.048   4.299  11.767  0.00  0.00    +0.000 A 
ATOM     19  C   UNL     1      45.409   5.598  12.142  0.00  0.00    +0.000 A 
ATOM     20  C   UNL     1      46.275   5.783  13.226  0.00  0.00    +0.000 A 
ATOM     21  C   UNL     1      46.748   4.666  13.894  0.00  0.00    +0.000 A 
ATOM     22  N   UNL     1      46.399   3.406  13.559  0.00  0.00    +0.000 NA
ATOM     23  C   UNL     1      45.554   3.246  12.514  0.00  0.00    +0.000 A 
BRANCH  18  25
ATOM     24  N   UNL     1      44.264   4.755   9.517  0.00  0.00    +0.000 N 
ATOM     25  C   UNL     1      44.157   3.981  10.635  0.00  0.00    +0.000 C 
ATOM     26  O   UNL     1      43.387   3.025  10.673  0.00  0.00    +0.000 OA
ATOM     27  H   UNL     1      43.741   4.441   8.706  0.00  0.00    +0.000 HD
ATOM     28  H   UNL     1      45.052   5.367   9.351  0.00  0.00    +0.000 HD
ENDBRANCH  18  25
ENDBRANCH  17  21
ENDBRANCH  16  17
ENDBRANCH   1  16
TORSDOF 7
ENDMDL
MODEL 8
REMARK VINA RESULT:    -6.086      4.125      5.567
REMARK INTER + INTRA:          -9.469
REMARK INTER:                  -8.556
REMARK INTRA:                  -0.913
REMARK UNBOUND:                -1.070
REMARK  Name = 
REMARK  7 active torsions:
REMARK  status: ('A' for Active; 'I' for Inactive)
REMARK    1  A    between atoms: C_2  and  C_4
REMARK    2  A    between atoms: C_7  and  O_8
REMARK    3  A    between atoms: O_8  and  C_9
REMARK    4  A    between atoms: C_9  and  C_10
REMARK    5  A    between atoms: C_14  and  C_15
REMARK    6  A    between atoms: C_19  and  C_20
REMARK    7  A    between atoms: C_20  and  O_21
REMARK                            x       y       z     vdW  Elec       q    Type
REMARK                         _______ _______ _______ _____ _____    ______ ____
ROOT
ATOM      1  C   UNL     1      47.484   4.029  16.071  0.00  0.00    +0.000 A 
ATOM      2  C   UNL     1      48.285   2.887  16.085  0.00  0.00    +0.000 A 
ATOM      3  C   UNL     1      48.917   2.502  17.267  0.00  0.00    +0.000 A 
ATOM      4  C   UNL     1      48.782   3.276  18.426  0.00  0.00    +0.000 A 
ATOM      5  C   UNL     1      47.958   4.414  18.449  0.00  0.00    +0.000 A 
ATOM      6  C   UNL     1      47.269   4.732  17.267  0.00  0.00    +0.000 A 
ENDROOT
BRANCH   5   7
ATOM      7  C   UNL     1      48.010   5.386  19.632  0.00  0.00    +0.000 C 
ATOM      8  C   UNL     1      48.898   4.963  20.825  0.00  0.00    +0.000 C 
ATOM      9  C   UNL     1      50.383   5.219  20.579  0.00  0.00    +0.000 C 
ATOM     10  C   UNL     1      50.636   6.690  20.266  0.00  0.00    +0.000 C 
ATOM     11  C   UNL     1      49.794   7.199  19.087  0.00  0.00    +0.000 C 
ATOM     12  C   UNL     1      48.305   6.861  19.288  0.00  0.00    +0.000 C 
BRANCH  11  13
ATOM     13  C   UNL     1      50.361   6.722  17.746  0.00  0.00    +0.000 C 
BRANCH  13  14
ATOM     14  O   UNL     1      49.588   7.229  16.666  0.00  0.00    +0.000 OA
ATOM     15  H   UNL     1      50.050   6.979  15.848  0.00  0.00    +0.000 HD
ENDBRANCH  13  14
ENDBRANCH  11  13
ENDBRANCH   5   7
BRANCH   1  16
ATOM     16  C   UNL     1      47.040   4.663  14.768  0.00  0.00    +0.000 C 
BRANCH  16  17
ATOM     17  O   UNL     1      45.682   4.396  14.422  0.00  0.00    +0.000 OA
BRANCH  17  21
ATOM     18  C   UNL     1      45.313   4.401  10.302  0.00  0.00    +0.000 A 
ATOM     19  C   UNL     1      45.768   5.549  10.959  0.00  0.00    +0.000 A 
ATOM     20  C   UNL     1      45.883   5.543  12.353  0.00  0.00    +0.000 A 
ATOM     21  C   UNL     1      45.540   4.391  13.040  0.00  0.00    +0.000 A 
ATOM     22  N   UNL     1      45.084   3.277  12.428  0.00  0.00    +0.000 NA
ATOM     23  C   UNL     1      44.970   3.305  11.080  0.00  0.00    +0.000 A 
BRANCH  18  25
ATOM     24  N   UNL     1      44.151   3.505   8.370  0.00  0.00    +0.000 N 
ATOM     25  C   UNL     1      45.167   4.285   8.839  0.00  0.00    +0.000 C 
ATOM     26  O   UNL     1      45.896   4.906   8.070  0.00  0.00    +0.000 OA
ATOM     27  H   UNL     1      43.985   3.542   7.370  0.00  0.00    +0.000 HD
ATOM     28  H   UNL     1      43.385   3.199   8.956  0.00  0.00    +0.000 HD
ENDBRANCH  18  25
ENDBRANCH  17  21
ENDBRANCH  16  17
ENDBRANCH   1  16
TORSDOF 7
ENDMDL
MODEL 9
REMARK VINA RESULT:    -6.005      4.177      6.136
REMARK INTER + INTRA:          -9.357
REMARK INTER:                  -8.412
REMARK INTRA:                  -0.945
REMARK UNBOUND:                -1.070
REMARK  Name = 
REMARK  7 active torsions:
REMARK  status: ('A' for Active; 'I' for Inactive)
REMARK    1  A    between atoms: C_2  and  C_4
REMARK    2  A    between atoms: C_7  and  O_8
REMARK    3  A    between atoms: O_8  and  C_9
REMARK    4  A    between atoms: C_9  and  C_10
REMARK    5  A    between atoms: C_14  and  C_15
REMARK    6  A    between atoms: C_19  and  C_20
REMARK    7  A    between atoms: C_20  and  O_21
REMARK                            x       y       z     vdW  Elec       q    Type
REMARK                         _______ _______ _______ _____ _____    ______ ____
ROOT
ATOM      1  C   UNL     1      48.310   3.469  16.831  0.00  0.00    +0.000 A 
ATOM      2  C   UNL     1      49.260   2.458  16.681  0.00  0.00    +0.000 A 
ATOM      3  C   UNL     1      50.446   2.512  17.411  0.00  0.00    +0.000 A 
ATOM      4  C   UNL     1      50.705   3.594  18.263  0.00  0.00    +0.000 A 
ATOM      5  C   UNL     1      49.754   4.611  18.455  0.00  0.00    +0.000 A 
ATOM      6  C   UNL     1      48.535   4.488  17.770  0.00  0.00    +0.000 A 
ENDROOT
BRANCH   5   7
ATOM      7  C   UNL     1      50.137   5.902  19.184  0.00  0.00    +0.000 C 
ATOM      8  C   UNL     1      51.480   5.883  19.948  0.00  0.00    +0.000 C 
ATOM      9  C   UNL     1      52.687   6.070  19.030  0.00  0.00    +0.000 C 
ATOM     10  C   UNL     1      52.577   7.374  18.248  0.00  0.00    +0.000 C 
ATOM     11  C   UNL     1      51.268   7.481  17.453  0.00  0.00    +0.000 C 
ATOM     12  C   UNL     1      50.052   7.201  18.356  0.00  0.00    +0.000 C 
BRANCH  11  13
ATOM     13  C   UNL     1      51.309   6.618  16.186  0.00  0.00    +0.000 C 
BRANCH  13  14
ATOM     14  O   UNL     1      50.048   6.630  15.531  0.00  0.00    +0.000 OA
ATOM     15  H   UNL     1      49.449   7.161  16.084  0.00  0.00    +0.000 HD
ENDBRANCH  13  14
ENDBRANCH  11  13
ENDBRANCH   5   7
BRANCH   1  16
ATOM     16  C   UNL     1      47.169   3.628  15.846  0.00  0.00    +0.000 C 
BRANCH  16  17
ATOM     17  O   UNL     1      47.527   3.362  14.491  0.00  0.00    +0.000 OA
BRANCH  17  21
ATOM     18  C   UNL     1      44.666   4.904  11.931  0.00  0.00    +0.000 A 
ATOM     19  C   UNL     1      45.441   5.772  12.709  0.00  0.00    +0.000 A 
ATOM     20  C   UNL     1      46.402   5.242  13.578  0.00  0.00    +0.000 A 
ATOM     21  C   UNL     1      46.553   3.867  13.639  0.00  0.00    +0.000 A 
ATOM     22  N   UNL     1      45.805   3.012  12.909  0.00  0.00    +0.000 NA
ATOM     23  C   UNL     1      44.875   3.541  12.081  0.00  0.00    +0.000 A 
BRANCH  18  25
ATOM     24  N   UNL     1      42.945   6.482  11.273  0.00  0.00    +0.000 N 
ATOM     25  C   UNL     1      43.638   5.346  10.971  0.00  0.00    +0.000 C 
ATOM     26  O   UNL     1      43.446   4.748   9.915  0.00  0.00    +0.000 OA
ATOM     27  H   UNL     1      42.338   6.841  10.543  0.00  0.00    +0.000 HD
ATOM     28  H   UNL     1      43.251   7.133  11.984  0.00  0.00    +0.000 HD
ENDBRANCH  18  25
ENDBRANCH  17  21
ENDBRANCH  16  17
ENDBRANCH   1  16
TORSDOF 7
ENDMDL
