MODEL 1
REMARK VINA RESULT:    -8.858      0.000      0.000
REMARK INTER + INTRA:         -14.073
REMARK INTER:                 -13.001
REMARK INTRA:                  -1.073
REMARK UNBOUND:                -1.073
REMARK  Name = 
REMARK  9 active torsions:
REMARK  status: ('A' for Active; 'I' for Inactive)
REMARK    1  A    between atoms: N_1  and  C_2
REMARK    2  A    between atoms: C_2  and  C_3
REMARK    3  A    between atoms: C_3  and  O_4
REMARK    4  A    between atoms: C_3  and  C_5
REMARK    5  A    between atoms: C_8  and  C_9
REMARK    6  A    between atoms: C_9  and  N_10
REMARK    7  A    between atoms: C_12  and  C_13
REMARK    8  A    between atoms: C_13  and  N_14
REMARK    9  A    between atoms: C_15  and  C_17
REMARK                            x       y       z     vdW  Elec       q    Type
REMARK                         _______ _______ _______ _____ _____    ______ ____
ROOT
ATOM      1  N   UNL     1      44.111   5.622  11.325  0.00  0.00    +0.000 N 
ATOM      2  C   UNL     1      44.831   6.790  11.265  0.00  0.00    +0.000 A 
ATOM      3  C   UNL     1      45.443   6.940  12.497  0.00  0.00    +0.000 A 
ATOM      4  C   UNL     1      44.904   5.876  13.262  0.00  0.00    +0.000 A 
ATOM      5  N   UNL     1      44.067   5.100  12.569  0.00  0.00    +0.000 NA
ENDROOT
BRANCH   1   6
ATOM      6  C   UNL     1      43.444   4.939  10.220  0.00  0.00    +0.000 C 
BRANCH   6  10
ATOM      7  C   UNL     1      46.029   2.197   8.026  0.00  0.00    +0.000 A 
ATOM      8  C   UNL     1      46.058   3.573   7.757  0.00  0.00    +0.000 A 
ATOM      9  C   UNL     1      45.252   4.469   8.467  0.00  0.00    +0.000 A 
ATOM     10  C   UNL     1      44.365   4.012   9.452  0.00  0.00    +0.000 A 
ATOM     11  C   UNL     1      44.370   2.642   9.755  0.00  0.00    +0.000 A 
ATOM     12  C   UNL     1      45.194   1.750   9.060  0.00  0.00    +0.000 A 
BRANCH   7  13
ATOM     13  C   UNL     1      46.881   1.249   7.203  0.00  0.00    +0.000 C 
BRANCH  13  14
ATOM     14  O   UNL     1      47.076   0.048   7.956  0.00  0.00    +0.000 OA
ATOM     15  H   UNL     1      47.917   0.146   8.429  0.00  0.00    +0.000 HD
ENDBRANCH  13  14
BRANCH  13  16
ATOM     16  C   UNL     1      48.245   1.858   6.786  0.00  0.00    +0.000 C 
BRANCH  16  17
ATOM     17  N   UNL     1      48.461   1.883   5.333  0.00  0.00    +0.000 NA
ATOM     18  H   UNL     1      48.246   2.810   4.971  0.00  0.00    +0.000 HD
ATOM     19  H   UNL     1      47.816   1.237   4.880  0.00  0.00    +0.000 HD
ENDBRANCH  16  17
ENDBRANCH  13  16
ENDBRANCH   7  13
ENDBRANCH   6  10
ENDBRANCH   1   6
BRANCH   3  20
ATOM     20  C   UNL     1      46.488   7.910  12.938  0.00  0.00    +0.000 C 
BRANCH  20  21
ATOM     21  N   UNL     1      47.128   7.464  14.144  0.00  0.00    +0.000 N 
ATOM     22  C   UNL     1      48.236   6.666  14.144  0.00  0.00    +0.000 C 
ATOM     23  O   UNL     1      48.775   6.262  13.105  0.00  0.00    +0.000 OA
ATOM     24  H   UNL     1      46.778   7.830  15.026  0.00  0.00    +0.000 HD
BRANCH  22  25
ATOM     25  C   UNL     1      48.745   6.292  15.464  0.00  0.00    +0.000 A 
ATOM     26  C   UNL     1      49.656   7.084  16.149  0.00  0.00    +0.000 A 
ATOM     27  S   UNL     1      50.016   6.504  17.714  0.00  0.00    +0.000 S 
ATOM     28  C   UNL     1      48.862   5.262  17.566  0.00  0.00    +0.000 A 
ATOM     29  N   UNL     1      48.485   4.516  18.641  0.00  0.00    +0.000 NA
ATOM     30  C   UNL     1      47.661   3.563  18.356  0.00  0.00    +0.000 A 
ATOM     31  N   UNL     1      47.228   3.243  17.097  0.00  0.00    +0.000 N 
ATOM     32  C   UNL     1      47.505   4.032  15.993  0.00  0.00    +0.000 A 
ATOM     33  O   UNL     1      47.042   3.745  14.894  0.00  0.00    +0.000 OA
ATOM     34  C   UNL     1      48.371   5.154  16.280  0.00  0.00    +0.000 A 
ATOM     35  H   UNL     1      46.646   2.441  16.930  0.00  0.00    +0.000 HD
ENDBRANCH  22  25
ENDBRANCH  20  21
ENDBRANCH   3  20
TORSDOF 9
ENDMDL
MODEL 2
REMARK VINA RESULT:    -8.021      1.620      2.446
REMARK INTER + INTRA:         -12.845
REMARK INTER:                 -12.005
REMARK INTRA:                  -0.840
REMARK UNBOUND:                -1.073
REMARK  Name = 
REMARK  9 active torsions:
REMARK  status: ('A' for Active; 'I' for Inactive)
REMARK    1  A    between atoms: N_1  and  C_2
REMARK    2  A    between atoms: C_2  and  C_3
REMARK    3  A    between atoms: C_3  and  O_4
REMARK    4  A    between atoms: C_3  and  C_5
REMARK    5  A    between atoms: C_8  and  C_9
REMARK    6  A    between atoms: C_9  and  N_10
REMARK    7  A    between atoms: C_12  and  C_13
REMARK    8  A    between atoms: C_13  and  N_14
REMARK    9  A    between atoms: C_15  and  C_17
REMARK                            x       y       z     vdW  Elec       q    Type
REMARK                         _______ _______ _______ _____ _____    ______ ____
ROOT
ATOM      1  N   UNL     1      44.298   5.451  11.405  0.00  0.00    +0.000 N 
ATOM      2  C   UNL     1      44.861   6.703  11.417  0.00  0.00    +0.000 A 
ATOM      3  C   UNL     1      45.577   6.801  12.598  0.00  0.00    +0.000 A 
ATOM      4  C   UNL     1      45.254   5.601  13.278  0.00  0.00    +0.000 A 
ATOM      5  N   UNL     1      44.448   4.800  12.577  0.00  0.00    +0.000 NA
ENDROOT
BRANCH   1   6
ATOM      6  C   UNL     1      43.605   4.806  10.292  0.00  0.00    +0.000 C 
BRANCH   6  10
ATOM      7  C   UNL     1      46.129   2.123   7.958  0.00  0.00    +0.000 A 
ATOM      8  C   UNL     1      46.199   3.511   7.770  0.00  0.00    +0.000 A 
ATOM      9  C   UNL     1      45.413   4.387   8.526  0.00  0.00    +0.000 A 
ATOM     10  C   UNL     1      44.505   3.899   9.477  0.00  0.00    +0.000 A 
ATOM     11  C   UNL     1      44.469   2.514   9.700  0.00  0.00    +0.000 A 
ATOM     12  C   UNL     1      45.274   1.641   8.959  0.00  0.00    +0.000 A 
BRANCH   7  13
ATOM     13  C   UNL     1      46.960   1.200   7.087  0.00  0.00    +0.000 C 
BRANCH  13  14
ATOM     14  O   UNL     1      47.174  -0.022   7.800  0.00  0.00    +0.000 OA
ATOM     15  H   UNL     1      48.113  -0.045   8.042  0.00  0.00    +0.000 HD
ENDBRANCH  13  14
BRANCH  13  16
ATOM     16  C   UNL     1      48.313   1.822   6.653  0.00  0.00    +0.000 C 
BRANCH  16  17
ATOM     17  N   UNL     1      48.355   2.218   5.240  0.00  0.00    +0.000 NA
ATOM     18  H   UNL     1      47.428   2.118   4.829  0.00  0.00    +0.000 HD
ATOM     19  H   UNL     1      48.971   1.591   4.726  0.00  0.00    +0.000 HD
ENDBRANCH  16  17
ENDBRANCH  13  16
ENDBRANCH   7  13
ENDBRANCH   6  10
ENDBRANCH   1   6
BRANCH   3  20
ATOM     20  C   UNL     1      46.538   7.849  13.053  0.00  0.00    +0.000 C 
BRANCH  20  21
ATOM     21  N   UNL     1      47.245   7.422  14.227  0.00  0.00    +0.000 N 
ATOM     22  C   UNL     1      48.411   6.713  14.175  0.00  0.00    +0.000 C 
ATOM     23  O   UNL     1      48.948   6.379  13.111  0.00  0.00    +0.000 OA
ATOM     24  H   UNL     1      46.894   7.737  15.129  0.00  0.00    +0.000 HD
BRANCH  22  25
ATOM     25  C   UNL     1      48.985   6.345  15.470  0.00  0.00    +0.000 A 
ATOM     26  C   UNL     1      48.309   5.531  16.367  0.00  0.00    +0.000 A 
ATOM     27  S   UNL     1      49.224   5.147  17.757  0.00  0.00    +0.000 S 
ATOM     28  C   UNL     1      50.590   5.945  17.130  0.00  0.00    +0.000 A 
ATOM     29  N   UNL     1      51.814   5.815  17.713  0.00  0.00    +0.000 NA
ATOM     30  C   UNL     1      52.734   6.542  17.171  0.00  0.00    +0.000 A 
ATOM     31  N   UNL     1      52.539   7.432  16.149  0.00  0.00    +0.000 N 
ATOM     32  C   UNL     1      51.339   7.523  15.462  0.00  0.00    +0.000 A 
ATOM     33  O   UNL     1      51.227   8.287  14.510  0.00  0.00    +0.000 OA
ATOM     34  C   UNL     1      50.296   6.673  15.994  0.00  0.00    +0.000 A 
ATOM     35  H   UNL     1      53.280   8.025  15.820  0.00  0.00    +0.000 HD
ENDBRANCH  22  25
ENDBRANCH  20  21
ENDBRANCH   3  20
TORSDOF 9
ENDMDL
MODEL 3
REMARK VINA RESULT:    -7.292      1.785      2.099
REMARK INTER + INTRA:         -11.775
REMARK INTER:                 -10.943
REMARK INTRA:                  -0.832
REMARK UNBOUND:                -1.073
REMARK  Name = 
REMARK  9 active torsions:
REMARK  status: ('A' for Active; 'I' for Inactive)
REMARK    1  A    between atoms: N_1  and  C_2
REMARK    2  A    between atoms: C_2  and  C_3
REMARK    3  A    between atoms: C_3  and  O_4
REMARK    4  A    between atoms: C_3  and  C_5
REMARK    5  A    between atoms: C_8  and  C_9
REMARK    6  A    between atoms: C_9  and  N_10
REMARK    7  A    between atoms: C_12  and  C_13
REMARK    8  A    between atoms: C_13  and  N_14
REMARK    9  A    between atoms: C_15  and  C_17
REMARK                            x       y       z     vdW  Elec       q    Type
REMARK                         _______ _______ _______ _____ _____    ______ ____
ROOT
ATOM      1  N   UNL     1      45.290   6.128  11.677  0.00  0.00    +0.000 N 
ATOM      2  C   UNL     1      46.621   5.901  11.931  0.00  0.00    +0.000 A 
ATOM      3  C   UNL     1      47.082   7.004  12.629  0.00  0.00    +0.000 A 
ATOM      4  C   UNL     1      45.977   7.890  12.610  0.00  0.00    +0.000 A 
ATOM      5  N   UNL     1      44.904   7.380  12.000  0.00  0.00    +0.000 NA
ENDROOT
BRANCH   1   6
ATOM      6  C   UNL     1      44.322   5.180  11.131  0.00  0.00    +0.000 C 
BRANCH   6  10
ATOM      7  C   UNL     1      45.912   2.598   7.997  0.00  0.00    +0.000 A 
ATOM      8  C   UNL     1      46.075   3.990   7.925  0.00  0.00    +0.000 A 
ATOM      9  C   UNL     1      45.592   4.831   8.934  0.00  0.00    +0.000 A 
ATOM     10  C   UNL     1      44.899   4.306  10.035  0.00  0.00    +0.000 A 
ATOM     11  C   UNL     1      44.778   2.912  10.132  0.00  0.00    +0.000 A 
ATOM     12  C   UNL     1      45.283   2.071   9.134  0.00  0.00    +0.000 A 
BRANCH   7  13
ATOM     13  C   UNL     1      46.407   1.721   6.862  0.00  0.00    +0.000 C 
BRANCH  13  14
ATOM     14  O   UNL     1      47.142   0.630   7.424  0.00  0.00    +0.000 OA
ATOM     15  H   UNL     1      46.863  -0.170   6.951  0.00  0.00    +0.000 HD
ENDBRANCH  13  14
BRANCH  13  16
ATOM     16  C   UNL     1      47.272   2.488   5.829  0.00  0.00    +0.000 C 
BRANCH  16  17
ATOM     17  N   UNL     1      48.605   1.905   5.627  0.00  0.00    +0.000 NA
ATOM     18  H   UNL     1      48.859   1.964   4.642  0.00  0.00    +0.000 HD
ATOM     19  H   UNL     1      48.586   0.915   5.865  0.00  0.00    +0.000 HD
ENDBRANCH  16  17
ENDBRANCH  13  16
ENDBRANCH   7  13
ENDBRANCH   6  10
ENDBRANCH   1   6
BRANCH   3  20
ATOM     20  C   UNL     1      48.383   7.222  13.326  0.00  0.00    +0.000 C 
BRANCH  20  21
ATOM     21  N   UNL     1      48.200   7.282  14.749  0.00  0.00    +0.000 N 
ATOM     22  C   UNL     1      48.766   8.249  15.530  0.00  0.00    +0.000 C 
ATOM     23  O   UNL     1      49.483   9.149  15.073  0.00  0.00    +0.000 OA
ATOM     24  H   UNL     1      47.555   6.618  15.170  0.00  0.00    +0.000 HD
BRANCH  22  25
ATOM     25  C   UNL     1      48.488   8.147  16.963  0.00  0.00    +0.000 A 
ATOM     26  C   UNL     1      47.930   9.197  17.678  0.00  0.00    +0.000 A 
ATOM     27  S   UNL     1      47.592   8.805  19.306  0.00  0.00    +0.000 S 
ATOM     28  C   UNL     1      48.054   7.187  19.057  0.00  0.00    +0.000 A 
ATOM     29  N   UNL     1      47.800   6.228  19.989  0.00  0.00    +0.000 NA
ATOM     30  C   UNL     1      48.279   5.065  19.692  0.00  0.00    +0.000 A 
ATOM     31  N   UNL     1      49.041   4.783  18.590  0.00  0.00    +0.000 N 
ATOM     32  C   UNL     1      49.238   5.698  17.569  0.00  0.00    +0.000 A 
ATOM     33  O   UNL     1      49.872   5.382  16.568  0.00  0.00    +0.000 OA
ATOM     34  C   UNL     1      48.658   6.997  17.829  0.00  0.00    +0.000 A 
ATOM     35  H   UNL     1      49.449   3.875  18.453  0.00  0.00    +0.000 HD
ENDBRANCH  22  25
ENDBRANCH  20  21
ENDBRANCH   3  20
TORSDOF 9
ENDMDL
MODEL 4
REMARK VINA RESULT:    -7.133      2.167      3.543
REMARK INTER + INTRA:         -11.541
REMARK INTER:                 -10.566
REMARK INTRA:                  -0.975
REMARK UNBOUND:                -1.073
REMARK  Name = 
REMARK  9 active torsions:
REMARK  status: ('A' for Active; 'I' for Inactive)
REMARK    1  A    between atoms: N_1  and  C_2
REMARK    2  A    between atoms: C_2  and  C_3
REMARK    3  A    between atoms: C_3  and  O_4
REMARK    4  A    between atoms: C_3  and  C_5
REMARK    5  A    between atoms: C_8  and  C_9
REMARK    6  A    between atoms: C_9  and  N_10
REMARK    7  A    between atoms: C_12  and  C_13
REMARK    8  A    between atoms: C_13  and  N_14
REMARK    9  A    between atoms: C_15  and  C_17
REMARK                            x       y       z     vdW  Elec       q    Type
REMARK                         _______ _______ _______ _____ _____    ______ ____
ROOT
ATOM      1  N   UNL     1      44.471   5.114  11.550  0.00  0.00    +0.000 N 
ATOM      2  C   UNL     1      45.537   4.576  12.229  0.00  0.00    +0.000 A 
ATOM      3  C   UNL     1      45.804   5.431  13.284  0.00  0.00    +0.000 A 
ATOM      4  C   UNL     1      44.926   6.519  13.055  0.00  0.00    +0.000 A 
ATOM      5  N   UNL     1      44.146   6.350  11.984  0.00  0.00    +0.000 NA
ENDROOT
BRANCH   1   6
ATOM      6  C   UNL     1      43.704   4.490  10.475  0.00  0.00    +0.000 C 
BRANCH   6  10
ATOM      7  C   UNL     1      46.145   2.274   7.620  0.00  0.00    +0.000 A 
ATOM      8  C   UNL     1      46.082   3.675   7.568  0.00  0.00    +0.000 A 
ATOM      9  C   UNL     1      45.322   4.402   8.491  0.00  0.00    +0.000 A 
ATOM     10  C   UNL     1      44.573   3.748   9.479  0.00  0.00    +0.000 A 
ATOM     11  C   UNL     1      44.673   2.351   9.562  0.00  0.00    +0.000 A 
ATOM     12  C   UNL     1      45.453   1.626   8.653  0.00  0.00    +0.000 A 
BRANCH   7  13
ATOM     13  C   UNL     1      46.940   1.515   6.574  0.00  0.00    +0.000 C 
BRANCH  13  14
ATOM     14  O   UNL     1      48.247   1.261   7.098  0.00  0.00    +0.000 OA
ATOM     15  H   UNL     1      48.594   2.111   7.411  0.00  0.00    +0.000 HD
ENDBRANCH  13  14
BRANCH  13  16
ATOM     16  C   UNL     1      47.032   2.259   5.216  0.00  0.00    +0.000 C 
BRANCH  16  17
ATOM     17  N   UNL     1      48.391   2.697   4.874  0.00  0.00    +0.000 NA
ATOM     18  H   UNL     1      48.491   3.690   5.074  0.00  0.00    +0.000 HD
ATOM     19  H   UNL     1      48.546   2.584   3.873  0.00  0.00    +0.000 HD
ENDBRANCH  16  17
ENDBRANCH  13  16
ENDBRANCH   7  13
ENDBRANCH   6  10
ENDBRANCH   1   6
BRANCH   3  20
ATOM     20  C   UNL     1      46.717   5.258  14.452  0.00  0.00    +0.000 C 
BRANCH  20  21
ATOM     21  N   UNL     1      47.642   6.351  14.548  0.00  0.00    +0.000 N 
ATOM     22  C   UNL     1      48.709   6.348  15.401  0.00  0.00    +0.000 C 
ATOM     23  O   UNL     1      48.961   5.403  16.159  0.00  0.00    +0.000 OA
ATOM     24  H   UNL     1      47.532   7.121  13.892  0.00  0.00    +0.000 HD
BRANCH  22  25
ATOM     25  C   UNL     1      49.538   7.554  15.380  0.00  0.00    +0.000 A 
ATOM     26  C   UNL     1      49.834   8.259  16.538  0.00  0.00    +0.000 A 
ATOM     27  S   UNL     1      50.909   9.561  16.283  0.00  0.00    +0.000 S 
ATOM     28  C   UNL     1      51.110   9.130  14.649  0.00  0.00    +0.000 A 
ATOM     29  N   UNL     1      52.083   9.697  13.883  0.00  0.00    +0.000 NA
ATOM     30  C   UNL     1      52.061   9.327  12.645  0.00  0.00    +0.000 A 
ATOM     31  N   UNL     1      51.125   8.499  12.085  0.00  0.00    +0.000 N 
ATOM     32  C   UNL     1      50.182   7.823  12.843  0.00  0.00    +0.000 A 
ATOM     33  O   UNL     1      49.405   7.039  12.309  0.00  0.00    +0.000 OA
ATOM     34  C   UNL     1      50.216   8.156  14.250  0.00  0.00    +0.000 A 
ATOM     35  H   UNL     1      51.116   8.308  11.099  0.00  0.00    +0.000 HD
ENDBRANCH  22  25
ENDBRANCH  20  21
ENDBRANCH   3  20
TORSDOF 9
ENDMDL
MODEL 5
REMARK VINA RESULT:    -7.084      3.655      8.246
REMARK INTER + INTRA:         -11.470
REMARK INTER:                 -10.453
REMARK INTRA:                  -1.017
REMARK UNBOUND:                -1.073
REMARK  Name = 
REMARK  9 active torsions:
REMARK  status: ('A' for Active; 'I' for Inactive)
REMARK    1  A    between atoms: N_1  and  C_2
REMARK    2  A    between atoms: C_2  and  C_3
REMARK    3  A    between atoms: C_3  and  O_4
REMARK    4  A    between atoms: C_3  and  C_5
REMARK    5  A    between atoms: C_8  and  C_9
REMARK    6  A    between atoms: C_9  and  N_10
REMARK    7  A    between atoms: C_12  and  C_13
REMARK    8  A    between atoms: C_13  and  N_14
REMARK    9  A    between atoms: C_15  and  C_17
REMARK                            x       y       z     vdW  Elec       q    Type
REMARK                         _______ _______ _______ _____ _____    ______ ____
ROOT
ATOM      1  N   UNL     1      48.254   5.948  16.196  0.00  0.00    +0.000 N 
ATOM      2  C   UNL     1      47.854   5.858  14.886  0.00  0.00    +0.000 A 
ATOM      3  C   UNL     1      48.433   6.926  14.223  0.00  0.00    +0.000 A 
ATOM      4  C   UNL     1      49.041   7.668  15.265  0.00  0.00    +0.000 A 
ATOM      5  N   UNL     1      48.900   7.101  16.466  0.00  0.00    +0.000 NA
ENDROOT
BRANCH   1   6
ATOM      6  C   UNL     1      48.058   4.955  17.249  0.00  0.00    +0.000 C 
BRANCH   6  10
ATOM      7  C   UNL     1      51.299   2.045  17.462  0.00  0.00    +0.000 A 
ATOM      8  C   UNL     1      51.511   3.378  17.847  0.00  0.00    +0.000 A 
ATOM      9  C   UNL     1      50.476   4.318  17.807  0.00  0.00    +0.000 A 
ATOM     10  C   UNL     1      49.199   3.962  17.349  0.00  0.00    +0.000 A 
ATOM     11  C   UNL     1      48.974   2.620  17.009  0.00  0.00    +0.000 A 
ATOM     12  C   UNL     1      50.004   1.675  17.073  0.00  0.00    +0.000 A 
BRANCH   7  13
ATOM     13  C   UNL     1      52.456   1.064  17.473  0.00  0.00    +0.000 C 
BRANCH  13  14
ATOM     14  O   UNL     1      52.110  -0.032  18.325  0.00  0.00    +0.000 OA
ATOM     15  H   UNL     1      52.941  -0.469  18.572  0.00  0.00    +0.000 HD
ENDBRANCH  13  14
BRANCH  13  16
ATOM     16  C   UNL     1      53.796   1.702  17.922  0.00  0.00    +0.000 C 
BRANCH  16  17
ATOM     17  N   UNL     1      54.072   1.548  19.356  0.00  0.00    +0.000 NA
ATOM     18  H   UNL     1      53.462   2.165  19.890  0.00  0.00    +0.000 HD
ATOM     19  H   UNL     1      55.028   1.840  19.555  0.00  0.00    +0.000 HD
ENDBRANCH  16  17
ENDBRANCH  13  16
ENDBRANCH   7  13
ENDBRANCH   6  10
ENDBRANCH   1   6
BRANCH   3  20
ATOM     20  C   UNL     1      48.505   7.224  12.762  0.00  0.00    +0.000 C 
BRANCH  20  21
ATOM     21  N   UNL     1      47.643   6.350  12.017  0.00  0.00    +0.000 N 
ATOM     22  C   UNL     1      46.430   6.744  11.528  0.00  0.00    +0.000 C 
ATOM     23  O   UNL     1      45.977   7.884  11.691  0.00  0.00    +0.000 OA
ATOM     24  H   UNL     1      47.997   5.426  11.781  0.00  0.00    +0.000 HD
BRANCH  22  25
ATOM     25  C   UNL     1      45.675   5.718  10.808  0.00  0.00    +0.000 A 
ATOM     26  C   UNL     1      45.847   5.501   9.448  0.00  0.00    +0.000 A 
ATOM     27  S   UNL     1      44.946   4.179   8.852  0.00  0.00    +0.000 S 
ATOM     28  C   UNL     1      44.413   3.781  10.419  0.00  0.00    +0.000 A 
ATOM     29  N   UNL     1      43.778   2.604  10.672  0.00  0.00    +0.000 NA
ATOM     30  C   UNL     1      43.365   2.481  11.890  0.00  0.00    +0.000 A 
ATOM     31  N   UNL     1      43.468   3.441  12.860  0.00  0.00    +0.000 N 
ATOM     32  C   UNL     1      44.193   4.608  12.677  0.00  0.00    +0.000 A 
ATOM     33  O   UNL     1      44.315   5.411  13.595  0.00  0.00    +0.000 OA
ATOM     34  C   UNL     1      44.733   4.756  11.344  0.00  0.00    +0.000 A 
ATOM     35  H   UNL     1      43.060   3.314  13.769  0.00  0.00    +0.000 HD
ENDBRANCH  22  25
ENDBRANCH  20  21
ENDBRANCH   3  20
TORSDOF 9
ENDMDL
MODEL 6
REMARK VINA RESULT:    -6.977      3.856      8.528
REMARK INTER + INTRA:         -11.312
REMARK INTER:                 -10.200
REMARK INTRA:                  -1.112
REMARK UNBOUND:                -1.073
REMARK  Name = 
REMARK  9 active torsions:
REMARK  status: ('A' for Active; 'I' for Inactive)
REMARK    1  A    between atoms: N_1  and  C_2
REMARK    2  A    between atoms: C_2  and  C_3
REMARK    3  A    between atoms: C_3  and  O_4
REMARK    4  A    between atoms: C_3  and  C_5
REMARK    5  A    between atoms: C_8  and  C_9
REMARK    6  A    between atoms: C_9  and  N_10
REMARK    7  A    between atoms: C_12  and  C_13
REMARK    8  A    between atoms: C_13  and  N_14
REMARK    9  A    between atoms: C_15  and  C_17
REMARK                            x       y       z     vdW  Elec       q    Type
REMARK                         _______ _______ _______ _____ _____    ______ ____
ROOT
ATOM      1  N   UNL     1      49.079   5.377  17.464  0.00  0.00    +0.000 N 
ATOM      2  C   UNL     1      48.488   5.319  16.226  0.00  0.00    +0.000 A 
ATOM      3  C   UNL     1      48.763   6.523  15.601  0.00  0.00    +0.000 A 
ATOM      4  C   UNL     1      49.404   7.279  16.614  0.00  0.00    +0.000 A 
ATOM      5  N   UNL     1      49.560   6.603  17.756  0.00  0.00    +0.000 NA
ENDROOT
BRANCH   1   6
ATOM      6  C   UNL     1      49.228   4.284  18.423  0.00  0.00    +0.000 C 
BRANCH   6  10
ATOM      7  C   UNL     1      52.630   1.688  17.585  0.00  0.00    +0.000 A 
ATOM      8  C   UNL     1      51.340   1.331  17.165  0.00  0.00    +0.000 A 
ATOM      9  C   UNL     1      50.242   2.163  17.405  0.00  0.00    +0.000 A 
ATOM     10  C   UNL     1      50.394   3.370  18.104  0.00  0.00    +0.000 A 
ATOM     11  C   UNL     1      51.690   3.750  18.482  0.00  0.00    +0.000 A 
ATOM     12  C   UNL     1      52.791   2.928  18.220  0.00  0.00    +0.000 A 
BRANCH   7  13
ATOM     13  C   UNL     1      53.790   0.739  17.350  0.00  0.00    +0.000 C 
BRANCH  13  14
ATOM     14  O   UNL     1      53.450  -0.130  16.266  0.00  0.00    +0.000 OA
ATOM     15  H   UNL     1      53.772  -1.014  16.503  0.00  0.00    +0.000 HD
ENDBRANCH  13  14
BRANCH  13  16
ATOM     16  C   UNL     1      54.174  -0.082  18.609  0.00  0.00    +0.000 C 
BRANCH  16  17
ATOM     17  N   UNL     1      53.212  -1.143  18.936  0.00  0.00    +0.000 NA
ATOM     18  H   UNL     1      53.560  -1.690  19.722  0.00  0.00    +0.000 HD
ATOM     19  H   UNL     1      53.128  -1.785  18.149  0.00  0.00    +0.000 HD
ENDBRANCH  16  17
ENDBRANCH  13  16
ENDBRANCH   7  13
ENDBRANCH   6  10
ENDBRANCH   1   6
BRANCH   3  20
ATOM     20  C   UNL     1      48.542   6.943  14.186  0.00  0.00    +0.000 C 
BRANCH  20  21
ATOM     21  N   UNL     1      47.233   6.562  13.736  0.00  0.00    +0.000 N 
ATOM     22  C   UNL     1      46.841   6.653  12.431  0.00  0.00    +0.000 C 
ATOM     23  O   UNL     1      47.583   7.072  11.534  0.00  0.00    +0.000 OA
ATOM     24  H   UNL     1      46.607   6.134  14.415  0.00  0.00    +0.000 HD
BRANCH  22  25
ATOM     25  C   UNL     1      45.465   6.238  12.154  0.00  0.00    +0.000 A 
ATOM     26  C   UNL     1      44.521   7.122  11.652  0.00  0.00    +0.000 A 
ATOM     27  S   UNL     1      43.021   6.385  11.301  0.00  0.00    +0.000 S 
ATOM     28  C   UNL     1      43.640   4.846  11.681  0.00  0.00    +0.000 A 
ATOM     29  N   UNL     1      42.947   3.713  11.383  0.00  0.00    +0.000 NA
ATOM     30  C   UNL     1      43.509   2.628  11.803  0.00  0.00    +0.000 A 
ATOM     31  N   UNL     1      44.658   2.569  12.545  0.00  0.00    +0.000 N 
ATOM     32  C   UNL     1      45.446   3.683  12.784  0.00  0.00    +0.000 A 
ATOM     33  O   UNL     1      46.502   3.575  13.398  0.00  0.00    +0.000 OA
ATOM     34  C   UNL     1      44.887   4.914  12.270  0.00  0.00    +0.000 A 
ATOM     35  H   UNL     1      45.005   1.699  12.908  0.00  0.00    +0.000 HD
ENDBRANCH  22  25
ENDBRANCH  20  21
ENDBRANCH   3  20
TORSDOF 9
ENDMDL
MODEL 7
REMARK VINA RESULT:    -6.857      3.840      5.807
REMARK INTER + INTRA:         -11.136
REMARK INTER:                 -10.440
REMARK INTRA:                  -0.696
REMARK UNBOUND:                -1.073
REMARK  Name = 
REMARK  9 active torsions:
REMARK  status: ('A' for Active; 'I' for Inactive)
REMARK    1  A    between atoms: N_1  and  C_2
REMARK    2  A    between atoms: C_2  and  C_3
REMARK    3  A    between atoms: C_3  and  O_4
REMARK    4  A    between atoms: C_3  and  C_5
REMARK    5  A    between atoms: C_8  and  C_9
REMARK    6  A    between atoms: C_9  and  N_10
REMARK    7  A    between atoms: C_12  and  C_13
REMARK    8  A    between atoms: C_13  and  N_14
REMARK    9  A    between atoms: C_15  and  C_17
REMARK                            x       y       z     vdW  Elec       q    Type
REMARK                         _______ _______ _______ _____ _____    ______ ____
ROOT
ATOM      1  N   UNL     1      47.738   5.132  15.907  0.00  0.00    +0.000 N 
ATOM      2  C   UNL     1      48.357   5.691  16.998  0.00  0.00    +0.000 A 
ATOM      3  C   UNL     1      48.207   4.792  18.039  0.00  0.00    +0.000 A 
ATOM      4  C   UNL     1      47.359   3.796  17.493  0.00  0.00    +0.000 A 
ATOM      5  N   UNL     1      47.040   4.020  16.216  0.00  0.00    +0.000 NA
ENDROOT
BRANCH   1   6
ATOM      6  C   UNL     1      47.782   5.609  14.526  0.00  0.00    +0.000 C 
BRANCH   6  10
ATOM      7  C   UNL     1      44.632   3.987  11.985  0.00  0.00    +0.000 A 
ATOM      8  C   UNL     1      45.658   3.159  12.464  0.00  0.00    +0.000 A 
ATOM      9  C   UNL     1      46.663   3.658  13.299  0.00  0.00    +0.000 A 
ATOM     10  C   UNL     1      46.692   5.014  13.658  0.00  0.00    +0.000 A 
ATOM     11  C   UNL     1      45.640   5.832  13.218  0.00  0.00    +0.000 A 
ATOM     12  C   UNL     1      44.622   5.325  12.403  0.00  0.00    +0.000 A 
BRANCH   7  13
ATOM     13  C   UNL     1      43.585   3.422  11.042  0.00  0.00    +0.000 C 
BRANCH  13  14
ATOM     14  O   UNL     1      43.021   2.253  11.643  0.00  0.00    +0.000 OA
ATOM     15  H   UNL     1      42.165   2.101  11.213  0.00  0.00    +0.000 HD
ENDBRANCH  13  14
BRANCH  13  16
ATOM     16  C   UNL     1      44.143   3.096   9.632  0.00  0.00    +0.000 C 
BRANCH  16  17
ATOM     17  N   UNL     1      44.144   4.245   8.718  0.00  0.00    +0.000 NA
ATOM     18  H   UNL     1      44.573   3.978   7.834  0.00  0.00    +0.000 HD
ATOM     19  H   UNL     1      44.717   4.993   9.106  0.00  0.00    +0.000 HD
ENDBRANCH  16  17
ENDBRANCH  13  16
ENDBRANCH   7  13
ENDBRANCH   6  10
ENDBRANCH   1   6
BRANCH   3  20
ATOM     20  C   UNL     1      48.833   4.780  19.394  0.00  0.00    +0.000 C 
BRANCH  20  21
ATOM     21  N   UNL     1      50.097   4.100  19.369  0.00  0.00    +0.000 N 
ATOM     22  C   UNL     1      51.282   4.744  19.147  0.00  0.00    +0.000 C 
ATOM     23  O   UNL     1      51.358   5.963  18.948  0.00  0.00    +0.000 OA
ATOM     24  H   UNL     1      50.106   3.111  19.608  0.00  0.00    +0.000 HD
BRANCH  22  25
ATOM     25  C   UNL     1      52.472   3.892  19.138  0.00  0.00    +0.000 A 
ATOM     26  C   UNL     1      53.596   4.196  19.892  0.00  0.00    +0.000 A 
ATOM     27  S   UNL     1      54.811   2.999  19.811  0.00  0.00    +0.000 S 
ATOM     28  C   UNL     1      53.810   1.986  18.879  0.00  0.00    +0.000 A 
ATOM     29  N   UNL     1      54.144   0.687  18.642  0.00  0.00    +0.000 NA
ATOM     30  C   UNL     1      53.327   0.070  17.855  0.00  0.00    +0.000 A 
ATOM     31  N   UNL     1      52.247   0.638  17.233  0.00  0.00    +0.000 N 
ATOM     32  C   UNL     1      51.814   1.922  17.522  0.00  0.00    +0.000 A 
ATOM     33  O   UNL     1      50.804   2.369  16.991  0.00  0.00    +0.000 OA
ATOM     34  C   UNL     1      52.664   2.629  18.454  0.00  0.00    +0.000 A 
ATOM     35  H   UNL     1      51.692   0.125  16.571  0.00  0.00    +0.000 HD
ENDBRANCH  22  25
ENDBRANCH  20  21
ENDBRANCH   3  20
TORSDOF 9
ENDMDL
MODEL 8
REMARK VINA RESULT:    -6.758      2.224      3.944
REMARK INTER + INTRA:         -10.991
REMARK INTER:                  -9.803
REMARK INTRA:                  -1.188
REMARK UNBOUND:                -1.073
REMARK  Name = 
REMARK  9 active torsions:
REMARK  status: ('A' for Active; 'I' for Inactive)
REMARK    1  A    between atoms: N_1  and  C_2
REMARK    2  A    between atoms: C_2  and  C_3
REMARK    3  A    between atoms: C_3  and  O_4
REMARK    4  A    between atoms: C_3  and  C_5
REMARK    5  A    between atoms: C_8  and  C_9
REMARK    6  A    between atoms: C_9  and  N_10
REMARK    7  A    between atoms: C_12  and  C_13
REMARK    8  A    between atoms: C_13  and  N_14
REMARK    9  A    between atoms: C_15  and  C_17
REMARK                            x       y       z     vdW  Elec       q    Type
REMARK                         _______ _______ _______ _____ _____    ______ ____
ROOT
ATOM      1  N   UNL     1      44.240   4.418  11.643  0.00  0.00    +0.000 N 
ATOM      2  C   UNL     1      45.391   4.098  12.320  0.00  0.00    +0.000 A 
ATOM      3  C   UNL     1      45.521   5.028  13.337  0.00  0.00    +0.000 A 
ATOM      4  C   UNL     1      44.468   5.940  13.084  0.00  0.00    +0.000 A 
ATOM      5  N   UNL     1      43.715   5.597  12.035  0.00  0.00    +0.000 NA
ENDROOT
BRANCH   1   6
ATOM      6  C   UNL     1      43.577   3.629  10.607  0.00  0.00    +0.000 C 
BRANCH   6  10
ATOM      7  C   UNL     1      46.263   2.151   7.506  0.00  0.00    +0.000 A 
ATOM      8  C   UNL     1      46.003   3.524   7.629  0.00  0.00    +0.000 A 
ATOM      9  C   UNL     1      45.163   4.017   8.632  0.00  0.00    +0.000 A 
ATOM     10  C   UNL     1      44.527   3.146   9.530  0.00  0.00    +0.000 A 
ATOM     11  C   UNL     1      44.824   1.778   9.438  0.00  0.00    +0.000 A 
ATOM     12  C   UNL     1      45.684   1.289   8.448  0.00  0.00    +0.000 A 
BRANCH   7  13
ATOM     13  C   UNL     1      47.142   1.647   6.376  0.00  0.00    +0.000 C 
BRANCH  13  14
ATOM     14  O   UNL     1      48.478   1.515   6.869  0.00  0.00    +0.000 OA
ATOM     15  H   UNL     1      48.693   2.344   7.324  0.00  0.00    +0.000 HD
ENDBRANCH  13  14
BRANCH  13  16
ATOM     16  C   UNL     1      47.110   2.560   5.123  0.00  0.00    +0.000 C 
BRANCH  16  17
ATOM     17  N   UNL     1      48.442   2.949   4.642  0.00  0.00    +0.000 NA
ATOM     18  H   UNL     1      48.653   3.898   4.947  0.00  0.00    +0.000 HD
ATOM     19  H   UNL     1      48.449   2.962   3.623  0.00  0.00    +0.000 HD
ENDBRANCH  16  17
ENDBRANCH  13  16
ENDBRANCH   7  13
ENDBRANCH   6  10
ENDBRANCH   1   6
BRANCH   3  20
ATOM     20  C   UNL     1      46.465   5.060  14.493  0.00  0.00    +0.000 C 
BRANCH  20  21
ATOM     21  N   UNL     1      47.252   6.261  14.480  0.00  0.00    +0.000 N 
ATOM     22  C   UNL     1      48.341   6.426  13.672  0.00  0.00    +0.000 C 
ATOM     23  O   UNL     1      48.736   5.553  12.889  0.00  0.00    +0.000 OA
ATOM     24  H   UNL     1      46.928   7.043  15.043  0.00  0.00    +0.000 HD
BRANCH  22  25
ATOM     25  C   UNL     1      49.036   7.707  13.803  0.00  0.00    +0.000 A 
ATOM     26  C   UNL     1      50.322   7.794  14.318  0.00  0.00    +0.000 A 
ATOM     27  S   UNL     1      50.968   9.374  14.266  0.00  0.00    +0.000 S 
ATOM     28  C   UNL     1      49.602   9.951  13.431  0.00  0.00    +0.000 A 
ATOM     29  N   UNL     1      49.589  11.190  12.867  0.00  0.00    +0.000 NA
ATOM     30  C   UNL     1      48.457  11.516  12.338  0.00  0.00    +0.000 A 
ATOM     31  N   UNL     1      47.320  10.753  12.372  0.00  0.00    +0.000 N 
ATOM     32  C   UNL     1      47.313   9.451  12.844  0.00  0.00    +0.000 A 
ATOM     33  O   UNL     1      46.289   8.780  12.796  0.00  0.00    +0.000 OA
ATOM     34  C   UNL     1      48.583   9.019  13.386  0.00  0.00    +0.000 A 
ATOM     35  H   UNL     1      46.449  11.094  12.008  0.00  0.00    +0.000 HD
ENDBRANCH  22  25
ENDBRANCH  20  21
ENDBRANCH   3  20
TORSDOF 9
ENDMDL
MODEL 9
REMARK VINA RESULT:    -6.520      3.889      5.511
REMARK INTER + INTRA:         -10.642
REMARK INTER:                  -9.581
REMARK INTRA:                  -1.061
REMARK UNBOUND:                -1.073
REMARK  Name = 
REMARK  9 active torsions:
REMARK  status: ('A' for Active; 'I' for Inactive)
REMARK    1  A    between atoms: N_1  and  C_2
REMARK    2  A    between atoms: C_2  and  C_3
REMARK    3  A    between atoms: C_3  and  O_4
REMARK    4  A    between atoms: C_3  and  C_5
REMARK    5  A    between atoms: C_8  and  C_9
REMARK    6  A    between atoms: C_9  and  N_10
REMARK    7  A    between atoms: C_12  and  C_13
REMARK    8  A    between atoms: C_13  and  N_14
REMARK    9  A    between atoms: C_15  and  C_17
REMARK                            x       y       z     vdW  Elec       q    Type
REMARK                         _______ _______ _______ _____ _____    ______ ____
ROOT
ATOM      1  N   UNL     1      48.755   7.627  14.227  0.00  0.00    +0.000 N 
ATOM      2  C   UNL     1      49.520   7.141  15.259  0.00  0.00    +0.000 A 
ATOM      3  C   UNL     1      49.182   7.878  16.380  0.00  0.00    +0.000 A 
ATOM      4  C   UNL     1      48.309   8.871  15.870  0.00  0.00    +0.000 A 
ATOM      5  N   UNL     1      48.080   8.747  14.560  0.00  0.00    +0.000 NA
ENDROOT
BRANCH   1   6
ATOM      6  C   UNL     1      48.614   7.058  12.889  0.00  0.00    +0.000 C 
BRANCH   6  10
ATOM      7  C   UNL     1      44.762   5.085  12.351  0.00  0.00    +0.000 A 
ATOM      8  C   UNL     1      45.109   6.195  11.568  0.00  0.00    +0.000 A 
ATOM      9  C   UNL     1      46.350   6.826  11.711  0.00  0.00    +0.000 A 
ATOM     10  C   UNL     1      47.274   6.383  12.669  0.00  0.00    +0.000 A 
ATOM     11  C   UNL     1      46.948   5.243  13.419  0.00  0.00    +0.000 A 
ATOM     12  C   UNL     1      45.716   4.599  13.257  0.00  0.00    +0.000 A 
BRANCH   7  13
ATOM     13  C   UNL     1      43.389   4.456  12.202  0.00  0.00    +0.000 C 
BRANCH  13  14
ATOM     14  O   UNL     1      42.619   4.775  13.365  0.00  0.00    +0.000 OA
ATOM     15  H   UNL     1      41.972   4.060  13.478  0.00  0.00    +0.000 HD
ENDBRANCH  13  14
BRANCH  13  16
ATOM     16  C   UNL     1      43.440   2.921  11.986  0.00  0.00    +0.000 C 
BRANCH  16  17
ATOM     17  N   UNL     1      44.098   2.523  10.735  0.00  0.00    +0.000 NA
ATOM     18  H   UNL     1      43.866   1.555  10.519  0.00  0.00    +0.000 HD
ATOM     19  H   UNL     1      45.110   2.560  10.853  0.00  0.00    +0.000 HD
ENDBRANCH  16  17
ENDBRANCH  13  16
ENDBRANCH   7  13
ENDBRANCH   6  10
ENDBRANCH   1   6
BRANCH   3  20
ATOM     20  C   UNL     1      49.548   7.668  17.812  0.00  0.00    +0.000 C 
BRANCH  20  21
ATOM     21  N   UNL     1      50.592   6.690  17.938  0.00  0.00    +0.000 N 
ATOM     22  C   UNL     1      50.415   5.493  18.570  0.00  0.00    +0.000 C 
ATOM     23  O   UNL     1      49.341   5.157  19.087  0.00  0.00    +0.000 OA
ATOM     24  H   UNL     1      51.471   6.876  17.462  0.00  0.00    +0.000 HD
BRANCH  22  25
ATOM     25  C   UNL     1      51.592   4.625  18.621  0.00  0.00    +0.000 A 
ATOM     26  C   UNL     1      52.748   4.997  19.292  0.00  0.00    +0.000 A 
ATOM     27  S   UNL     1      53.943   3.777  19.311  0.00  0.00    +0.000 S 
ATOM     28  C   UNL     1      52.894   2.678  18.544  0.00  0.00    +0.000 A 
ATOM     29  N   UNL     1      53.201   1.354  18.453  0.00  0.00    +0.000 NA
ATOM     30  C   UNL     1      52.346   0.662  17.776  0.00  0.00    +0.000 A 
ATOM     31  N   UNL     1      51.252   1.172  17.129  0.00  0.00    +0.000 N 
ATOM     32  C   UNL     1      50.847   2.488  17.277  0.00  0.00    +0.000 A 
ATOM     33  O   UNL     1      49.823   2.886  16.733  0.00  0.00    +0.000 OA
ATOM     34  C   UNL     1      51.742   3.286  18.087  0.00  0.00    +0.000 A 
ATOM     35  H   UNL     1      50.665   0.593  16.555  0.00  0.00    +0.000 HD
ENDBRANCH  22  25
ENDBRANCH  20  21
ENDBRANCH   3  20
TORSDOF 9
ENDMDL
