MODEL 1
REMARK VINA RESULT:    -7.130      0.000      0.000
REMARK INTER + INTRA:         -10.137
REMARK INTER:                  -9.631
REMARK INTRA:                  -0.506
REMARK UNBOUND:                -0.506
REMARK  Name = 
REMARK  7 active torsions:
REMARK  status: ('A' for Active; 'I' for Inactive)
REMARK    1  A    between atoms: C_1  and  S_2
REMARK    2  A    between atoms: S_2  and  C_5
REMARK    3  A    between atoms: C_7  and  N_8
REMARK    4  A    between atoms: N_8  and  C_9
REMARK    5  A    between atoms: C_9  and  C_10
REMARK    6  A    between atoms: C_10  and  C_13
REMARK    7  A    between atoms: C_21  and  C_22
REMARK                            x       y       z     vdW  Elec       q    Type
REMARK                         _______ _______ _______ _____ _____    ______ ____
ROOT
ATOM      1  C   UNL     1      47.490   6.440  13.375  0.00  0.00    +0.000 A 
ATOM      2  C   UNL     1      46.807   6.574  12.146  0.00  0.00    +0.000 A 
ATOM      3  C   UNL     1      45.863   5.626  11.731  0.00  0.00    +0.000 A 
ATOM      4  C   UNL     1      45.592   4.567  12.605  0.00  0.00    +0.000 A 
ATOM      5  C   UNL     1      46.258   4.429  13.825  0.00  0.00    +0.000 A 
ATOM      6  C   UNL     1      47.221   5.360  14.222  0.00  0.00    +0.000 A 
ENDROOT
BRANCH   1   8
ATOM      7  C   UNL     1      48.745   8.799  12.442  0.00  0.00    +0.000 C 
ATOM      8  S   UNL     1      48.634   7.721  13.846  0.00  0.00    +0.000 S 
ATOM      9  O   UNL     1      49.914   7.078  14.053  0.00  0.00    +0.000 OA
ATOM     10  O   UNL     1      48.013   8.486  14.913  0.00  0.00    +0.000 OA
ENDBRANCH   1   8
BRANCH   3  11
ATOM     11  N   UNL     1      45.190   5.788  10.532  0.00  0.00    +0.000 N 
ATOM     12  H   UNL     1      44.455   6.491  10.463  0.00  0.00    +0.000 HD
BRANCH  11  13
ATOM     13  C   UNL     1      45.656   5.161   9.279  0.00  0.00    +0.000 C 
BRANCH  13  14
ATOM     14  C   UNL     1      44.847   3.916   8.824  0.00  0.00    +0.000 C 
ATOM     15  F   UNL     1      44.226   3.380   9.916  0.00  0.00    +0.000 F 
ATOM     16  F   UNL     1      43.831   4.348   8.014  0.00  0.00    +0.000 F 
BRANCH  14  17
ATOM     17  C   UNL     1      45.727   2.911   8.116  0.00  0.00    +0.000 A 
ATOM     18  C   UNL     1      46.500   3.274   7.007  0.00  0.00    +0.000 A 
ATOM     19  C   UNL     1      47.301   2.329   6.370  0.00  0.00    +0.000 A 
ATOM     20  C   UNL     1      47.312   1.038   6.867  0.00  0.00    +0.000 A 
ATOM     21  N   UNL     1      46.588   0.648   7.938  0.00  0.00    +0.000 NA
ATOM     22  C   UNL     1      45.809   1.585   8.532  0.00  0.00    +0.000 A 
ENDBRANCH  14  17
ENDBRANCH  13  14
ENDBRANCH  11  13
ENDBRANCH   3  11
BRANCH   6  23
ATOM     23  C   UNL     1      47.901   5.104  15.463  0.00  0.00    +0.000 C 
ATOM     24  N   UNL     1      48.396   4.813  16.464  0.00  0.00    +0.000 NA
ENDBRANCH   6  23
TORSDOF 6
ENDMDL
MODEL 2
REMARK VINA RESULT:    -6.948      2.373      3.224
REMARK INTER + INTRA:          -9.891
REMARK INTER:                  -9.762
REMARK INTRA:                  -0.129
REMARK UNBOUND:                -0.506
REMARK  Name = 
REMARK  7 active torsions:
REMARK  status: ('A' for Active; 'I' for Inactive)
REMARK    1  A    between atoms: C_1  and  S_2
REMARK    2  A    between atoms: S_2  and  C_5
REMARK    3  A    between atoms: C_7  and  N_8
REMARK    4  A    between atoms: N_8  and  C_9
REMARK    5  A    between atoms: C_9  and  C_10
REMARK    6  A    between atoms: C_10  and  C_13
REMARK    7  A    between atoms: C_21  and  C_22
REMARK                            x       y       z     vdW  Elec       q    Type
REMARK                         _______ _______ _______ _____ _____    ______ ____
ROOT
ATOM      1  C   UNL     1      47.527   5.133  15.261  0.00  0.00    +0.000 A 
ATOM      2  C   UNL     1      46.501   4.750  14.369  0.00  0.00    +0.000 A 
ATOM      3  C   UNL     1      46.294   5.431  13.162  0.00  0.00    +0.000 A 
ATOM      4  C   UNL     1      47.174   6.475  12.858  0.00  0.00    +0.000 A 
ATOM      5  C   UNL     1      48.195   6.858  13.731  0.00  0.00    +0.000 A 
ATOM      6  C   UNL     1      48.380   6.196  14.947  0.00  0.00    +0.000 A 
ENDROOT
BRANCH   1   8
ATOM      7  C   UNL     1      47.589   5.330  18.083  0.00  0.00    +0.000 C 
ATOM      8  S   UNL     1      47.750   4.176  16.746  0.00  0.00    +0.000 S 
ATOM      9  O   UNL     1      49.107   3.672  16.715  0.00  0.00    +0.000 OA
ATOM     10  O   UNL     1      46.627   3.261  16.845  0.00  0.00    +0.000 OA
ENDBRANCH   1   8
BRANCH   3  11
ATOM     11  N   UNL     1      45.296   5.025  12.293  0.00  0.00    +0.000 N 
ATOM     12  H   UNL     1      44.872   5.707  11.666  0.00  0.00    +0.000 HD
BRANCH  11  13
ATOM     13  C   UNL     1      44.989   3.599  12.059  0.00  0.00    +0.000 C 
BRANCH  13  14
ATOM     14  C   UNL     1      44.122   3.308  10.805  0.00  0.00    +0.000 C 
ATOM     15  F   UNL     1      43.427   2.152  11.017  0.00  0.00    +0.000 F 
ATOM     16  F   UNL     1      43.166   4.286  10.719  0.00  0.00    +0.000 F 
BRANCH  14  17
ATOM     17  C   UNL     1      44.963   3.248   9.550  0.00  0.00    +0.000 A 
ATOM     18  C   UNL     1      45.423   2.028   9.041  0.00  0.00    +0.000 A 
ATOM     19  C   UNL     1      46.200   1.999   7.884  0.00  0.00    +0.000 A 
ATOM     20  C   UNL     1      46.492   3.199   7.261  0.00  0.00    +0.000 A 
ATOM     21  N   UNL     1      46.063   4.395   7.716  0.00  0.00    +0.000 NA
ATOM     22  C   UNL     1      45.318   4.396   8.849  0.00  0.00    +0.000 A 
ENDBRANCH  14  17
ENDBRANCH  13  14
ENDBRANCH  11  13
ENDBRANCH   3  11
BRANCH   6  23
ATOM     23  C   UNL     1      49.413   6.698  15.811  0.00  0.00    +0.000 C 
ATOM     24  N   UNL     1      50.214   7.193  16.480  0.00  0.00    +0.000 NA
ENDBRANCH   6  23
TORSDOF 6
ENDMDL
MODEL 3
REMARK VINA RESULT:    -6.821      2.039      3.080
REMARK INTER + INTRA:          -9.719
REMARK INTER:                  -9.162
REMARK INTRA:                  -0.558
REMARK UNBOUND:                -0.506
REMARK  Name = 
REMARK  7 active torsions:
REMARK  status: ('A' for Active; 'I' for Inactive)
REMARK    1  A    between atoms: C_1  and  S_2
REMARK    2  A    between atoms: S_2  and  C_5
REMARK    3  A    between atoms: C_7  and  N_8
REMARK    4  A    between atoms: N_8  and  C_9
REMARK    5  A    between atoms: C_9  and  C_10
REMARK    6  A    between atoms: C_10  and  C_13
REMARK    7  A    between atoms: C_21  and  C_22
REMARK                            x       y       z     vdW  Elec       q    Type
REMARK                         _______ _______ _______ _____ _____    ______ ____
ROOT
ATOM      1  C   UNL     1      46.976   7.248  13.069  0.00  0.00    +0.000 A 
ATOM      2  C   UNL     1      46.360   5.993  13.274  0.00  0.00    +0.000 A 
ATOM      3  C   UNL     1      45.090   5.712  12.754  0.00  0.00    +0.000 A 
ATOM      4  C   UNL     1      44.478   6.709  11.986  0.00  0.00    +0.000 A 
ATOM      5  C   UNL     1      45.081   7.951  11.773  0.00  0.00    +0.000 A 
ATOM      6  C   UNL     1      46.335   8.239  12.318  0.00  0.00    +0.000 A 
ENDROOT
BRANCH   1   8
ATOM      7  C   UNL     1      49.662   7.712  12.308  0.00  0.00    +0.000 C 
ATOM      8  S   UNL     1      48.614   7.498  13.722  0.00  0.00    +0.000 S 
ATOM      9  O   UNL     1      48.980   6.274  14.403  0.00  0.00    +0.000 OA
ATOM     10  O   UNL     1      48.607   8.764  14.434  0.00  0.00    +0.000 OA
ENDBRANCH   1   8
BRANCH   3  11
ATOM     11  N   UNL     1      44.515   4.469  12.950  0.00  0.00    +0.000 N 
ATOM     12  H   UNL     1      43.690   4.388  13.544  0.00  0.00    +0.000 HD
BRANCH  11  13
ATOM     13  C   UNL     1      44.892   3.292  12.141  0.00  0.00    +0.000 C 
BRANCH  13  14
ATOM     14  C   UNL     1      44.054   3.080  10.852  0.00  0.00    +0.000 C 
ATOM     15  F   UNL     1      43.442   1.862  10.928  0.00  0.00    +0.000 F 
ATOM     16  F   UNL     1      43.033   3.992  10.861  0.00  0.00    +0.000 F 
BRANCH  14  17
ATOM     17  C   UNL     1      44.904   3.217   9.609  0.00  0.00    +0.000 A 
ATOM     18  C   UNL     1      45.360   2.092   8.912  0.00  0.00    +0.000 A 
ATOM     19  C   UNL     1      46.145   2.244   7.770  0.00  0.00    +0.000 A 
ATOM     20  C   UNL     1      46.449   3.526   7.351  0.00  0.00    +0.000 A 
ATOM     21  N   UNL     1      46.023   4.637   7.989  0.00  0.00    +0.000 NA
ATOM     22  C   UNL     1      45.270   4.461   9.104  0.00  0.00    +0.000 A 
ENDBRANCH  14  17
ENDBRANCH  13  14
ENDBRANCH  11  13
ENDBRANCH   3  11
BRANCH   6  23
ATOM     23  C   UNL     1      46.850   9.563  12.101  0.00  0.00    +0.000 C 
ATOM     24  N   UNL     1      47.220  10.624  11.837  0.00  0.00    +0.000 NA
ENDBRANCH   6  23
TORSDOF 6
ENDMDL
MODEL 4
REMARK VINA RESULT:    -6.638      2.112      2.839
REMARK INTER + INTRA:          -9.473
REMARK INTER:                  -9.100
REMARK INTRA:                  -0.373
REMARK UNBOUND:                -0.506
REMARK  Name = 
REMARK  7 active torsions:
REMARK  status: ('A' for Active; 'I' for Inactive)
REMARK    1  A    between atoms: C_1  and  S_2
REMARK    2  A    between atoms: S_2  and  C_5
REMARK    3  A    between atoms: C_7  and  N_8
REMARK    4  A    between atoms: N_8  and  C_9
REMARK    5  A    between atoms: C_9  and  C_10
REMARK    6  A    between atoms: C_10  and  C_13
REMARK    7  A    between atoms: C_21  and  C_22
REMARK                            x       y       z     vdW  Elec       q    Type
REMARK                         _______ _______ _______ _____ _____    ______ ____
ROOT
ATOM      1  C   UNL     1      46.648   7.120  12.201  0.00  0.00    +0.000 A 
ATOM      2  C   UNL     1      46.276   5.760  12.106  0.00  0.00    +0.000 A 
ATOM      3  C   UNL     1      44.985   5.385  11.712  0.00  0.00    +0.000 A 
ATOM      4  C   UNL     1      44.095   6.410  11.375  0.00  0.00    +0.000 A 
ATOM      5  C   UNL     1      44.455   7.757  11.461  0.00  0.00    +0.000 A 
ATOM      6  C   UNL     1      45.733   8.129  11.882  0.00  0.00    +0.000 A 
ENDROOT
BRANCH   1   8
ATOM      7  C   UNL     1      48.216   8.335  14.219  0.00  0.00    +0.000 C 
ATOM      8  S   UNL     1      48.326   7.503  12.658  0.00  0.00    +0.000 S 
ATOM      9  O   UNL     1      48.826   8.427  11.662  0.00  0.00    +0.000 OA
ATOM     10  O   UNL     1      49.007   6.244  12.901  0.00  0.00    +0.000 OA
ENDBRANCH   1   8
BRANCH   3  11
ATOM     11  N   UNL     1      44.649   4.046  11.605  0.00  0.00    +0.000 N 
ATOM     12  H   UNL     1      43.764   3.721  11.991  0.00  0.00    +0.000 HD
BRANCH  11  13
ATOM     13  C   UNL     1      45.401   3.114  10.741  0.00  0.00    +0.000 C 
BRANCH  13  14
ATOM     14  C   UNL     1      44.699   2.737   9.409  0.00  0.00    +0.000 C 
ATOM     15  F   UNL     1      43.919   1.638   9.625  0.00  0.00    +0.000 F 
ATOM     16  F   UNL     1      43.821   3.741   9.099  0.00  0.00    +0.000 F 
BRANCH  14  17
ATOM     17  C   UNL     1      45.700   2.518   8.297  0.00  0.00    +0.000 A 
ATOM     18  C   UNL     1      46.062   3.554   7.429  0.00  0.00    +0.000 A 
ATOM     19  C   UNL     1      46.986   3.326   6.410  0.00  0.00    +0.000 A 
ATOM     20  C   UNL     1      47.530   2.061   6.291  0.00  0.00    +0.000 A 
ATOM     21  N   UNL     1      47.214   1.036   7.112  0.00  0.00    +0.000 NA
ATOM     22  C   UNL     1      46.305   1.282   8.087  0.00  0.00    +0.000 A 
ENDBRANCH  14  17
ENDBRANCH  13  14
ENDBRANCH  11  13
ENDBRANCH   3  11
BRANCH   6  23
ATOM     23  C   UNL     1      45.995   9.538  12.002  0.00  0.00    +0.000 C 
ATOM     24  N   UNL     1      46.286  10.645  12.151  0.00  0.00    +0.000 NA
ENDBRANCH   6  23
TORSDOF 6
ENDMDL
MODEL 5
REMARK VINA RESULT:    -6.523      2.650      3.669
REMARK INTER + INTRA:          -9.317
REMARK INTER:                  -9.141
REMARK INTRA:                  -0.176
REMARK UNBOUND:                -0.506
REMARK  Name = 
REMARK  7 active torsions:
REMARK  status: ('A' for Active; 'I' for Inactive)
REMARK    1  A    between atoms: C_1  and  S_2
REMARK    2  A    between atoms: S_2  and  C_5
REMARK    3  A    between atoms: C_7  and  N_8
REMARK    4  A    between atoms: N_8  and  C_9
REMARK    5  A    between atoms: C_9  and  C_10
REMARK    6  A    between atoms: C_10  and  C_13
REMARK    7  A    between atoms: C_21  and  C_22
REMARK                            x       y       z     vdW  Elec       q    Type
REMARK                         _______ _______ _______ _____ _____    ______ ____
ROOT
ATOM      1  C   UNL     1      47.539   4.905  15.911  0.00  0.00    +0.000 A 
ATOM      2  C   UNL     1      46.792   4.324  14.862  0.00  0.00    +0.000 A 
ATOM      3  C   UNL     1      46.802   4.870  13.572  0.00  0.00    +0.000 A 
ATOM      4  C   UNL     1      47.616   5.987  13.356  0.00  0.00    +0.000 A 
ATOM      5  C   UNL     1      48.363   6.566  14.385  0.00  0.00    +0.000 A 
ATOM      6  C   UNL     1      48.328   6.036  15.677  0.00  0.00    +0.000 A 
ENDROOT
BRANCH   1   8
ATOM      7  C   UNL     1      49.170   3.564  17.794  0.00  0.00    +0.000 C 
ATOM      8  S   UNL     1      47.509   4.112  17.505  0.00  0.00    +0.000 S 
ATOM      9  O   UNL     1      46.643   2.959  17.378  0.00  0.00    +0.000 OA
ATOM     10  O   UNL     1      47.228   5.138  18.494  0.00  0.00    +0.000 OA
ENDBRANCH   1   8
BRANCH   3  11
ATOM     11  N   UNL     1      46.078   4.272  12.555  0.00  0.00    +0.000 N 
ATOM     12  H   UNL     1      46.558   3.664  11.892  0.00  0.00    +0.000 HD
BRANCH  11  13
ATOM     13  C   UNL     1      44.602   4.277  12.532  0.00  0.00    +0.000 C 
BRANCH  13  14
ATOM     14  C   UNL     1      43.964   4.702  11.182  0.00  0.00    +0.000 C 
ATOM     15  F   UNL     1      42.628   4.421  11.225  0.00  0.00    +0.000 F 
ATOM     16  F   UNL     1      44.037   6.067  11.094  0.00  0.00    +0.000 F 
BRANCH  14  17
ATOM     17  C   UNL     1      44.650   4.036  10.011  0.00  0.00    +0.000 A 
ATOM     18  C   UNL     1      44.598   2.650   9.829  0.00  0.00    +0.000 A 
ATOM     19  C   UNL     1      45.242   2.059   8.742  0.00  0.00    +0.000 A 
ATOM     20  C   UNL     1      45.919   2.879   7.858  0.00  0.00    +0.000 A 
ATOM     21  N   UNL     1      45.987   4.221   7.993  0.00  0.00    +0.000 NA
ATOM     22  C   UNL     1      45.362   4.768   9.064  0.00  0.00    +0.000 A 
ENDBRANCH  14  17
ENDBRANCH  13  14
ENDBRANCH  11  13
ENDBRANCH   3  11
BRANCH   6  23
ATOM     23  C   UNL     1      49.077   6.734  16.686  0.00  0.00    +0.000 C 
ATOM     24  N   UNL     1      49.665   7.215  17.557  0.00  0.00    +0.000 NA
ENDBRANCH   6  23
TORSDOF 6
ENDMDL
MODEL 6
REMARK VINA RESULT:    -6.297      1.852      2.626
REMARK INTER + INTRA:          -9.012
REMARK INTER:                  -9.238
REMARK INTRA:                   0.226
REMARK UNBOUND:                -0.506
REMARK  Name = 
REMARK  7 active torsions:
REMARK  status: ('A' for Active; 'I' for Inactive)
REMARK    1  A    between atoms: C_1  and  S_2
REMARK    2  A    between atoms: S_2  and  C_5
REMARK    3  A    between atoms: C_7  and  N_8
REMARK    4  A    between atoms: N_8  and  C_9
REMARK    5  A    between atoms: C_9  and  C_10
REMARK    6  A    between atoms: C_10  and  C_13
REMARK    7  A    between atoms: C_21  and  C_22
REMARK                            x       y       z     vdW  Elec       q    Type
REMARK                         _______ _______ _______ _____ _____    ______ ____
ROOT
ATOM      1  C   UNL     1      46.312   5.577  13.383  0.00  0.00    +0.000 A 
ATOM      2  C   UNL     1      45.436   4.742  12.654  0.00  0.00    +0.000 A 
ATOM      3  C   UNL     1      44.510   5.275  11.748  0.00  0.00    +0.000 A 
ATOM      4  C   UNL     1      44.521   6.662  11.562  0.00  0.00    +0.000 A 
ATOM      5  C   UNL     1      45.388   7.495  12.274  0.00  0.00    +0.000 A 
ATOM      6  C   UNL     1      46.289   6.963  13.199  0.00  0.00    +0.000 A 
ENDROOT
BRANCH   1   8
ATOM      7  C   UNL     1      46.669   4.661  16.037  0.00  0.00    +0.000 C 
ATOM      8  S   UNL     1      47.492   4.808  14.473  0.00  0.00    +0.000 S 
ATOM      9  O   UNL     1      48.599   5.733  14.605  0.00  0.00    +0.000 OA
ATOM     10  O   UNL     1      47.715   3.458  13.988  0.00  0.00    +0.000 OA
ENDBRANCH   1   8
BRANCH   3  11
ATOM     11  N   UNL     1      43.674   4.437  11.029  0.00  0.00    +0.000 N 
ATOM     12  H   UNL     1      42.676   4.637  10.995  0.00  0.00    +0.000 HD
BRANCH  11  13
ATOM     13  C   UNL     1      44.197   3.409  10.107  0.00  0.00    +0.000 C 
BRANCH  13  14
ATOM     14  C   UNL     1      44.871   3.957   8.820  0.00  0.00    +0.000 C 
ATOM     15  F   UNL     1      43.897   4.434   7.991  0.00  0.00    +0.000 F 
ATOM     16  F   UNL     1      45.610   5.056   9.169  0.00  0.00    +0.000 F 
BRANCH  14  17
ATOM     17  C   UNL     1      45.728   2.906   8.152  0.00  0.00    +0.000 A 
ATOM     18  C   UNL     1      46.598   3.234   7.106  0.00  0.00    +0.000 A 
ATOM     19  C   UNL     1      47.376   2.246   6.503  0.00  0.00    +0.000 A 
ATOM     20  C   UNL     1      47.264   0.950   6.971  0.00  0.00    +0.000 A 
ATOM     21  N   UNL     1      46.443   0.593   7.982  0.00  0.00    +0.000 NA
ATOM     22  C   UNL     1      45.690   1.571   8.543  0.00  0.00    +0.000 A 
ENDBRANCH  14  17
ENDBRANCH  13  14
ENDBRANCH  11  13
ENDBRANCH   3  11
BRANCH   6  23
ATOM     23  C   UNL     1      47.098   7.899  13.932  0.00  0.00    +0.000 C 
ATOM     24  N   UNL     1      47.676   8.719  14.504  0.00  0.00    +0.000 NA
ENDBRANCH   6  23
TORSDOF 6
ENDMDL
MODEL 7
REMARK VINA RESULT:    -6.295      1.869      2.686
REMARK INTER + INTRA:          -9.010
REMARK INTER:                  -8.486
REMARK INTRA:                  -0.523
REMARK UNBOUND:                -0.506
REMARK  Name = 
REMARK  7 active torsions:
REMARK  status: ('A' for Active; 'I' for Inactive)
REMARK    1  A    between atoms: C_1  and  S_2
REMARK    2  A    between atoms: S_2  and  C_5
REMARK    3  A    between atoms: C_7  and  N_8
REMARK    4  A    between atoms: N_8  and  C_9
REMARK    5  A    between atoms: C_9  and  C_10
REMARK    6  A    between atoms: C_10  and  C_13
REMARK    7  A    between atoms: C_21  and  C_22
REMARK                            x       y       z     vdW  Elec       q    Type
REMARK                         _______ _______ _______ _____ _____    ______ ____
ROOT
ATOM      1  C   UNL     1      48.257   6.589  14.268  0.00  0.00    +0.000 A 
ATOM      2  C   UNL     1      47.317   5.839  13.527  0.00  0.00    +0.000 A 
ATOM      3  C   UNL     1      46.739   4.675  14.050  0.00  0.00    +0.000 A 
ATOM      4  C   UNL     1      47.099   4.311  15.352  0.00  0.00    +0.000 A 
ATOM      5  C   UNL     1      48.024   5.049  16.095  0.00  0.00    +0.000 A 
ATOM      6  C   UNL     1      48.620   6.193  15.560  0.00  0.00    +0.000 A 
ENDROOT
BRANCH   1   8
ATOM      7  C   UNL     1      48.256   8.127  11.893  0.00  0.00    +0.000 C 
ATOM      8  S   UNL     1      48.898   8.084  13.545  0.00  0.00    +0.000 S 
ATOM      9  O   UNL     1      50.337   7.935  13.491  0.00  0.00    +0.000 OA
ATOM     10  O   UNL     1      48.301   9.200  14.257  0.00  0.00    +0.000 OA
ENDBRANCH   1   8
BRANCH   3  11
ATOM     11  N   UNL     1      45.804   3.967  13.314  0.00  0.00    +0.000 N 
ATOM     12  H   UNL     1      45.738   2.957  13.430  0.00  0.00    +0.000 HD
BRANCH  11  13
ATOM     13  C   UNL     1      44.733   4.639  12.551  0.00  0.00    +0.000 C 
BRANCH  13  14
ATOM     14  C   UNL     1      43.987   3.739  11.529  0.00  0.00    +0.000 C 
ATOM     15  F   UNL     1      43.813   2.504  12.085  0.00  0.00    +0.000 F 
ATOM     16  F   UNL     1      42.722   4.241  11.374  0.00  0.00    +0.000 F 
BRANCH  14  17
ATOM     17  C   UNL     1      44.720   3.674  10.208  0.00  0.00    +0.000 A 
ATOM     18  C   UNL     1      44.921   2.457   9.547  0.00  0.00    +0.000 A 
ATOM     19  C   UNL     1      45.603   2.423   8.332  0.00  0.00    +0.000 A 
ATOM     20  C   UNL     1      46.062   3.616   7.805  0.00  0.00    +0.000 A 
ATOM     21  N   UNL     1      45.882   4.812   8.406  0.00  0.00    +0.000 NA
ATOM     22  C   UNL     1      45.226   4.815   9.593  0.00  0.00    +0.000 A 
ENDBRANCH  14  17
ENDBRANCH  13  14
ENDBRANCH  11  13
ENDBRANCH   3  11
BRANCH   6  23
ATOM     23  C   UNL     1      49.607   6.853  16.370  0.00  0.00    +0.000 C 
ATOM     24  N   UNL     1      50.423   7.293  17.059  0.00  0.00    +0.000 NA
ENDBRANCH   6  23
TORSDOF 6
ENDMDL
MODEL 8
REMARK VINA RESULT:    -6.214      2.044      3.205
REMARK INTER + INTRA:          -8.899
REMARK INTER:                  -8.319
REMARK INTRA:                  -0.581
REMARK UNBOUND:                -0.506
REMARK  Name = 
REMARK  7 active torsions:
REMARK  status: ('A' for Active; 'I' for Inactive)
REMARK    1  A    between atoms: C_1  and  S_2
REMARK    2  A    between atoms: S_2  and  C_5
REMARK    3  A    between atoms: C_7  and  N_8
REMARK    4  A    between atoms: N_8  and  C_9
REMARK    5  A    between atoms: C_9  and  C_10
REMARK    6  A    between atoms: C_10  and  C_13
REMARK    7  A    between atoms: C_21  and  C_22
REMARK                            x       y       z     vdW  Elec       q    Type
REMARK                         _______ _______ _______ _____ _____    ______ ____
ROOT
ATOM      1  C   UNL     1      48.617   7.052  14.142  0.00  0.00    +0.000 A 
ATOM      2  C   UNL     1      47.466   6.239  14.049  0.00  0.00    +0.000 A 
ATOM      3  C   UNL     1      46.774   6.093  12.839  0.00  0.00    +0.000 A 
ATOM      4  C   UNL     1      47.297   6.749  11.720  0.00  0.00    +0.000 A 
ATOM      5  C   UNL     1      48.439   7.551  11.801  0.00  0.00    +0.000 A 
ATOM      6  C   UNL     1      49.109   7.718  13.015  0.00  0.00    +0.000 A 
ENDROOT
BRANCH   1   8
ATOM      7  C   UNL     1      48.668   5.936  16.742  0.00  0.00    +0.000 C 
ATOM      8  S   UNL     1      49.462   7.137  15.707  0.00  0.00    +0.000 S 
ATOM      9  O   UNL     1      49.217   8.460  16.240  0.00  0.00    +0.000 OA
ATOM     10  O   UNL     1      50.821   6.670  15.492  0.00  0.00    +0.000 OA
ENDBRANCH   1   8
BRANCH   3  11
ATOM     11  N   UNL     1      45.660   5.275  12.766  0.00  0.00    +0.000 N 
ATOM     12  H   UNL     1      45.353   4.774  13.598  0.00  0.00    +0.000 HD
BRANCH  11  13
ATOM     13  C   UNL     1      44.752   5.286  11.601  0.00  0.00    +0.000 C 
BRANCH  13  14
ATOM     14  C   UNL     1      44.374   3.886  11.045  0.00  0.00    +0.000 C 
ATOM     15  F   UNL     1      44.670   2.949  11.993  0.00  0.00    +0.000 F 
ATOM     16  F   UNL     1      43.012   3.841  10.914  0.00  0.00    +0.000 F 
BRANCH  14  17
ATOM     17  C   UNL     1      45.065   3.606   9.730  0.00  0.00    +0.000 A 
ATOM     18  C   UNL     1      45.283   2.297   9.286  0.00  0.00    +0.000 A 
ATOM     19  C   UNL     1      45.925   2.064   8.071  0.00  0.00    +0.000 A 
ATOM     20  C   UNL     1      46.329   3.157   7.325  0.00  0.00    +0.000 A 
ATOM     21  N   UNL     1      46.132   4.435   7.713  0.00  0.00    +0.000 NA
ATOM     22  C   UNL     1      45.515   4.633   8.905  0.00  0.00    +0.000 A 
ENDBRANCH  14  17
ENDBRANCH  13  14
ENDBRANCH  11  13
ENDBRANCH   3  11
BRANCH   6  23
ATOM     23  C   UNL     1      50.235   8.611  13.019  0.00  0.00    +0.000 C 
ATOM     24  N   UNL     1      51.086   9.390  13.078  0.00  0.00    +0.000 NA
ENDBRANCH   6  23
TORSDOF 6
ENDMDL
MODEL 9
REMARK VINA RESULT:    -5.840      3.676      5.154
REMARK INTER + INTRA:          -8.395
REMARK INTER:                  -7.995
REMARK INTRA:                  -0.399
REMARK UNBOUND:                -0.506
REMARK  Name = 
REMARK  7 active torsions:
REMARK  status: ('A' for Active; 'I' for Inactive)
REMARK    1  A    between atoms: C_1  and  S_2
REMARK    2  A    between atoms: S_2  and  C_5
REMARK    3  A    between atoms: C_7  and  N_8
REMARK    4  A    between atoms: N_8  and  C_9
REMARK    5  A    between atoms: C_9  and  C_10
REMARK    6  A    between atoms: C_10  and  C_13
REMARK    7  A    between atoms: C_21  and  C_22
REMARK                            x       y       z     vdW  Elec       q    Type
REMARK                         _______ _______ _______ _____ _____    ______ ____
ROOT
ATOM      1  C   UNL     1      48.185   5.089  16.445  0.00  0.00    +0.000 A 
ATOM      2  C   UNL     1      48.167   5.761  15.203  0.00  0.00    +0.000 A 
ATOM      3  C   UNL     1      48.490   7.120  15.106  0.00  0.00    +0.000 A 
ATOM      4  C   UNL     1      48.875   7.772  16.283  0.00  0.00    +0.000 A 
ATOM      5  C   UNL     1      48.901   7.115  17.516  0.00  0.00    +0.000 A 
ATOM      6  C   UNL     1      48.549   5.767  17.613  0.00  0.00    +0.000 A 
ENDROOT
BRANCH   1   8
ATOM      7  C   UNL     1      49.209   2.570  17.230  0.00  0.00    +0.000 C 
ATOM      8  S   UNL     1      47.811   3.348  16.465  0.00  0.00    +0.000 S 
ATOM      9  O   UNL     1      47.730   2.925  15.083  0.00  0.00    +0.000 OA
ATOM     10  O   UNL     1      46.684   3.157  17.361  0.00  0.00    +0.000 OA
ENDBRANCH   1   8
BRANCH   3  11
ATOM     11  N   UNL     1      48.487   7.754  13.875  0.00  0.00    +0.000 N 
ATOM     12  H   UNL     1      48.988   8.634  13.765  0.00  0.00    +0.000 HD
BRANCH  11  13
ATOM     13  C   UNL     1      47.996   7.089  12.651  0.00  0.00    +0.000 C 
BRANCH  13  14
ATOM     14  C   UNL     1      46.472   7.227  12.390  0.00  0.00    +0.000 C 
ATOM     15  F   UNL     1      45.905   7.861  13.458  0.00  0.00    +0.000 F 
ATOM     16  F   UNL     1      46.303   8.085  11.337  0.00  0.00    +0.000 F 
BRANCH  14  17
ATOM     17  C   UNL     1      45.832   5.885  12.117  0.00  0.00    +0.000 A 
ATOM     18  C   UNL     1      45.476   5.499  10.819  0.00  0.00    +0.000 A 
ATOM     19  C   UNL     1      44.885   4.258  10.593  0.00  0.00    +0.000 A 
ATOM     20  C   UNL     1      44.670   3.428  11.678  0.00  0.00    +0.000 A 
ATOM     21  N   UNL     1      45.005   3.758  12.944  0.00  0.00    +0.000 NA
ATOM     22  C   UNL     1      45.568   4.976  13.138  0.00  0.00    +0.000 A 
ENDBRANCH  14  17
ENDBRANCH  13  14
ENDBRANCH  11  13
ENDBRANCH   3  11
BRANCH   6  23
ATOM     23  C   UNL     1      48.543   5.190  18.930  0.00  0.00    +0.000 C 
ATOM     24  N   UNL     1      48.529   4.819  20.023  0.00  0.00    +0.000 NA
ENDBRANCH   6  23
TORSDOF 6
ENDMDL
