MODEL 1
REMARK VINA RESULT:    -6.232      0.000      0.000
REMARK INTER + INTRA:          -7.939
REMARK INTER:                  -7.507
REMARK INTRA:                  -0.432
REMARK UNBOUND:                -0.432
REMARK  Name = 
REMARK  4 active torsions:
REMARK  status: ('A' for Active; 'I' for Inactive)
REMARK    1  A    between atoms: N_1  and  C_2
REMARK    2  A    between atoms: C_2  and  C_3
REMARK    3  A    between atoms: C_6  and  C_7
REMARK    4  A    between atoms: C_7  and  N_8
REMARK                            x       y       z     vdW  Elec       q    Type
REMARK                         _______ _______ _______ _____ _____    ______ ____
ROOT
ATOM      1  C   UNL     1      44.393   6.449  11.413  0.00  0.00    +0.000 C 
ENDROOT
BRANCH   1   2
ATOM      2  N   UNL     1      44.229   5.001  11.279  0.00  0.00    +0.000 N 
ATOM      3  C   UNL     1      43.493   4.228  12.138  0.00  0.00    +0.000 A 
ATOM      4  C   UNL     1      43.412   2.958  11.624  0.00  0.00    +0.000 A 
ATOM      5  C   UNL     1      44.136   2.946  10.409  0.00  0.00    +0.000 A 
ATOM      6  N   UNL     1      44.267   1.942   9.509  0.00  0.00    +0.000 NA
ATOM      7  C   UNL     1      44.992   2.264   8.409  0.00  0.00    +0.000 A 
ATOM      8  C   UNL     1      45.652   3.470   8.210  0.00  0.00    +0.000 A 
ATOM      9 CL   UNL     1      46.476   3.776   6.732  0.00  0.00    +0.000 Cl
ATOM     10  C   UNL     1      45.588   4.461   9.182  0.00  0.00    +0.000 A 
ATOM     11  C   UNL     1      44.729   4.206  10.266  0.00  0.00    +0.000 A 
ENDBRANCH   1   2
BRANCH   1  15
ATOM     12  C   UNL     1      48.139   7.923  13.210  0.00  0.00    +0.000 C 
ATOM     13  C   UNL     1      46.898   8.814  13.303  0.00  0.00    +0.000 C 
ATOM     14  C   UNL     1      45.810   8.363  12.341  0.00  0.00    +0.000 C 
ATOM     15  C   UNL     1      45.357   6.911  12.544  0.00  0.00    +0.000 C 
ATOM     16  C   UNL     1      46.575   5.960  12.633  0.00  0.00    +0.000 C 
ATOM     17  C   UNL     1      47.710   6.479  13.528  0.00  0.00    +0.000 C 
BRANCH  12  18
ATOM     18  C   UNL     1      48.878   8.008  11.853  0.00  0.00    +0.000 C 
BRANCH  18  19
ATOM     19  N   UNL     1      50.172   7.340  11.833  0.00  0.00    +0.000 NA
ATOM     20  H   UNL     1      50.472   7.115  12.781  0.00  0.00    +0.000 HD
ATOM     21  H   UNL     1      50.110   6.451  11.336  0.00  0.00    +0.000 HD
ENDBRANCH  18  19
ENDBRANCH  12  18
ENDBRANCH   1  15
TORSDOF 4
ENDMDL
MODEL 2
REMARK VINA RESULT:    -5.924      1.391      1.925
REMARK INTER + INTRA:          -7.568
REMARK INTER:                  -7.229
REMARK INTRA:                  -0.339
REMARK UNBOUND:                -0.432
REMARK  Name = 
REMARK  4 active torsions:
REMARK  status: ('A' for Active; 'I' for Inactive)
REMARK    1  A    between atoms: N_1  and  C_2
REMARK    2  A    between atoms: C_2  and  C_3
REMARK    3  A    between atoms: C_6  and  C_7
REMARK    4  A    between atoms: C_7  and  N_8
REMARK                            x       y       z     vdW  Elec       q    Type
REMARK                         _______ _______ _______ _____ _____    ______ ____
ROOT
ATOM      1  C   UNL     1      44.941   7.078  11.712  0.00  0.00    +0.000 C 
ENDROOT
BRANCH   1   2
ATOM      2  N   UNL     1      44.515   5.679  11.756  0.00  0.00    +0.000 N 
ATOM      3  C   UNL     1      43.766   5.134  12.766  0.00  0.00    +0.000 A 
ATOM      4  C   UNL     1      43.406   3.860  12.405  0.00  0.00    +0.000 A 
ATOM      5  C   UNL     1      43.964   3.606  11.131  0.00  0.00    +0.000 A 
ATOM      6  N   UNL     1      43.810   2.519  10.337  0.00  0.00    +0.000 NA
ATOM      7  C   UNL     1      44.441   2.603   9.140  0.00  0.00    +0.000 A 
ATOM      8  C   UNL     1      45.270   3.645   8.743  0.00  0.00    +0.000 A 
ATOM      9 CL   UNL     1      45.949   3.661   7.163  0.00  0.00    +0.000 Cl
ATOM     10  C   UNL     1      45.496   4.713   9.602  0.00  0.00    +0.000 A 
ATOM     11  C   UNL     1      44.744   4.719  10.790  0.00  0.00    +0.000 A 
ENDBRANCH   1   2
BRANCH   1  15
ATOM     12  C   UNL     1      48.864   8.063  13.465  0.00  0.00    +0.000 C 
ATOM     13  C   UNL     1      48.649   6.642  12.939  0.00  0.00    +0.000 C 
ATOM     14  C   UNL     1      47.175   6.344  12.716  0.00  0.00    +0.000 C 
ATOM     15  C   UNL     1      46.480   7.310  11.746  0.00  0.00    +0.000 C 
ATOM     16  C   UNL     1      46.792   8.780  12.113  0.00  0.00    +0.000 C 
ATOM     17  C   UNL     1      48.271   9.044  12.436  0.00  0.00    +0.000 C 
BRANCH  12  18
ATOM     18  C   UNL     1      48.287   8.308  14.879  0.00  0.00    +0.000 C 
BRANCH  18  19
ATOM     19  N   UNL     1      48.504   7.211  15.813  0.00  0.00    +0.000 NA
ATOM     20  H   UNL     1      47.729   6.551  15.774  0.00  0.00    +0.000 HD
ATOM     21  H   UNL     1      49.340   6.684  15.559  0.00  0.00    +0.000 HD
ENDBRANCH  18  19
ENDBRANCH  12  18
ENDBRANCH   1  15
TORSDOF 4
ENDMDL
MODEL 3
REMARK VINA RESULT:    -5.759      2.439      6.322
REMARK INTER + INTRA:          -7.370
REMARK INTER:                  -6.889
REMARK INTRA:                  -0.481
REMARK UNBOUND:                -0.432
REMARK  Name = 
REMARK  4 active torsions:
REMARK  status: ('A' for Active; 'I' for Inactive)
REMARK    1  A    between atoms: N_1  and  C_2
REMARK    2  A    between atoms: C_2  and  C_3
REMARK    3  A    between atoms: C_6  and  C_7
REMARK    4  A    between atoms: C_7  and  N_8
REMARK                            x       y       z     vdW  Elec       q    Type
REMARK                         _______ _______ _______ _____ _____    ______ ____
ROOT
ATOM      1  C   UNL     1      46.048   5.383  12.225  0.00  0.00    +0.000 C 
ENDROOT
BRANCH   1   2
ATOM      2  N   UNL     1      46.082   6.845  12.260  0.00  0.00    +0.000 N 
ATOM      3  C   UNL     1      45.009   7.631  12.589  0.00  0.00    +0.000 A 
ATOM      4  C   UNL     1      45.433   8.933  12.688  0.00  0.00    +0.000 A 
ATOM      5  C   UNL     1      46.817   8.950  12.395  0.00  0.00    +0.000 A 
ATOM      6  N   UNL     1      47.683   9.990  12.448  0.00  0.00    +0.000 NA
ATOM      7  C   UNL     1      48.967   9.669  12.155  0.00  0.00    +0.000 A 
ATOM      8  C   UNL     1      49.403   8.418  11.735  0.00  0.00    +0.000 A 
ATOM      9 CL   UNL     1      51.077   8.126  11.468  0.00  0.00    +0.000 Cl
ATOM     10  C   UNL     1      48.491   7.379  11.594  0.00  0.00    +0.000 A 
ATOM     11  C   UNL     1      47.180   7.649  12.025  0.00  0.00    +0.000 A 
ENDBRANCH   1   2
BRANCH   1  15
ATOM     12  C   UNL     1      44.608   2.856   8.913  0.00  0.00    +0.000 C 
ATOM     13  C   UNL     1      44.103   2.546  10.324  0.00  0.00    +0.000 C 
ATOM     14  C   UNL     1      44.948   3.234  11.385  0.00  0.00    +0.000 C 
ATOM     15  C   UNL     1      45.018   4.760  11.239  0.00  0.00    +0.000 C 
ATOM     16  C   UNL     1      45.358   5.161   9.784  0.00  0.00    +0.000 C 
ATOM     17  C   UNL     1      44.569   4.383   8.720  0.00  0.00    +0.000 C 
BRANCH  12  18
ATOM     18  C   UNL     1      46.012   2.282   8.603  0.00  0.00    +0.000 C 
BRANCH  18  19
ATOM     19  N   UNL     1      46.024   0.855   8.311  0.00  0.00    +0.000 NA
ATOM     20  H   UNL     1      45.077   0.515   8.155  0.00  0.00    +0.000 HD
ATOM     21  H   UNL     1      46.539   0.669   7.450  0.00  0.00    +0.000 HD
ENDBRANCH  18  19
ENDBRANCH  12  18
ENDBRANCH   1  15
TORSDOF 4
ENDMDL
MODEL 4
REMARK VINA RESULT:    -5.673      3.533      5.038
REMARK INTER + INTRA:          -7.266
REMARK INTER:                  -7.004
REMARK INTRA:                  -0.263
REMARK UNBOUND:                -0.432
REMARK  Name = 
REMARK  4 active torsions:
REMARK  status: ('A' for Active; 'I' for Inactive)
REMARK    1  A    between atoms: N_1  and  C_2
REMARK    2  A    between atoms: C_2  and  C_3
REMARK    3  A    between atoms: C_6  and  C_7
REMARK    4  A    between atoms: C_7  and  N_8
REMARK                            x       y       z     vdW  Elec       q    Type
REMARK                         _______ _______ _______ _____ _____    ______ ____
ROOT
ATOM      1  C   UNL     1      47.668   5.594  13.887  0.00  0.00    +0.000 C 
ENDROOT
BRANCH   1   2
ATOM      2  N   UNL     1      46.515   6.275  13.297  0.00  0.00    +0.000 N 
ATOM      3  C   UNL     1      46.447   7.627  13.083  0.00  0.00    +0.000 A 
ATOM      4  C   UNL     1      45.310   7.900  12.365  0.00  0.00    +0.000 A 
ATOM      5  C   UNL     1      44.646   6.672  12.140  0.00  0.00    +0.000 A 
ATOM      6  N   UNL     1      43.531   6.431  11.408  0.00  0.00    +0.000 NA
ATOM      7  C   UNL     1      43.173   5.124  11.344  0.00  0.00    +0.000 A 
ATOM      8  C   UNL     1      43.797   4.088  12.027  0.00  0.00    +0.000 A 
ATOM      9 CL   UNL     1      43.285   2.463  11.797  0.00  0.00    +0.000 Cl
ATOM     10  C   UNL     1      44.884   4.359  12.849  0.00  0.00    +0.000 A 
ATOM     11  C   UNL     1      45.362   5.681  12.823  0.00  0.00    +0.000 A 
ENDBRANCH   1   2
BRANCH   1  15
ATOM     12  C   UNL     1      48.705   3.625  17.692  0.00  0.00    +0.000 C 
ATOM     13  C   UNL     1      48.701   5.155  17.653  0.00  0.00    +0.000 C 
ATOM     14  C   UNL     1      48.696   5.679  16.226  0.00  0.00    +0.000 C 
ATOM     15  C   UNL     1      47.512   5.188  15.381  0.00  0.00    +0.000 C 
ATOM     16  C   UNL     1      47.344   3.655  15.505  0.00  0.00    +0.000 C 
ATOM     17  C   UNL     1      47.454   3.128  16.944  0.00  0.00    +0.000 C 
BRANCH  12  18
ATOM     18  C   UNL     1      49.994   2.982  17.127  0.00  0.00    +0.000 C 
BRANCH  18  19
ATOM     19  N   UNL     1      49.767   1.781  16.333  0.00  0.00    +0.000 NA
ATOM     20  H   UNL     1      50.465   1.704  15.596  0.00  0.00    +0.000 HD
ATOM     21  H   UNL     1      49.867   0.945  16.910  0.00  0.00    +0.000 HD
ENDBRANCH  18  19
ENDBRANCH  12  18
ENDBRANCH   1  15
TORSDOF 4
ENDMDL
MODEL 5
REMARK VINA RESULT:    -5.560      3.463      6.968
REMARK INTER + INTRA:          -7.130
REMARK INTER:                  -6.748
REMARK INTRA:                  -0.382
REMARK UNBOUND:                -0.432
REMARK  Name = 
REMARK  4 active torsions:
REMARK  status: ('A' for Active; 'I' for Inactive)
REMARK    1  A    between atoms: N_1  and  C_2
REMARK    2  A    between atoms: C_2  and  C_3
REMARK    3  A    between atoms: C_6  and  C_7
REMARK    4  A    between atoms: C_7  and  N_8
REMARK                            x       y       z     vdW  Elec       q    Type
REMARK                         _______ _______ _______ _____ _____    ______ ____
ROOT
ATOM      1  C   UNL     1      47.170   5.907  12.568  0.00  0.00    +0.000 C 
ENDROOT
BRANCH   1   2
ATOM      2  N   UNL     1      47.873   6.453  13.730  0.00  0.00    +0.000 N 
ATOM      3  C   UNL     1      48.442   7.699  13.768  0.00  0.00    +0.000 A 
ATOM      4  C   UNL     1      48.860   7.950  15.051  0.00  0.00    +0.000 A 
ATOM      5  C   UNL     1      48.549   6.810  15.828  0.00  0.00    +0.000 A 
ATOM      6  N   UNL     1      48.695   6.626  17.163  0.00  0.00    +0.000 NA
ATOM      7  C   UNL     1      48.250   5.429  17.618  0.00  0.00    +0.000 A 
ATOM      8  C   UNL     1      47.766   4.399  16.821  0.00  0.00    +0.000 A 
ATOM      9 CL   UNL     1      47.163   2.957  17.536  0.00  0.00    +0.000 Cl
ATOM     10  C   UNL     1      47.706   4.563  15.442  0.00  0.00    +0.000 A 
ATOM     11  C   UNL     1      48.028   5.843  14.959  0.00  0.00    +0.000 A 
ENDBRANCH   1   2
BRANCH   1  15
ATOM     12  C   UNL     1      43.003   4.692  11.796  0.00  0.00    +0.000 C 
ATOM     13  C   UNL     1      43.494   4.694  13.246  0.00  0.00    +0.000 C 
ATOM     14  C   UNL     1      45.011   4.766  13.324  0.00  0.00    +0.000 C 
ATOM     15  C   UNL     1      45.617   5.991  12.626  0.00  0.00    +0.000 C 
ATOM     16  C   UNL     1      45.036   6.158  11.201  0.00  0.00    +0.000 C 
ATOM     17  C   UNL     1      43.512   5.980  11.122  0.00  0.00    +0.000 C 
BRANCH  12  18
ATOM     18  C   UNL     1      43.410   3.434  10.993  0.00  0.00    +0.000 C 
BRANCH  18  19
ATOM     19  N   UNL     1      43.037   2.174  11.623  0.00  0.00    +0.000 NA
ATOM     20  H   UNL     1      43.850   1.737  12.054  0.00  0.00    +0.000 HD
ATOM     21  H   UNL     1      42.367   2.334  12.376  0.00  0.00    +0.000 HD
ENDBRANCH  18  19
ENDBRANCH  12  18
ENDBRANCH   1  15
TORSDOF 4
ENDMDL
MODEL 6
REMARK VINA RESULT:    -5.467      2.681      6.702
REMARK INTER + INTRA:          -7.017
REMARK INTER:                  -6.692
REMARK INTRA:                  -0.325
REMARK UNBOUND:                -0.432
REMARK  Name = 
REMARK  4 active torsions:
REMARK  status: ('A' for Active; 'I' for Inactive)
REMARK    1  A    between atoms: N_1  and  C_2
REMARK    2  A    between atoms: C_2  and  C_3
REMARK    3  A    between atoms: C_6  and  C_7
REMARK    4  A    between atoms: C_7  and  N_8
REMARK                            x       y       z     vdW  Elec       q    Type
REMARK                         _______ _______ _______ _____ _____    ______ ____
ROOT
ATOM      1  C   UNL     1      46.878   6.524  11.962  0.00  0.00    +0.000 C 
ENDROOT
BRANCH   1   2
ATOM      2  N   UNL     1      47.315   7.921  11.982  0.00  0.00    +0.000 N 
ATOM      3  C   UNL     1      46.506   8.974  12.318  0.00  0.00    +0.000 A 
ATOM      4  C   UNL     1      47.276  10.108  12.399  0.00  0.00    +0.000 A 
ATOM      5  C   UNL     1      48.605   9.741  12.087  0.00  0.00    +0.000 A 
ATOM      6  N   UNL     1      49.726  10.501  12.119  0.00  0.00    +0.000 NA
ATOM      7  C   UNL     1      50.867   9.835  11.812  0.00  0.00    +0.000 A 
ATOM      8  C   UNL     1      50.933   8.511  11.398  0.00  0.00    +0.000 A 
ATOM      9 CL   UNL     1      52.456   7.765  11.112  0.00  0.00    +0.000 Cl
ATOM     10  C   UNL     1      49.767   7.764  11.280  0.00  0.00    +0.000 A 
ATOM     11  C   UNL     1      48.589   8.387  11.725  0.00  0.00    +0.000 A 
ENDBRANCH   1   2
BRANCH   1  15
ATOM     12  C   UNL     1      43.083   4.308  11.615  0.00  0.00    +0.000 C 
ATOM     13  C   UNL     1      43.146   5.474  12.604  0.00  0.00    +0.000 C 
ATOM     14  C   UNL     1      44.580   5.892  12.887  0.00  0.00    +0.000 C 
ATOM     15  C   UNL     1      45.373   6.299  11.637  0.00  0.00    +0.000 C 
ATOM     16  C   UNL     1      45.219   5.242  10.518  0.00  0.00    +0.000 C 
ATOM     17  C   UNL     1      43.777   4.752  10.314  0.00  0.00    +0.000 C 
BRANCH  12  18
ATOM     18  C   UNL     1      43.685   2.988  12.154  0.00  0.00    +0.000 C 
BRANCH  18  19
ATOM     19  N   UNL     1      43.005   1.786  11.690  0.00  0.00    +0.000 NA
ATOM     20  H   UNL     1      43.670   1.144  11.260  0.00  0.00    +0.000 HD
ATOM     21  H   UNL     1      42.590   1.282  12.474  0.00  0.00    +0.000 HD
ENDBRANCH  18  19
ENDBRANCH  12  18
ENDBRANCH   1  15
TORSDOF 4
ENDMDL
MODEL 7
REMARK VINA RESULT:    -5.449      3.229      6.644
REMARK INTER + INTRA:          -6.996
REMARK INTER:                  -6.549
REMARK INTRA:                  -0.447
REMARK UNBOUND:                -0.432
REMARK  Name = 
REMARK  4 active torsions:
REMARK  status: ('A' for Active; 'I' for Inactive)
REMARK    1  A    between atoms: N_1  and  C_2
REMARK    2  A    between atoms: C_2  and  C_3
REMARK    3  A    between atoms: C_6  and  C_7
REMARK    4  A    between atoms: C_7  and  N_8
REMARK                            x       y       z     vdW  Elec       q    Type
REMARK                         _______ _______ _______ _____ _____    ______ ____
ROOT
ATOM      1  C   UNL     1      46.709   4.374  13.925  0.00  0.00    +0.000 C 
ENDROOT
BRANCH   1   2
ATOM      2  N   UNL     1      47.433   4.964  15.051  0.00  0.00    +0.000 N 
ATOM      3  C   UNL     1      47.364   4.498  16.338  0.00  0.00    +0.000 A 
ATOM      4  C   UNL     1      48.291   5.168  17.096  0.00  0.00    +0.000 A 
ATOM      5  C   UNL     1      48.946   6.090  16.247  0.00  0.00    +0.000 A 
ATOM      6  N   UNL     1      49.989   6.909  16.526  0.00  0.00    +0.000 NA
ATOM      7  C   UNL     1      50.425   7.643  15.472  0.00  0.00    +0.000 A 
ATOM      8  C   UNL     1      49.834   7.670  14.215  0.00  0.00    +0.000 A 
ATOM      9 CL   UNL     1      50.536   8.590  12.944  0.00  0.00    +0.000 Cl
ATOM     10  C   UNL     1      48.707   6.895  13.965  0.00  0.00    +0.000 A 
ATOM     11  C   UNL     1      48.320   6.021  14.996  0.00  0.00    +0.000 A 
ENDBRANCH   1   2
BRANCH   1  15
ATOM     12  C   UNL     1      43.444   5.488  11.179  0.00  0.00    +0.000 C 
ATOM     13  C   UNL     1      43.081   5.150  12.627  0.00  0.00    +0.000 C 
ATOM     14  C   UNL     1      44.221   4.439  13.339  0.00  0.00    +0.000 C 
ATOM     15  C   UNL     1      45.537   5.229  13.361  0.00  0.00    +0.000 C 
ATOM     16  C   UNL     1      45.888   5.756  11.949  0.00  0.00    +0.000 C 
ATOM     17  C   UNL     1      44.700   6.379  11.201  0.00  0.00    +0.000 C 
BRANCH  12  18
ATOM     18  C   UNL     1      43.646   4.250  10.272  0.00  0.00    +0.000 C 
BRANCH  18  19
ATOM     19  N   UNL     1      43.899   4.567   8.873  0.00  0.00    +0.000 NA
ATOM     20  H   UNL     1      43.349   3.963   8.265  0.00  0.00    +0.000 HD
ATOM     21  H   UNL     1      43.609   5.523   8.663  0.00  0.00    +0.000 HD
ENDBRANCH  18  19
ENDBRANCH  12  18
ENDBRANCH   1  15
TORSDOF 4
ENDMDL
MODEL 8
REMARK VINA RESULT:    -5.384      2.633      6.377
REMARK INTER + INTRA:          -6.918
REMARK INTER:                  -6.531
REMARK INTRA:                  -0.387
REMARK UNBOUND:                -0.432
REMARK  Name = 
REMARK  4 active torsions:
REMARK  status: ('A' for Active; 'I' for Inactive)
REMARK    1  A    between atoms: N_1  and  C_2
REMARK    2  A    between atoms: C_2  and  C_3
REMARK    3  A    between atoms: C_6  and  C_7
REMARK    4  A    between atoms: C_7  and  N_8
REMARK                            x       y       z     vdW  Elec       q    Type
REMARK                         _______ _______ _______ _____ _____    ______ ____
ROOT
ATOM      1  C   UNL     1      45.580   4.922  11.566  0.00  0.00    +0.000 C 
ENDROOT
BRANCH   1   2
ATOM      2  N   UNL     1      45.544   6.383  11.635  0.00  0.00    +0.000 N 
ATOM      3  C   UNL     1      44.419   7.135  11.420  0.00  0.00    +0.000 A 
ATOM      4  C   UNL     1      44.700   8.442  11.730  0.00  0.00    +0.000 A 
ATOM      5  C   UNL     1      46.052   8.498  12.139  0.00  0.00    +0.000 A 
ATOM      6  N   UNL     1      46.751   9.556  12.618  0.00  0.00    +0.000 NA
ATOM      7  C   UNL     1      48.028   9.271  12.974  0.00  0.00    +0.000 A 
ATOM      8  C   UNL     1      48.655   8.044  12.795  0.00  0.00    +0.000 A 
ATOM      9 CL   UNL     1      50.259   7.797  13.361  0.00  0.00    +0.000 Cl
ATOM     10  C   UNL     1      47.957   6.990  12.218  0.00  0.00    +0.000 A 
ATOM     11  C   UNL     1      46.592   7.217  11.969  0.00  0.00    +0.000 A 
ENDBRANCH   1   2
BRANCH   1  15
ATOM     12  C   UNL     1      45.332   2.491   7.897  0.00  0.00    +0.000 C 
ATOM     13  C   UNL     1      44.462   2.084   9.088  0.00  0.00    +0.000 C 
ATOM     14  C   UNL     1      44.916   2.761  10.372  0.00  0.00    +0.000 C 
ATOM     15  C   UNL     1      44.923   4.295  10.302  0.00  0.00    +0.000 C 
ATOM     16  C   UNL     1      45.643   4.786   9.024  0.00  0.00    +0.000 C 
ATOM     17  C   UNL     1      45.249   4.021   7.751  0.00  0.00    +0.000 C 
BRANCH  12  18
ATOM     18  C   UNL     1      46.800   2.010   7.992  0.00  0.00    +0.000 C 
BRANCH  18  19
ATOM     19  N   UNL     1      47.179   1.036   6.976  0.00  0.00    +0.000 NA
ATOM     20  H   UNL     1      46.403   0.405   6.781  0.00  0.00    +0.000 HD
ATOM     21  H   UNL     1      47.395   1.503   6.095  0.00  0.00    +0.000 HD
ENDBRANCH  18  19
ENDBRANCH  12  18
ENDBRANCH   1  15
TORSDOF 4
ENDMDL
MODEL 9
REMARK VINA RESULT:    -5.183      3.337      7.147
REMARK INTER + INTRA:          -6.675
REMARK INTER:                  -6.410
REMARK INTRA:                  -0.265
REMARK UNBOUND:                -0.432
REMARK  Name = 
REMARK  4 active torsions:
REMARK  status: ('A' for Active; 'I' for Inactive)
REMARK    1  A    between atoms: N_1  and  C_2
REMARK    2  A    between atoms: C_2  and  C_3
REMARK    3  A    between atoms: C_6  and  C_7
REMARK    4  A    between atoms: C_7  and  N_8
REMARK                            x       y       z     vdW  Elec       q    Type
REMARK                         _______ _______ _______ _____ _____    ______ ____
ROOT
ATOM      1  C   UNL     1      46.972   7.524  12.394  0.00  0.00    +0.000 C 
ENDROOT
BRANCH   1   2
ATOM      2  N   UNL     1      48.408   7.676  12.631  0.00  0.00    +0.000 N 
ATOM      3  C   UNL     1      49.285   8.207  11.722  0.00  0.00    +0.000 A 
ATOM      4  C   UNL     1      50.507   8.358  12.330  0.00  0.00    +0.000 A 
ATOM      5  C   UNL     1      50.380   7.891  13.658  0.00  0.00    +0.000 A 
ATOM      6  N   UNL     1      51.293   7.918  14.659  0.00  0.00    +0.000 NA
ATOM      7  C   UNL     1      50.843   7.435  15.844  0.00  0.00    +0.000 A 
ATOM      8  C   UNL     1      49.597   6.858  16.052  0.00  0.00    +0.000 A 
ATOM      9 CL   UNL     1      49.125   6.353  17.626  0.00  0.00    +0.000 Cl
ATOM     10  C   UNL     1      48.700   6.751  14.996  0.00  0.00    +0.000 A 
ATOM     11  C   UNL     1      49.087   7.369  13.794  0.00  0.00    +0.000 A 
ENDBRANCH   1   2
BRANCH   1  15
ATOM     12  C   UNL     1      44.128   4.247  11.616  0.00  0.00    +0.000 C 
ATOM     13  C   UNL     1      44.963   4.766  10.443  0.00  0.00    +0.000 C 
ATOM     14  C   UNL     1      45.605   6.107  10.763  0.00  0.00    +0.000 C 
ATOM     15  C   UNL     1      46.506   6.091  12.006  0.00  0.00    +0.000 C 
ATOM     16  C   UNL     1      45.787   5.419  13.200  0.00  0.00    +0.000 C 
ATOM     17  C   UNL     1      45.056   4.117  12.838  0.00  0.00    +0.000 C 
BRANCH  12  18
ATOM     18  C   UNL     1      42.885   5.110  11.938  0.00  0.00    +0.000 C 
BRANCH  18  19
ATOM     19  N   UNL     1      42.616   5.265  13.362  0.00  0.00    +0.000 NA
ATOM     20  H   UNL     1      43.260   5.938  13.775  0.00  0.00    +0.000 HD
ATOM     21  H   UNL     1      41.678   5.638  13.512  0.00  0.00    +0.000 HD
ENDBRANCH  18  19
ENDBRANCH  12  18
ENDBRANCH   1  15
TORSDOF 4
ENDMDL
