MODEL 1
REMARK VINA RESULT:    -7.860      0.000      0.000
REMARK INTER + INTRA:         -10.808
REMARK INTER:                 -10.157
REMARK INTRA:                  -0.651
REMARK UNBOUND:                -0.651
REMARK  Name = 
REMARK  6 active torsions:
REMARK  status: ('A' for Active; 'I' for Inactive)
REMARK    1  A    between atoms: C_1  and  C_2
REMARK    2  A    between atoms: C_2  and  C_3
REMARK    3  A    between atoms: C_3  and  N_4
REMARK    4  A    between atoms: C_3  and  C_15
REMARK    5  A    between atoms: N_4  and  C_5
REMARK    6  A    between atoms: C_8  and  C_9
REMARK                            x       y       z     vdW  Elec       q    Type
REMARK                         _______ _______ _______ _____ _____    ______ ____
ROOT
ATOM      1  C   UNL     1      45.117   4.404   9.290  0.00  0.00    +0.000 A 
ATOM      2  N   UNL     1      45.957   4.909   8.356  0.00  0.00    +0.000 NA
ATOM      3  C   UNL     1      46.646   4.039   7.571  0.00  0.00    +0.000 A 
ATOM      4  C   UNL     1      46.564   2.659   7.687  0.00  0.00    +0.000 A 
ATOM      5  C   UNL     1      45.682   2.133   8.625  0.00  0.00    +0.000 A 
ATOM      6  C   UNL     1      44.960   3.011   9.435  0.00  0.00    +0.000 A 
ATOM      7 CL   UNL     1      43.846   2.344  10.577  0.00  0.00    +0.000 Cl
ENDROOT
BRANCH   4   8
ATOM      8  C   UNL     1      47.403   1.815   6.811  0.00  0.00    +0.000 C 
ATOM      9  N   UNL     1      48.450   2.420   6.175  0.00  0.00    +0.000 N 
ATOM     10  O   UNL     1      47.145   0.634   6.631  0.00  0.00    +0.000 OA
ATOM     11  H   UNL     1      48.539   3.423   6.095  0.00  0.00    +0.000 HD
ATOM     12  H   UNL     1      48.945   1.856   5.493  0.00  0.00    +0.000 HD
ENDBRANCH   4   8
BRANCH   1  13
ATOM     13  N   UNL     1      44.505   5.274  10.214  0.00  0.00    +0.000 N 
ATOM     14  H   UNL     1      44.461   6.203   9.803  0.00  0.00    +0.000 HD
BRANCH  13  15
ATOM     15  C   UNL     1      45.092   5.309  11.559  0.00  0.00    +0.000 C 
BRANCH  15  16
ATOM     16  C   UNL     1      45.821   6.640  11.739  0.00  0.00    +0.000 A 
ATOM     17  C   UNL     1      45.084   7.822  11.906  0.00  0.00    +0.000 A 
ATOM     18  C   UNL     1      45.734   9.045  12.083  0.00  0.00    +0.000 A 
ATOM     19  C   UNL     1      47.126   9.100  12.111  0.00  0.00    +0.000 A 
ATOM     20  C   UNL     1      47.873   7.935  11.961  0.00  0.00    +0.000 A 
ATOM     21  C   UNL     1      47.225   6.713  11.775  0.00  0.00    +0.000 A 
ENDBRANCH  15  16
BRANCH  15  23
ATOM     22  C   UNL     1      42.576   5.301  12.057  0.00  0.00    +0.000 C 
ATOM     23  C   UNL     1      43.984   5.163  12.624  0.00  0.00    +0.000 C 
ENDBRANCH  15  23
ENDBRANCH  13  15
ENDBRANCH   1  13
TORSDOF 5
ENDMDL
MODEL 2
REMARK VINA RESULT:    -6.542      3.547      6.514
REMARK INTER + INTRA:          -9.105
REMARK INTER:                  -8.449
REMARK INTRA:                  -0.656
REMARK UNBOUND:                -0.651
REMARK  Name = 
REMARK  6 active torsions:
REMARK  status: ('A' for Active; 'I' for Inactive)
REMARK    1  A    between atoms: C_1  and  C_2
REMARK    2  A    between atoms: C_2  and  C_3
REMARK    3  A    between atoms: C_3  and  N_4
REMARK    4  A    between atoms: C_3  and  C_15
REMARK    5  A    between atoms: N_4  and  C_5
REMARK    6  A    between atoms: C_8  and  C_9
REMARK                            x       y       z     vdW  Elec       q    Type
REMARK                         _______ _______ _______ _____ _____    ______ ____
ROOT
ATOM      1  C   UNL     1      46.155   5.554  12.411  0.00  0.00    +0.000 A 
ATOM      2  N   UNL     1      46.050   6.829  11.966  0.00  0.00    +0.000 NA
ATOM      3  C   UNL     1      46.754   7.796  12.611  0.00  0.00    +0.000 A 
ATOM      4  C   UNL     1      47.553   7.563  13.720  0.00  0.00    +0.000 A 
ATOM      5  C   UNL     1      47.688   6.252  14.166  0.00  0.00    +0.000 A 
ATOM      6  C   UNL     1      46.980   5.244  13.511  0.00  0.00    +0.000 A 
ATOM      7 CL   UNL     1      47.179   3.614  14.056  0.00  0.00    +0.000 Cl
ENDROOT
BRANCH   4   8
ATOM      8  C   UNL     1      48.228   8.705  14.370  0.00  0.00    +0.000 C 
ATOM      9  N   UNL     1      47.660   9.203  15.509  0.00  0.00    +0.000 N 
ATOM     10  O   UNL     1      49.231   9.211  13.885  0.00  0.00    +0.000 OA
ATOM     11  H   UNL     1      46.715   8.987  15.791  0.00  0.00    +0.000 HD
ATOM     12  H   UNL     1      48.070  10.054  15.878  0.00  0.00    +0.000 HD
ENDBRANCH   4   8
BRANCH   1  13
ATOM     13  N   UNL     1      45.326   4.557  11.859  0.00  0.00    +0.000 N 
ATOM     14  H   UNL     1      45.860   3.694  11.792  0.00  0.00    +0.000 HD
BRANCH  13  15
ATOM     15  C   UNL     1      44.676   4.886  10.584  0.00  0.00    +0.000 C 
BRANCH  15  16
ATOM     16  C   UNL     1      45.268   3.998   9.491  0.00  0.00    +0.000 A 
ATOM     17  C   UNL     1      45.142   2.603   9.580  0.00  0.00    +0.000 A 
ATOM     18  C   UNL     1      45.667   1.777   8.585  0.00  0.00    +0.000 A 
ATOM     19  C   UNL     1      46.309   2.333   7.481  0.00  0.00    +0.000 A 
ATOM     20  C   UNL     1      46.431   3.715   7.368  0.00  0.00    +0.000 A 
ATOM     21  C   UNL     1      45.915   4.542   8.367  0.00  0.00    +0.000 A 
ENDBRANCH  15  16
BRANCH  15  23
ATOM     22  C   UNL     1      42.492   5.469  11.794  0.00  0.00    +0.000 C 
ATOM     23  C   UNL     1      43.154   4.654  10.691  0.00  0.00    +0.000 C 
ENDBRANCH  15  23
ENDBRANCH  13  15
ENDBRANCH   1  13
TORSDOF 5
ENDMDL
MODEL 3
REMARK VINA RESULT:    -6.526      3.572      6.578
REMARK INTER + INTRA:          -9.085
REMARK INTER:                  -8.421
REMARK INTRA:                  -0.664
REMARK UNBOUND:                -0.651
REMARK  Name = 
REMARK  6 active torsions:
REMARK  status: ('A' for Active; 'I' for Inactive)
REMARK    1  A    between atoms: C_1  and  C_2
REMARK    2  A    between atoms: C_2  and  C_3
REMARK    3  A    between atoms: C_3  and  N_4
REMARK    4  A    between atoms: C_3  and  C_15
REMARK    5  A    between atoms: N_4  and  C_5
REMARK    6  A    between atoms: C_8  and  C_9
REMARK                            x       y       z     vdW  Elec       q    Type
REMARK                         _______ _______ _______ _____ _____    ______ ____
ROOT
ATOM      1  C   UNL     1      45.421   6.320  11.520  0.00  0.00    +0.000 A 
ATOM      2  N   UNL     1      44.381   7.059  11.065  0.00  0.00    +0.000 NA
ATOM      3  C   UNL     1      44.422   8.406  11.240  0.00  0.00    +0.000 A 
ATOM      4  C   UNL     1      45.454   9.072  11.885  0.00  0.00    +0.000 A 
ATOM      5  C   UNL     1      46.539   8.323  12.330  0.00  0.00    +0.000 A 
ATOM      6  C   UNL     1      46.518   6.940  12.151  0.00  0.00    +0.000 A 
ATOM      7 CL   UNL     1      47.886   6.023  12.683  0.00  0.00    +0.000 Cl
ENDROOT
BRANCH   4   8
ATOM      8  C   UNL     1      45.362  10.535  12.063  0.00  0.00    +0.000 C 
ATOM      9  N   UNL     1      46.518  11.205  12.354  0.00  0.00    +0.000 N 
ATOM     10  O   UNL     1      44.289  11.118  11.994  0.00  0.00    +0.000 OA
ATOM     11  H   UNL     1      47.358  10.740  12.668  0.00  0.00    +0.000 HD
ATOM     12  H   UNL     1      46.420  12.187  12.583  0.00  0.00    +0.000 HD
ENDBRANCH   4   8
BRANCH   1  13
ATOM     13  N   UNL     1      45.339   4.914  11.486  0.00  0.00    +0.000 N 
ATOM     14  H   UNL     1      46.271   4.540  11.326  0.00  0.00    +0.000 HD
BRANCH  13  15
ATOM     15  C   UNL     1      44.364   4.343  10.548  0.00  0.00    +0.000 C 
BRANCH  15  16
ATOM     16  C   UNL     1      45.122   3.642   9.422  0.00  0.00    +0.000 A 
ATOM     17  C   UNL     1      45.778   4.404   8.442  0.00  0.00    +0.000 A 
ATOM     18  C   UNL     1      46.485   3.780   7.412  0.00  0.00    +0.000 A 
ATOM     19  C   UNL     1      46.560   2.390   7.357  0.00  0.00    +0.000 A 
ATOM     20  C   UNL     1      45.928   1.619   8.329  0.00  0.00    +0.000 A 
ATOM     21  C   UNL     1      45.213   2.241   9.353  0.00  0.00    +0.000 A 
ENDBRANCH  15  16
BRANCH  15  23
ATOM     22  C   UNL     1      43.479   3.486  12.797  0.00  0.00    +0.000 C 
ATOM     23  C   UNL     1      43.452   3.336  11.281  0.00  0.00    +0.000 C 
ENDBRANCH  15  23
ENDBRANCH  13  15
ENDBRANCH   1  13
TORSDOF 5
ENDMDL
MODEL 4
REMARK VINA RESULT:    -6.091      6.169      7.802
REMARK INTER + INTRA:          -8.522
REMARK INTER:                  -7.772
REMARK INTRA:                  -0.750
REMARK UNBOUND:                -0.651
REMARK  Name = 
REMARK  6 active torsions:
REMARK  status: ('A' for Active; 'I' for Inactive)
REMARK    1  A    between atoms: C_1  and  C_2
REMARK    2  A    between atoms: C_2  and  C_3
REMARK    3  A    between atoms: C_3  and  N_4
REMARK    4  A    between atoms: C_3  and  C_15
REMARK    5  A    between atoms: N_4  and  C_5
REMARK    6  A    between atoms: C_8  and  C_9
REMARK                            x       y       z     vdW  Elec       q    Type
REMARK                         _______ _______ _______ _____ _____    ______ ____
ROOT
ATOM      1  C   UNL     1      47.799   3.891  16.087  0.00  0.00    +0.000 A 
ATOM      2  N   UNL     1      48.115   2.607  15.796  0.00  0.00    +0.000 NA
ATOM      3  C   UNL     1      49.229   2.073  16.363  0.00  0.00    +0.000 A 
ATOM      4  C   UNL     1      50.082   2.773  17.202  0.00  0.00    +0.000 A 
ATOM      5  C   UNL     1      49.749   4.084  17.529  0.00  0.00    +0.000 A 
ATOM      6  C   UNL     1      48.605   4.646  16.963  0.00  0.00    +0.000 A 
ATOM      7 CL   UNL     1      48.185   6.267  17.400  0.00  0.00    +0.000 Cl
ENDROOT
BRANCH   4   8
ATOM      8  C   UNL     1      51.292   2.100  17.717  0.00  0.00    +0.000 C 
ATOM      9  N   UNL     1      51.306   0.733  17.698  0.00  0.00    +0.000 N 
ATOM     10  O   UNL     1      52.227   2.740  18.179  0.00  0.00    +0.000 OA
ATOM     11  H   UNL     1      50.472   0.178  17.569  0.00  0.00    +0.000 HD
ATOM     12  H   UNL     1      52.092   0.288  18.156  0.00  0.00    +0.000 HD
ENDBRANCH   4   8
BRANCH   1  13
ATOM     13  N   UNL     1      46.739   4.516  15.402  0.00  0.00    +0.000 N 
ATOM     14  H   UNL     1      45.894   3.967  15.542  0.00  0.00    +0.000 HD
BRANCH  13  15
ATOM     15  C   UNL     1      46.964   4.800  13.979  0.00  0.00    +0.000 C 
BRANCH  15  16
ATOM     16  C   UNL     1      45.661   4.552  13.219  0.00  0.00    +0.000 A 
ATOM     17  C   UNL     1      44.697   5.568  13.139  0.00  0.00    +0.000 A 
ATOM     18  C   UNL     1      43.506   5.363  12.439  0.00  0.00    +0.000 A 
ATOM     19  C   UNL     1      43.271   4.149  11.799  0.00  0.00    +0.000 A 
ATOM     20  C   UNL     1      44.223   3.135  11.856  0.00  0.00    +0.000 A 
ATOM     21  C   UNL     1      45.410   3.335  12.562  0.00  0.00    +0.000 A 
ENDBRANCH  15  16
BRANCH  15  23
ATOM     22  C   UNL     1      48.228   6.496  12.529  0.00  0.00    +0.000 C 
ATOM     23  C   UNL     1      47.414   6.265  13.797  0.00  0.00    +0.000 C 
ENDBRANCH  15  23
ENDBRANCH  13  15
ENDBRANCH   1  13
TORSDOF 5
ENDMDL
MODEL 5
REMARK VINA RESULT:    -6.018      3.482      6.529
REMARK INTER + INTRA:          -8.428
REMARK INTER:                  -8.400
REMARK INTRA:                  -0.028
REMARK UNBOUND:                -0.651
REMARK  Name = 
REMARK  6 active torsions:
REMARK  status: ('A' for Active; 'I' for Inactive)
REMARK    1  A    between atoms: C_1  and  C_2
REMARK    2  A    between atoms: C_2  and  C_3
REMARK    3  A    between atoms: C_3  and  N_4
REMARK    4  A    between atoms: C_3  and  C_15
REMARK    5  A    between atoms: N_4  and  C_5
REMARK    6  A    between atoms: C_8  and  C_9
REMARK                            x       y       z     vdW  Elec       q    Type
REMARK                         _______ _______ _______ _____ _____    ______ ____
ROOT
ATOM      1  C   UNL     1      45.603   6.697  11.389  0.00  0.00    +0.000 A 
ATOM      2  N   UNL     1      46.663   5.997  11.858  0.00  0.00    +0.000 NA
ATOM      3  C   UNL     1      47.411   6.549  12.849  0.00  0.00    +0.000 A 
ATOM      4  C   UNL     1      47.174   7.803  13.393  0.00  0.00    +0.000 A 
ATOM      5  C   UNL     1      46.070   8.516  12.935  0.00  0.00    +0.000 A 
ATOM      6  C   UNL     1      45.285   7.962  11.924  0.00  0.00    +0.000 A 
ATOM      7 CL   UNL     1      43.899   8.846  11.384  0.00  0.00    +0.000 Cl
ENDROOT
BRANCH   4   8
ATOM      8  C   UNL     1      48.089   8.319  14.430  0.00  0.00    +0.000 C 
ATOM      9  N   UNL     1      47.525   8.940  15.510  0.00  0.00    +0.000 N 
ATOM     10  O   UNL     1      49.303   8.232  14.308  0.00  0.00    +0.000 OA
ATOM     11  H   UNL     1      46.566   9.255  15.524  0.00  0.00    +0.000 HD
ATOM     12  H   UNL     1      48.167   9.386  16.155  0.00  0.00    +0.000 HD
ENDBRANCH   4   8
BRANCH   1  13
ATOM     13  N   UNL     1      44.900   6.220  10.265  0.00  0.00    +0.000 N 
ATOM     14  H   UNL     1      44.244   6.937   9.965  0.00  0.00    +0.000 HD
BRANCH  13  15
ATOM     15  C   UNL     1      44.239   4.918  10.417  0.00  0.00    +0.000 C 
BRANCH  15  16
ATOM     16  C   UNL     1      44.895   3.922   9.461  0.00  0.00    +0.000 A 
ATOM     17  C   UNL     1      45.680   4.391   8.397  0.00  0.00    +0.000 A 
ATOM     18  C   UNL     1      46.296   3.495   7.520  0.00  0.00    +0.000 A 
ATOM     19  C   UNL     1      46.148   2.122   7.705  0.00  0.00    +0.000 A 
ATOM     20  C   UNL     1      45.385   1.640   8.764  0.00  0.00    +0.000 A 
ATOM     21  C   UNL     1      44.761   2.533   9.636  0.00  0.00    +0.000 A 
ENDBRANCH  15  16
BRANCH  15  23
ATOM     22  C   UNL     1      43.149   4.717  12.730  0.00  0.00    +0.000 C 
ATOM     23  C   UNL     1      44.374   4.423  11.873  0.00  0.00    +0.000 C 
ENDBRANCH  15  23
ENDBRANCH  13  15
ENDBRANCH   1  13
TORSDOF 5
ENDMDL
MODEL 6
REMARK VINA RESULT:    -5.999      4.576      7.067
REMARK INTER + INTRA:          -8.404
REMARK INTER:                  -8.085
REMARK INTRA:                  -0.319
REMARK UNBOUND:                -0.651
REMARK  Name = 
REMARK  6 active torsions:
REMARK  status: ('A' for Active; 'I' for Inactive)
REMARK    1  A    between atoms: C_1  and  C_2
REMARK    2  A    between atoms: C_2  and  C_3
REMARK    3  A    between atoms: C_3  and  N_4
REMARK    4  A    between atoms: C_3  and  C_15
REMARK    5  A    between atoms: N_4  and  C_5
REMARK    6  A    between atoms: C_8  and  C_9
REMARK                            x       y       z     vdW  Elec       q    Type
REMARK                         _______ _______ _______ _____ _____    ______ ____
ROOT
ATOM      1  C   UNL     1      46.684   4.451  14.067  0.00  0.00    +0.000 A 
ATOM      2  N   UNL     1      46.711   3.873  15.291  0.00  0.00    +0.000 NA
ATOM      3  C   UNL     1      47.471   4.451  16.259  0.00  0.00    +0.000 A 
ATOM      4  C   UNL     1      48.246   5.584  16.062  0.00  0.00    +0.000 A 
ATOM      5  C   UNL     1      48.201   6.199  14.815  0.00  0.00    +0.000 A 
ATOM      6  C   UNL     1      47.420   5.626  13.811  0.00  0.00    +0.000 A 
ATOM      7 CL   UNL     1      47.350   6.417  12.274  0.00  0.00    +0.000 Cl
ENDROOT
BRANCH   4   8
ATOM      8  C   UNL     1      49.072   6.089  17.178  0.00  0.00    +0.000 C 
ATOM      9  N   UNL     1      48.474   6.943  18.063  0.00  0.00    +0.000 N 
ATOM     10  O   UNL     1      50.253   5.789  17.281  0.00  0.00    +0.000 OA
ATOM     11  H   UNL     1      47.598   7.408  17.871  0.00  0.00    +0.000 HD
ATOM     12  H   UNL     1      49.082   7.368  18.754  0.00  0.00    +0.000 HD
ENDBRANCH   4   8
BRANCH   1  13
ATOM     13  N   UNL     1      46.027   3.796  13.006  0.00  0.00    +0.000 N 
ATOM     14  H   UNL     1      46.730   3.401  12.386  0.00  0.00    +0.000 HD
BRANCH  13  15
ATOM     15  C   UNL     1      45.043   4.592  12.262  0.00  0.00    +0.000 C 
BRANCH  15  16
ATOM     16  C   UNL     1      44.974   4.067  10.828  0.00  0.00    +0.000 A 
ATOM     17  C   UNL     1      45.366   4.892   9.763  0.00  0.00    +0.000 A 
ATOM     18  C   UNL     1      45.320   4.425   8.448  0.00  0.00    +0.000 A 
ATOM     19  C   UNL     1      44.898   3.125   8.182  0.00  0.00    +0.000 A 
ATOM     20  C   UNL     1      44.519   2.288   9.227  0.00  0.00    +0.000 A 
ATOM     21  C   UNL     1      44.555   2.756  10.541  0.00  0.00    +0.000 A 
ENDBRANCH  15  16
BRANCH  15  23
ATOM     22  C   UNL     1      42.581   5.310  12.242  0.00  0.00    +0.000 C 
ATOM     23  C   UNL     1      43.658   4.483  12.934  0.00  0.00    +0.000 C 
ENDBRANCH  15  23
ENDBRANCH  13  15
ENDBRANCH   1  13
TORSDOF 5
ENDMDL
MODEL 7
REMARK VINA RESULT:    -5.835      3.396      4.755
REMARK INTER + INTRA:          -8.191
REMARK INTER:                  -7.322
REMARK INTRA:                  -0.870
REMARK UNBOUND:                -0.651
REMARK  Name = 
REMARK  6 active torsions:
REMARK  status: ('A' for Active; 'I' for Inactive)
REMARK    1  A    between atoms: C_1  and  C_2
REMARK    2  A    between atoms: C_2  and  C_3
REMARK    3  A    between atoms: C_3  and  N_4
REMARK    4  A    between atoms: C_3  and  C_15
REMARK    5  A    between atoms: N_4  and  C_5
REMARK    6  A    between atoms: C_8  and  C_9
REMARK                            x       y       z     vdW  Elec       q    Type
REMARK                         _______ _______ _______ _____ _____    ______ ____
ROOT
ATOM      1  C   UNL     1      46.049   6.080  13.018  0.00  0.00    +0.000 A 
ATOM      2  N   UNL     1      45.257   6.310  11.944  0.00  0.00    +0.000 NA
ATOM      3  C   UNL     1      44.610   5.254  11.383  0.00  0.00    +0.000 A 
ATOM      4  C   UNL     1      44.734   3.946  11.826  0.00  0.00    +0.000 A 
ATOM      5  C   UNL     1      45.524   3.706  12.946  0.00  0.00    +0.000 A 
ATOM      6  C   UNL     1      46.189   4.778  13.540  0.00  0.00    +0.000 A 
ATOM      7 CL   UNL     1      47.145   4.471  14.949  0.00  0.00    +0.000 Cl
ENDROOT
BRANCH   4   8
ATOM      8  C   UNL     1      44.021   2.874  11.102  0.00  0.00    +0.000 C 
ATOM      9  N   UNL     1      44.615   2.377   9.975  0.00  0.00    +0.000 N 
ATOM     10  O   UNL     1      42.925   2.476  11.471  0.00  0.00    +0.000 OA
ATOM     11  H   UNL     1      45.375   2.845   9.503  0.00  0.00    +0.000 HD
ATOM     12  H   UNL     1      44.064   1.725   9.429  0.00  0.00    +0.000 HD
ENDBRANCH   4   8
BRANCH   1  13
ATOM     13  N   UNL     1      46.846   7.124  13.527  0.00  0.00    +0.000 N 
ATOM     14  H   UNL     1      46.281   7.969  13.573  0.00  0.00    +0.000 HD
BRANCH  13  15
ATOM     15  C   UNL     1      48.118   7.367  12.835  0.00  0.00    +0.000 C 
BRANCH  15  16
ATOM     16  C   UNL     1      48.078   8.763  12.215  0.00  0.00    +0.000 A 
ATOM     17  C   UNL     1      49.209   9.265  11.553  0.00  0.00    +0.000 A 
ATOM     18  C   UNL     1      49.186  10.534  10.971  0.00  0.00    +0.000 A 
ATOM     19  C   UNL     1      48.030  11.309  11.028  0.00  0.00    +0.000 A 
ATOM     20  C   UNL     1      46.895  10.821  11.668  0.00  0.00    +0.000 A 
ATOM     21  C   UNL     1      46.919   9.557  12.258  0.00  0.00    +0.000 A 
ENDBRANCH  15  16
BRANCH  15  23
ATOM     22  C   UNL     1      48.967   7.824  15.211  0.00  0.00    +0.000 C 
ATOM     23  C   UNL     1      49.292   7.262  13.832  0.00  0.00    +0.000 C 
ENDBRANCH  15  23
ENDBRANCH  13  15
ENDBRANCH   1  13
TORSDOF 5
ENDMDL
MODEL 8
REMARK VINA RESULT:    -5.718      3.470      4.769
REMARK INTER + INTRA:          -8.040
REMARK INTER:                  -7.204
REMARK INTRA:                  -0.836
REMARK UNBOUND:                -0.651
REMARK  Name = 
REMARK  6 active torsions:
REMARK  status: ('A' for Active; 'I' for Inactive)
REMARK    1  A    between atoms: C_1  and  C_2
REMARK    2  A    between atoms: C_2  and  C_3
REMARK    3  A    between atoms: C_3  and  N_4
REMARK    4  A    between atoms: C_3  and  C_15
REMARK    5  A    between atoms: N_4  and  C_5
REMARK    6  A    between atoms: C_8  and  C_9
REMARK                            x       y       z     vdW  Elec       q    Type
REMARK                         _______ _______ _______ _____ _____    ______ ____
ROOT
ATOM      1  C   UNL     1      46.291   5.778  13.099  0.00  0.00    +0.000 A 
ATOM      2  N   UNL     1      46.456   4.468  13.400  0.00  0.00    +0.000 NA
ATOM      3  C   UNL     1      45.724   3.552  12.712  0.00  0.00    +0.000 A 
ATOM      4  C   UNL     1      44.794   3.878  11.737  0.00  0.00    +0.000 A 
ATOM      5  C   UNL     1      44.639   5.220  11.402  0.00  0.00    +0.000 A 
ATOM      6  C   UNL     1      45.387   6.174  12.092  0.00  0.00    +0.000 A 
ATOM      7 CL   UNL     1      45.207   7.836  11.647  0.00  0.00    +0.000 Cl
ENDROOT
BRANCH   4   8
ATOM      8  C   UNL     1      44.020   2.797  11.094  0.00  0.00    +0.000 C 
ATOM      9  N   UNL     1      44.550   2.232   9.967  0.00  0.00    +0.000 N 
ATOM     10  O   UNL     1      42.931   2.450  11.528  0.00  0.00    +0.000 OA
ATOM     11  H   UNL     1      45.301   2.655   9.441  0.00  0.00    +0.000 HD
ATOM     12  H   UNL     1      43.957   1.573   9.476  0.00  0.00    +0.000 HD
ENDBRANCH   4   8
BRANCH   1  13
ATOM     13  N   UNL     1      46.922   6.756  13.893  0.00  0.00    +0.000 N 
ATOM     14  H   UNL     1      46.556   7.669  13.632  0.00  0.00    +0.000 HD
BRANCH  13  15
ATOM     15  C   UNL     1      48.390   6.746  13.891  0.00  0.00    +0.000 C 
BRANCH  15  16
ATOM     16  C   UNL     1      48.885   7.842  12.948  0.00  0.00    +0.000 A 
ATOM     17  C   UNL     1      48.244   9.090  12.933  0.00  0.00    +0.000 A 
ATOM     18  C   UNL     1      48.690  10.107  12.086  0.00  0.00    +0.000 A 
ATOM     19  C   UNL     1      49.789   9.896  11.258  0.00  0.00    +0.000 A 
ATOM     20  C   UNL     1      50.446   8.669  11.271  0.00  0.00    +0.000 A 
ATOM     21  C   UNL     1      49.996   7.649  12.110  0.00  0.00    +0.000 A 
ENDBRANCH  15  16
BRANCH  15  23
ATOM     22  C   UNL     1      48.540   5.897  16.306  0.00  0.00    +0.000 C 
ATOM     23  C   UNL     1      48.923   6.992  15.318  0.00  0.00    +0.000 C 
ENDBRANCH  15  23
ENDBRANCH  13  15
ENDBRANCH   1  13
TORSDOF 5
ENDMDL
MODEL 9
REMARK VINA RESULT:    -5.441      3.978      5.770
REMARK INTER + INTRA:          -7.683
REMARK INTER:                  -6.825
REMARK INTRA:                  -0.857
REMARK UNBOUND:                -0.651
REMARK  Name = 
REMARK  6 active torsions:
REMARK  status: ('A' for Active; 'I' for Inactive)
REMARK    1  A    between atoms: C_1  and  C_2
REMARK    2  A    between atoms: C_2  and  C_3
REMARK    3  A    between atoms: C_3  and  N_4
REMARK    4  A    between atoms: C_3  and  C_15
REMARK    5  A    between atoms: N_4  and  C_5
REMARK    6  A    between atoms: C_8  and  C_9
REMARK                            x       y       z     vdW  Elec       q    Type
REMARK                         _______ _______ _______ _____ _____    ______ ____
ROOT
ATOM      1  C   UNL     1      47.053   6.044  12.662  0.00  0.00    +0.000 A 
ATOM      2  N   UNL     1      46.442   6.574  11.577  0.00  0.00    +0.000 NA
ATOM      3  C   UNL     1      45.159   6.207  11.317  0.00  0.00    +0.000 A 
ATOM      4  C   UNL     1      44.444   5.297  12.081  0.00  0.00    +0.000 A 
ATOM      5  C   UNL     1      45.056   4.770  13.214  0.00  0.00    +0.000 A 
ATOM      6  C   UNL     1      46.370   5.141  13.502  0.00  0.00    +0.000 A 
ATOM      7 CL   UNL     1      47.109   4.502  14.929  0.00  0.00    +0.000 Cl
ENDROOT
BRANCH   4   8
ATOM      8  C   UNL     1      43.072   4.936  11.669  0.00  0.00    +0.000 C 
ATOM      9  N   UNL     1      42.120   5.915  11.735  0.00  0.00    +0.000 N 
ATOM     10  O   UNL     1      42.792   3.797  11.322  0.00  0.00    +0.000 OA
ATOM     11  H   UNL     1      42.251   6.774  12.249  0.00  0.00    +0.000 HD
ATOM     12  H   UNL     1      41.166   5.623  11.558  0.00  0.00    +0.000 HD
ENDBRANCH   4   8
BRANCH   1  13
ATOM     13  N   UNL     1      48.425   6.289  12.873  0.00  0.00    +0.000 N 
ATOM     14  H   UNL     1      48.748   5.688  13.627  0.00  0.00    +0.000 HD
BRANCH  13  15
ATOM     15  C   UNL     1      48.806   7.688  13.102  0.00  0.00    +0.000 C 
BRANCH  15  16
ATOM     16  C   UNL     1      48.894   7.930  14.608  0.00  0.00    +0.000 A 
ATOM     17  C   UNL     1      48.207   9.011  15.183  0.00  0.00    +0.000 A 
ATOM     18  C   UNL     1      48.268   9.240  16.559  0.00  0.00    +0.000 A 
ATOM     19  C   UNL     1      49.000   8.385  17.379  0.00  0.00    +0.000 A 
ATOM     20  C   UNL     1      49.676   7.300  16.828  0.00  0.00    +0.000 A 
ATOM     21  C   UNL     1      49.624   7.075  15.452  0.00  0.00    +0.000 A 
ENDBRANCH  15  16
BRANCH  15  23
ATOM     22  C   UNL     1      50.163   9.236  11.573  0.00  0.00    +0.000 C 
ATOM     23  C   UNL     1      50.168   7.981  12.437  0.00  0.00    +0.000 C 
ENDBRANCH  15  23
ENDBRANCH  13  15
ENDBRANCH   1  13
TORSDOF 5
ENDMDL
