MODEL 1
REMARK VINA RESULT:    -9.387      0.000      0.000
REMARK INTER + INTRA:         -12.453
REMARK INTER:                 -11.582
REMARK INTRA:                  -0.871
REMARK UNBOUND:                -0.871
REMARK  Name = 
REMARK  4 active torsions:
REMARK  status: ('A' for Active; 'I' for Inactive)
REMARK    1  A    between atoms: C_2  and  C_4
REMARK    2  A    between atoms: N_8  and  C_9
REMARK    3  A    between atoms: C_9  and  C_10
REMARK    4  A    between atoms: C_15  and  C_16
REMARK                            x       y       z     vdW  Elec       q    Type
REMARK                         _______ _______ _______ _____ _____    ______ ____
ROOT
ATOM      1  C   UNL     1      43.595   4.908  11.107  0.00  0.00    +0.000 C 
ENDROOT
BRANCH   1   6
ATOM      2  C   UNL     1      46.377   2.258   7.686  0.00  0.00    +0.000 A 
ATOM      3  C   UNL     1      45.687   1.787   8.798  0.00  0.00    +0.000 A 
ATOM      4  C   UNL     1      44.860   2.660   9.509  0.00  0.00    +0.000 A 
ATOM      5  C   UNL     1      44.748   3.987   9.105  0.00  0.00    +0.000 A 
ATOM      6  N   UNL     1      43.908   4.900   9.695  0.00  0.00    +0.000 N 
ATOM      7  N   UNL     1      45.420   4.454   8.036  0.00  0.00    +0.000 NA
ATOM      8  C   UNL     1      46.223   3.594   7.356  0.00  0.00    +0.000 A 
ATOM      9  H   UNL     1      44.047   5.810   9.266  0.00  0.00    +0.000 HD
BRANCH   2  11
ATOM     10  N   UNL     1      48.354   2.009   6.292  0.00  0.00    +0.000 N 
ATOM     11  C   UNL     1      47.263   1.411   6.862  0.00  0.00    +0.000 C 
ATOM     12  O   UNL     1      47.054   0.213   6.721  0.00  0.00    +0.000 OA
ATOM     13  H   UNL     1      49.006   1.392   5.822  0.00  0.00    +0.000 HD
ATOM     14  H   UNL     1      48.698   2.910   6.589  0.00  0.00    +0.000 HD
ENDBRANCH   2  11
ENDBRANCH   1   6
BRANCH   1  15
ATOM     15  C   UNL     1      44.746   5.264  12.025  0.00  0.00    +0.000 A 
ATOM     16  C   UNL     1      45.142   4.502  13.127  0.00  0.00    +0.000 A 
ATOM     17  C   UNL     1      46.227   4.912  13.895  0.00  0.00    +0.000 A 
ATOM     18  F   UNL     1      46.605   4.169  14.944  0.00  0.00    +0.000 F 
ATOM     19  C   UNL     1      46.932   6.076  13.598  0.00  0.00    +0.000 A 
ATOM     20  C   UNL     1      46.578   6.870  12.498  0.00  0.00    +0.000 A 
ATOM     21  C   UNL     1      45.481   6.434  11.726  0.00  0.00    +0.000 A 
BRANCH  20  22
ATOM     22  C   UNL     1      47.325   8.106  12.153  0.00  0.00    +0.000 A 
ATOM     23  C   UNL     1      46.711   9.373  12.183  0.00  0.00    +0.000 A 
ATOM     24  C   UNL     1      47.416  10.543  11.864  0.00  0.00    +0.000 A 
ATOM     25  C   UNL     1      48.760  10.471  11.520  0.00  0.00    +0.000 A 
ATOM     26  C   UNL     1      49.382   9.232  11.487  0.00  0.00    +0.000 A 
ATOM     27  F   UNL     1      50.679   9.155  11.161  0.00  0.00    +0.000 F 
ATOM     28  C   UNL     1      48.684   8.065  11.790  0.00  0.00    +0.000 A 
ENDBRANCH  20  22
ENDBRANCH   1  15
TORSDOF 4
ENDMDL
MODEL 2
REMARK VINA RESULT:    -8.413      4.152      7.282
REMARK INTER + INTRA:         -11.251
REMARK INTER:                 -10.977
REMARK INTRA:                  -0.275
REMARK UNBOUND:                -0.871
REMARK  Name = 
REMARK  4 active torsions:
REMARK  status: ('A' for Active; 'I' for Inactive)
REMARK    1  A    between atoms: C_2  and  C_4
REMARK    2  A    between atoms: N_8  and  C_9
REMARK    3  A    between atoms: C_9  and  C_10
REMARK    4  A    between atoms: C_15  and  C_16
REMARK                            x       y       z     vdW  Elec       q    Type
REMARK                         _______ _______ _______ _____ _____    ______ ____
ROOT
ATOM      1  C   UNL     1      46.221   7.437  11.760  0.00  0.00    +0.000 C 
ENDROOT
BRANCH   1   6
ATOM      2  C   UNL     1      47.424   4.447  15.770  0.00  0.00    +0.000 A 
ATOM      3  C   UNL     1      46.404   4.284  14.839  0.00  0.00    +0.000 A 
ATOM      4  C   UNL     1      46.350   5.132  13.730  0.00  0.00    +0.000 A 
ATOM      5  C   UNL     1      47.306   6.131  13.578  0.00  0.00    +0.000 A 
ATOM      6  N   UNL     1      47.378   6.965  12.489  0.00  0.00    +0.000 N 
ATOM      7  N   UNL     1      48.291   6.302  14.480  0.00  0.00    +0.000 NA
ATOM      8  C   UNL     1      48.329   5.473  15.556  0.00  0.00    +0.000 A 
ATOM      9  H   UNL     1      48.117   7.646  12.635  0.00  0.00    +0.000 HD
BRANCH   2  11
ATOM     10  N   UNL     1      48.801   3.569  17.571  0.00  0.00    +0.000 N 
ATOM     11  C   UNL     1      47.575   3.593  16.966  0.00  0.00    +0.000 C 
ATOM     12  O   UNL     1      46.633   2.959  17.422  0.00  0.00    +0.000 OA
ATOM     13  H   UNL     1      48.857   3.065  18.449  0.00  0.00    +0.000 HD
ATOM     14  H   UNL     1      49.513   4.261  17.388  0.00  0.00    +0.000 HD
ENDBRANCH   2  11
ENDBRANCH   1   6
BRANCH   1  15
ATOM     15  C   UNL     1      45.316   6.354  11.209  0.00  0.00    +0.000 A 
ATOM     16  C   UNL     1      43.980   6.179  11.577  0.00  0.00    +0.000 A 
ATOM     17  C   UNL     1      43.231   5.161  10.995  0.00  0.00    +0.000 A 
ATOM     18  F   UNL     1      41.948   5.008  11.346  0.00  0.00    +0.000 F 
ATOM     19  C   UNL     1      43.785   4.297  10.052  0.00  0.00    +0.000 A 
ATOM     20  C   UNL     1      45.120   4.437   9.645  0.00  0.00    +0.000 A 
ATOM     21  C   UNL     1      45.860   5.480  10.240  0.00  0.00    +0.000 A 
BRANCH  20  22
ATOM     22  C   UNL     1      45.725   3.539   8.630  0.00  0.00    +0.000 A 
ATOM     23  C   UNL     1      46.337   4.046   7.466  0.00  0.00    +0.000 A 
ATOM     24  C   UNL     1      46.916   3.201   6.509  0.00  0.00    +0.000 A 
ATOM     25  C   UNL     1      46.908   1.825   6.702  0.00  0.00    +0.000 A 
ATOM     26  C   UNL     1      46.313   1.308   7.842  0.00  0.00    +0.000 A 
ATOM     27  F   UNL     1      46.306  -0.017   8.039  0.00  0.00    +0.000 F 
ATOM     28  C   UNL     1      45.723   2.142   8.791  0.00  0.00    +0.000 A 
ENDBRANCH  20  22
ENDBRANCH   1  15
TORSDOF 4
ENDMDL
MODEL 3
REMARK VINA RESULT:    -8.270      5.036      7.984
REMARK INTER + INTRA:         -11.075
REMARK INTER:                 -10.543
REMARK INTRA:                  -0.532
REMARK UNBOUND:                -0.871
REMARK  Name = 
REMARK  4 active torsions:
REMARK  status: ('A' for Active; 'I' for Inactive)
REMARK    1  A    between atoms: C_2  and  C_4
REMARK    2  A    between atoms: N_8  and  C_9
REMARK    3  A    between atoms: C_9  and  C_10
REMARK    4  A    between atoms: C_15  and  C_16
REMARK                            x       y       z     vdW  Elec       q    Type
REMARK                         _______ _______ _______ _____ _____    ______ ____
ROOT
ATOM      1  C   UNL     1      46.155   5.544  13.779  0.00  0.00    +0.000 C 
ENDROOT
BRANCH   1   6
ATOM      2  C   UNL     1      49.499   4.026  17.382  0.00  0.00    +0.000 A 
ATOM      3  C   UNL     1      49.163   5.320  16.998  0.00  0.00    +0.000 A 
ATOM      4  C   UNL     1      48.108   5.514  16.102  0.00  0.00    +0.000 A 
ATOM      5  C   UNL     1      47.419   4.415  15.599  0.00  0.00    +0.000 A 
ATOM      6  N   UNL     1      46.326   4.506  14.771  0.00  0.00    +0.000 N 
ATOM      7  N   UNL     1      47.745   3.158  15.958  0.00  0.00    +0.000 NA
ATOM      8  C   UNL     1      48.775   2.985  16.827  0.00  0.00    +0.000 A 
ATOM      9  H   UNL     1      46.037   3.573  14.492  0.00  0.00    +0.000 HD
BRANCH   2  11
ATOM     10  N   UNL     1      51.291   2.565  18.133  0.00  0.00    +0.000 N 
ATOM     11  C   UNL     1      50.587   3.721  18.333  0.00  0.00    +0.000 C 
ATOM     12  O   UNL     1      50.875   4.485  19.244  0.00  0.00    +0.000 OA
ATOM     13  H   UNL     1      52.100   2.426  18.727  0.00  0.00    +0.000 HD
ATOM     14  H   UNL     1      51.260   2.051  17.264  0.00  0.00    +0.000 HD
ENDBRANCH   2  11
ENDBRANCH   1   6
BRANCH   1  15
ATOM     15  C   UNL     1      45.164   5.231  12.677  0.00  0.00    +0.000 A 
ATOM     16  C   UNL     1      43.807   5.559  12.718  0.00  0.00    +0.000 A 
ATOM     17  C   UNL     1      42.987   5.240  11.640  0.00  0.00    +0.000 A 
ATOM     18  F   UNL     1      41.689   5.568  11.684  0.00  0.00    +0.000 F 
ATOM     19  C   UNL     1      43.484   4.588  10.514  0.00  0.00    +0.000 A 
ATOM     20  C   UNL     1      44.841   4.243  10.423  0.00  0.00    +0.000 A 
ATOM     21  C   UNL     1      45.658   4.583  11.521  0.00  0.00    +0.000 A 
BRANCH  20  22
ATOM     22  C   UNL     1      45.396   3.563   9.226  0.00  0.00    +0.000 A 
ATOM     23  C   UNL     1      45.851   4.290   8.108  0.00  0.00    +0.000 A 
ATOM     24  C   UNL     1      46.383   3.651   6.979  0.00  0.00    +0.000 A 
ATOM     25  C   UNL     1      46.483   2.265   6.948  0.00  0.00    +0.000 A 
ATOM     26  C   UNL     1      46.043   1.534   8.040  0.00  0.00    +0.000 A 
ATOM     27  F   UNL     1      46.142   0.198   8.021  0.00  0.00    +0.000 F 
ATOM     28  C   UNL     1      45.501   2.162   9.160  0.00  0.00    +0.000 A 
ENDBRANCH  20  22
ENDBRANCH   1  15
TORSDOF 4
ENDMDL
MODEL 4
REMARK VINA RESULT:    -8.263      2.206      4.307
REMARK INTER + INTRA:         -11.066
REMARK INTER:                 -10.278
REMARK INTRA:                  -0.788
REMARK UNBOUND:                -0.871
REMARK  Name = 
REMARK  4 active torsions:
REMARK  status: ('A' for Active; 'I' for Inactive)
REMARK    1  A    between atoms: C_2  and  C_4
REMARK    2  A    between atoms: N_8  and  C_9
REMARK    3  A    between atoms: C_9  and  C_10
REMARK    4  A    between atoms: C_15  and  C_16
REMARK                            x       y       z     vdW  Elec       q    Type
REMARK                         _______ _______ _______ _____ _____    ______ ____
ROOT
ATOM      1  C   UNL     1      44.569   5.058  11.573  0.00  0.00    +0.000 C 
ENDROOT
BRANCH   1   6
ATOM      2  C   UNL     1      46.477   2.529   7.519  0.00  0.00    +0.000 A 
ATOM      3  C   UNL     1      46.029   2.016   8.732  0.00  0.00    +0.000 A 
ATOM      4  C   UNL     1      45.399   2.868   9.643  0.00  0.00    +0.000 A 
ATOM      5  C   UNL     1      45.240   4.215   9.332  0.00  0.00    +0.000 A 
ATOM      6  N   UNL     1      44.572   5.113  10.128  0.00  0.00    +0.000 N 
ATOM      7  N   UNL     1      45.679   4.721   8.164  0.00  0.00    +0.000 NA
ATOM      8  C   UNL     1      46.294   3.882   7.289  0.00  0.00    +0.000 A 
ATOM      9  H   UNL     1      44.641   6.040   9.720  0.00  0.00    +0.000 HD
BRANCH   2  11
ATOM     10  N   UNL     1      47.926   2.357   5.574  0.00  0.00    +0.000 N 
ATOM     11  C   UNL     1      47.141   1.707   6.487  0.00  0.00    +0.000 C 
ATOM     12  O   UNL     1      47.027   0.489   6.468  0.00  0.00    +0.000 OA
ATOM     13  H   UNL     1      48.457   1.770   4.943  0.00  0.00    +0.000 HD
ATOM     14  H   UNL     1      48.249   3.304   5.710  0.00  0.00    +0.000 HD
ENDBRANCH   2  11
ENDBRANCH   1   6
BRANCH   1  15
ATOM     15  C   UNL     1      45.816   5.596  12.246  0.00  0.00    +0.000 A 
ATOM     16  C   UNL     1      46.609   6.625  11.731  0.00  0.00    +0.000 A 
ATOM     17  C   UNL     1      47.725   7.056  12.440  0.00  0.00    +0.000 A 
ATOM     18  F   UNL     1      48.474   8.050  11.944  0.00  0.00    +0.000 F 
ATOM     19  C   UNL     1      48.083   6.480  13.657  0.00  0.00    +0.000 A 
ATOM     20  C   UNL     1      47.315   5.449  14.218  0.00  0.00    +0.000 A 
ATOM     21  C   UNL     1      46.182   5.032  13.489  0.00  0.00    +0.000 A 
BRANCH  20  22
ATOM     22  C   UNL     1      47.667   4.832  15.521  0.00  0.00    +0.000 A 
ATOM     23  C   UNL     1      47.335   3.496  15.820  0.00  0.00    +0.000 A 
ATOM     24  C   UNL     1      47.673   2.908  17.046  0.00  0.00    +0.000 A 
ATOM     25  C   UNL     1      48.365   3.643  18.002  0.00  0.00    +0.000 A 
ATOM     26  C   UNL     1      48.702   4.959  17.725  0.00  0.00    +0.000 A 
ATOM     27  F   UNL     1      49.374   5.672  18.638  0.00  0.00    +0.000 F 
ATOM     28  C   UNL     1      48.357   5.553  16.512  0.00  0.00    +0.000 A 
ENDBRANCH  20  22
ENDBRANCH   1  15
TORSDOF 4
ENDMDL
MODEL 5
REMARK VINA RESULT:    -7.965      2.581      3.916
REMARK INTER + INTRA:         -10.699
REMARK INTER:                 -10.061
REMARK INTRA:                  -0.638
REMARK UNBOUND:                -0.871
REMARK  Name = 
REMARK  4 active torsions:
REMARK  status: ('A' for Active; 'I' for Inactive)
REMARK    1  A    between atoms: C_2  and  C_4
REMARK    2  A    between atoms: N_8  and  C_9
REMARK    3  A    between atoms: C_9  and  C_10
REMARK    4  A    between atoms: C_15  and  C_16
REMARK                            x       y       z     vdW  Elec       q    Type
REMARK                         _______ _______ _______ _____ _____    ______ ____
ROOT
ATOM      1  C   UNL     1      43.545   3.557  11.165  0.00  0.00    +0.000 C 
ENDROOT
BRANCH   1   6
ATOM      2  C   UNL     1      46.680   2.494   7.226  0.00  0.00    +0.000 A 
ATOM      3  C   UNL     1      46.425   3.722   7.827  0.00  0.00    +0.000 A 
ATOM      4  C   UNL     1      45.654   3.765   8.992  0.00  0.00    +0.000 A 
ATOM      5  C   UNL     1      45.144   2.586   9.526  0.00  0.00    +0.000 A 
ATOM      6  N   UNL     1      44.439   2.518  10.703  0.00  0.00    +0.000 N 
ATOM      7  N   UNL     1      45.379   1.394   8.945  0.00  0.00    +0.000 NA
ATOM      8  C   UNL     1      46.127   1.367   7.810  0.00  0.00    +0.000 A 
ATOM      9  H   UNL     1      44.123   1.564  10.851  0.00  0.00    +0.000 HD
BRANCH   2  11
ATOM     10  N   UNL     1      47.324   3.278   5.017  0.00  0.00    +0.000 N 
ATOM     11  C   UNL     1      47.494   2.344   6.003  0.00  0.00    +0.000 C 
ATOM     12  O   UNL     1      48.316   1.445   5.886  0.00  0.00    +0.000 OA
ATOM     13  H   UNL     1      47.965   3.222   4.234  0.00  0.00    +0.000 HD
ATOM     14  H   UNL     1      46.862   4.161   5.176  0.00  0.00    +0.000 HD
ENDBRANCH   2  11
ENDBRANCH   1   6
BRANCH   1  15
ATOM     15  C   UNL     1      44.221   4.809  11.687  0.00  0.00    +0.000 A 
ATOM     16  C   UNL     1      43.947   6.102  11.233  0.00  0.00    +0.000 A 
ATOM     17  C   UNL     1      44.614   7.185  11.795  0.00  0.00    +0.000 A 
ATOM     18  F   UNL     1      44.337   8.422  11.361  0.00  0.00    +0.000 F 
ATOM     19  C   UNL     1      45.562   7.016  12.801  0.00  0.00    +0.000 A 
ATOM     20  C   UNL     1      45.866   5.739  13.294  0.00  0.00    +0.000 A 
ATOM     21  C   UNL     1      45.174   4.653  12.719  0.00  0.00    +0.000 A 
BRANCH  20  22
ATOM     22  C   UNL     1      46.861   5.536  14.377  0.00  0.00    +0.000 A 
ATOM     23  C   UNL     1      47.882   6.475  14.629  0.00  0.00    +0.000 A 
ATOM     24  C   UNL     1      48.818   6.290  15.656  0.00  0.00    +0.000 A 
ATOM     25  C   UNL     1      48.747   5.162  16.465  0.00  0.00    +0.000 A 
ATOM     26  C   UNL     1      47.748   4.229  16.234  0.00  0.00    +0.000 A 
ATOM     27  F   UNL     1      47.670   3.142  17.013  0.00  0.00    +0.000 F 
ATOM     28  C   UNL     1      46.822   4.400  15.206  0.00  0.00    +0.000 A 
ENDBRANCH  20  22
ENDBRANCH   1  15
TORSDOF 4
ENDMDL
MODEL 6
REMARK VINA RESULT:    -7.954      2.106      3.013
REMARK INTER + INTRA:         -10.685
REMARK INTER:                 -10.407
REMARK INTRA:                  -0.278
REMARK UNBOUND:                -0.871
REMARK  Name = 
REMARK  4 active torsions:
REMARK  status: ('A' for Active; 'I' for Inactive)
REMARK    1  A    between atoms: C_2  and  C_4
REMARK    2  A    between atoms: N_8  and  C_9
REMARK    3  A    between atoms: C_9  and  C_10
REMARK    4  A    between atoms: C_15  and  C_16
REMARK                            x       y       z     vdW  Elec       q    Type
REMARK                         _______ _______ _______ _____ _____    ______ ____
ROOT
ATOM      1  C   UNL     1      43.489   3.439  11.079  0.00  0.00    +0.000 C 
ENDROOT
BRANCH   1   6
ATOM      2  C   UNL     1      46.693   2.531   7.158  0.00  0.00    +0.000 A 
ATOM      3  C   UNL     1      46.187   3.747   7.603  0.00  0.00    +0.000 A 
ATOM      4  C   UNL     1      45.452   3.787   8.791  0.00  0.00    +0.000 A 
ATOM      5  C   UNL     1      45.226   2.613   9.503  0.00  0.00    +0.000 A 
ATOM      6  N   UNL     1      44.579   2.561  10.713  0.00  0.00    +0.000 N 
ATOM      7  N   UNL     1      45.705   1.430   9.073  0.00  0.00    +0.000 NA
ATOM      8  C   UNL     1      46.414   1.405   7.915  0.00  0.00    +0.000 A 
ATOM      9  H   UNL     1      44.485   1.593  11.002  0.00  0.00    +0.000 HD
BRANCH   2  11
ATOM     10  N   UNL     1      47.324   3.338   4.953  0.00  0.00    +0.000 N 
ATOM     11  C   UNL     1      47.493   2.389   5.924  0.00  0.00    +0.000 C 
ATOM     12  O   UNL     1      48.304   1.483   5.787  0.00  0.00    +0.000 OA
ATOM     13  H   UNL     1      47.956   3.286   4.162  0.00  0.00    +0.000 HD
ATOM     14  H   UNL     1      46.872   4.223   5.128  0.00  0.00    +0.000 HD
ENDBRANCH   2  11
ENDBRANCH   1   6
BRANCH   1  15
ATOM     15  C   UNL     1      43.856   4.900  11.234  0.00  0.00    +0.000 A 
ATOM     16  C   UNL     1      42.993   5.965  10.960  0.00  0.00    +0.000 A 
ATOM     17  C   UNL     1      43.427   7.272  11.154  0.00  0.00    +0.000 A 
ATOM     18  F   UNL     1      42.589   8.286  10.899  0.00  0.00    +0.000 F 
ATOM     19  C   UNL     1      44.713   7.553  11.609  0.00  0.00    +0.000 A 
ATOM     20  C   UNL     1      45.614   6.519  11.905  0.00  0.00    +0.000 A 
ATOM     21  C   UNL     1      45.153   5.200  11.710  0.00  0.00    +0.000 A 
BRANCH  20  22
ATOM     22  C   UNL     1      46.983   6.794  12.407  0.00  0.00    +0.000 A 
ATOM     23  C   UNL     1      47.951   7.431  11.605  0.00  0.00    +0.000 A 
ATOM     24  C   UNL     1      49.242   7.699  12.079  0.00  0.00    +0.000 A 
ATOM     25  C   UNL     1      49.593   7.345  13.376  0.00  0.00    +0.000 A 
ATOM     26  C   UNL     1      48.654   6.720  14.181  0.00  0.00    +0.000 A 
ATOM     27  F   UNL     1      48.982   6.381  15.435  0.00  0.00    +0.000 F 
ATOM     28  C   UNL     1      47.372   6.438  13.711  0.00  0.00    +0.000 A 
ENDBRANCH  20  22
ENDBRANCH   1  15
TORSDOF 4
ENDMDL
MODEL 7
REMARK VINA RESULT:    -7.896      3.933      7.047
REMARK INTER + INTRA:         -10.613
REMARK INTER:                 -10.408
REMARK INTRA:                  -0.205
REMARK UNBOUND:                -0.871
REMARK  Name = 
REMARK  4 active torsions:
REMARK  status: ('A' for Active; 'I' for Inactive)
REMARK    1  A    between atoms: C_2  and  C_4
REMARK    2  A    between atoms: N_8  and  C_9
REMARK    3  A    between atoms: C_9  and  C_10
REMARK    4  A    between atoms: C_15  and  C_16
REMARK                            x       y       z     vdW  Elec       q    Type
REMARK                         _______ _______ _______ _____ _____    ______ ____
ROOT
ATOM      1  C   UNL     1      43.224   6.664  11.032  0.00  0.00    +0.000 C 
ENDROOT
BRANCH   1   6
ATOM      2  C   UNL     1      47.578   7.535  13.632  0.00  0.00    +0.000 A 
ATOM      3  C   UNL     1      46.968   6.320  13.340  0.00  0.00    +0.000 A 
ATOM      4  C   UNL     1      45.866   6.298  12.481  0.00  0.00    +0.000 A 
ATOM      5  C   UNL     1      45.388   7.487  11.940  0.00  0.00    +0.000 A 
ATOM      6  N   UNL     1      44.359   7.560  11.033  0.00  0.00    +0.000 N 
ATOM      7  N   UNL     1      45.967   8.670  12.225  0.00  0.00    +0.000 NA
ATOM      8  C   UNL     1      47.035   8.677  13.065  0.00  0.00    +0.000 A 
ATOM      9  H   UNL     1      44.155   8.535  10.834  0.00  0.00    +0.000 HD
BRANCH   2  11
ATOM     10  N   UNL     1      48.919   8.845  15.180  0.00  0.00    +0.000 N 
ATOM     11  C   UNL     1      48.755   7.660  14.515  0.00  0.00    +0.000 C 
ATOM     12  O   UNL     1      49.534   6.731  14.679  0.00  0.00    +0.000 OA
ATOM     13  H   UNL     1      49.668   8.874  15.862  0.00  0.00    +0.000 HD
ATOM     14  H   UNL     1      48.179   9.524  15.275  0.00  0.00    +0.000 HD
ENDBRANCH   2  11
ENDBRANCH   1   6
BRANCH   1  15
ATOM     15  C   UNL     1      43.563   5.187  10.998  0.00  0.00    +0.000 A 
ATOM     16  C   UNL     1      43.150   4.260  11.958  0.00  0.00    +0.000 A 
ATOM     17  C   UNL     1      43.503   2.922  11.821  0.00  0.00    +0.000 A 
ATOM     18  F   UNL     1      43.093   2.037  12.740  0.00  0.00    +0.000 F 
ATOM     19  C   UNL     1      44.272   2.477  10.747  0.00  0.00    +0.000 A 
ATOM     20  C   UNL     1      44.704   3.368   9.754  0.00  0.00    +0.000 A 
ATOM     21  C   UNL     1      44.329   4.719   9.906  0.00  0.00    +0.000 A 
BRANCH  20  22
ATOM     22  C   UNL     1      45.510   2.914   8.593  0.00  0.00    +0.000 A 
ATOM     23  C   UNL     1      45.921   3.808   7.585  0.00  0.00    +0.000 A 
ATOM     24  C   UNL     1      46.689   3.384   6.491  0.00  0.00    +0.000 A 
ATOM     25  C   UNL     1      47.073   2.053   6.386  0.00  0.00    +0.000 A 
ATOM     26  C   UNL     1      46.679   1.159   7.370  0.00  0.00    +0.000 A 
ATOM     27  F   UNL     1      47.050  -0.125   7.280  0.00  0.00    +0.000 F 
ATOM     28  C   UNL     1      45.905   1.572   8.454  0.00  0.00    +0.000 A 
ENDBRANCH  20  22
ENDBRANCH   1  15
TORSDOF 4
ENDMDL
MODEL 8
REMARK VINA RESULT:    -7.805      4.006      7.039
REMARK INTER + INTRA:         -10.502
REMARK INTER:                  -9.729
REMARK INTRA:                  -0.772
REMARK UNBOUND:                -0.871
REMARK  Name = 
REMARK  4 active torsions:
REMARK  status: ('A' for Active; 'I' for Inactive)
REMARK    1  A    between atoms: C_2  and  C_4
REMARK    2  A    between atoms: N_8  and  C_9
REMARK    3  A    between atoms: C_9  and  C_10
REMARK    4  A    between atoms: C_15  and  C_16
REMARK                            x       y       z     vdW  Elec       q    Type
REMARK                         _______ _______ _______ _____ _____    ______ ____
ROOT
ATOM      1  C   UNL     1      45.973   4.794  14.038  0.00  0.00    +0.000 C 
ENDROOT
BRANCH   1   6
ATOM      2  C   UNL     1      48.534   8.770  12.013  0.00  0.00    +0.000 A 
ATOM      3  C   UNL     1      47.334   8.776  12.716  0.00  0.00    +0.000 A 
ATOM      4  C   UNL     1      46.890   7.596  13.319  0.00  0.00    +0.000 A 
ATOM      5  C   UNL     1      47.644   6.433  13.198  0.00  0.00    +0.000 A 
ATOM      6  N   UNL     1      47.328   5.246  13.812  0.00  0.00    +0.000 N 
ATOM      7  N   UNL     1      48.801   6.417  12.510  0.00  0.00    +0.000 NA
ATOM      8  C   UNL     1      49.219   7.570  11.926  0.00  0.00    +0.000 A 
ATOM      9  H   UNL     1      47.991   4.532  13.525  0.00  0.00    +0.000 HD
BRANCH   2  11
ATOM     10  N   UNL     1      50.446  10.000  11.151  0.00  0.00    +0.000 N 
ATOM     11  C   UNL     1      49.093   9.968  11.354  0.00  0.00    +0.000 C 
ATOM     12  O   UNL     1      48.375  10.882  10.970  0.00  0.00    +0.000 OA
ATOM     13  H   UNL     1      50.797  10.776  10.603  0.00  0.00    +0.000 HD
ATOM     14  H   UNL     1      51.026   9.176  11.212  0.00  0.00    +0.000 HD
ENDBRANCH   2  11
ENDBRANCH   1   6
BRANCH   1  15
ATOM     15  C   UNL     1      45.082   4.776  12.813  0.00  0.00    +0.000 A 
ATOM     16  C   UNL     1      43.798   5.324  12.761  0.00  0.00    +0.000 A 
ATOM     17  C   UNL     1      43.071   5.268  11.577  0.00  0.00    +0.000 A 
ATOM     18  F   UNL     1      41.845   5.807  11.533  0.00  0.00    +0.000 F 
ATOM     19  C   UNL     1      43.589   4.667  10.432  0.00  0.00    +0.000 A 
ATOM     20  C   UNL     1      44.875   4.109  10.431  0.00  0.00    +0.000 A 
ATOM     21  C   UNL     1      45.600   4.183  11.639  0.00  0.00    +0.000 A 
BRANCH  20  22
ATOM     22  C   UNL     1      45.454   3.478   9.218  0.00  0.00    +0.000 A 
ATOM     23  C   UNL     1      45.858   4.245   8.108  0.00  0.00    +0.000 A 
ATOM     24  C   UNL     1      46.411   3.653   6.964  0.00  0.00    +0.000 A 
ATOM     25  C   UNL     1      46.585   2.276   6.910  0.00  0.00    +0.000 A 
ATOM     26  C   UNL     1      46.195   1.504   7.994  0.00  0.00    +0.000 A 
ATOM     27  F   UNL     1      46.364   0.176   7.952  0.00  0.00    +0.000 F 
ATOM     28  C   UNL     1      45.632   2.086   9.129  0.00  0.00    +0.000 A 
ENDBRANCH  20  22
ENDBRANCH   1  15
TORSDOF 4
ENDMDL
MODEL 9
REMARK VINA RESULT:    -7.479      4.627      7.840
REMARK INTER + INTRA:         -10.100
REMARK INTER:                  -9.539
REMARK INTRA:                  -0.560
REMARK UNBOUND:                -0.871
REMARK  Name = 
REMARK  4 active torsions:
REMARK  status: ('A' for Active; 'I' for Inactive)
REMARK    1  A    between atoms: C_2  and  C_4
REMARK    2  A    between atoms: N_8  and  C_9
REMARK    3  A    between atoms: C_9  and  C_10
REMARK    4  A    between atoms: C_15  and  C_16
REMARK                            x       y       z     vdW  Elec       q    Type
REMARK                         _______ _______ _______ _____ _____    ______ ____
ROOT
ATOM      1  C   UNL     1      46.220   7.480  11.814  0.00  0.00    +0.000 C 
ENDROOT
BRANCH   1   6
ATOM      2  C   UNL     1      50.437   7.866  14.735  0.00  0.00    +0.000 A 
ATOM      3  C   UNL     1      50.075   8.623  13.625  0.00  0.00    +0.000 A 
ATOM      4  C   UNL     1      48.804   8.455  13.069  0.00  0.00    +0.000 A 
ATOM      5  C   UNL     1      47.926   7.529  13.622  0.00  0.00    +0.000 A 
ATOM      6  N   UNL     1      46.634   7.345  13.192  0.00  0.00    +0.000 N 
ATOM      7  N   UNL     1      48.271   6.786  14.691  0.00  0.00    +0.000 NA
ATOM      8  C   UNL     1      49.512   6.956  15.219  0.00  0.00    +0.000 A 
ATOM      9  H   UNL     1      46.215   6.577  13.708  0.00  0.00    +0.000 HD
BRANCH   2  11
ATOM     10  N   UNL     1      52.810   7.342  14.817  0.00  0.00    +0.000 N 
ATOM     11  C   UNL     1      51.750   7.981  15.401  0.00  0.00    +0.000 C 
ATOM     12  O   UNL     1      51.897   8.650  16.415  0.00  0.00    +0.000 OA
ATOM     13  H   UNL     1      53.719   7.520  15.226  0.00  0.00    +0.000 HD
ATOM     14  H   UNL     1      52.786   7.006  13.866  0.00  0.00    +0.000 HD
ENDBRANCH   2  11
ENDBRANCH   1   6
BRANCH   1  15
ATOM     15  C   UNL     1      45.321   6.375  11.295  0.00  0.00    +0.000 A 
ATOM     16  C   UNL     1      44.002   6.171  11.707  0.00  0.00    +0.000 A 
ATOM     17  C   UNL     1      43.259   5.135  11.151  0.00  0.00    +0.000 A 
ATOM     18  F   UNL     1      41.991   4.953  11.545  0.00  0.00    +0.000 F 
ATOM     19  C   UNL     1      43.800   4.281  10.193  0.00  0.00    +0.000 A 
ATOM     20  C   UNL     1      45.118   4.450   9.742  0.00  0.00    +0.000 A 
ATOM     21  C   UNL     1      45.853   5.511  10.310  0.00  0.00    +0.000 A 
BRANCH  20  22
ATOM     22  C   UNL     1      45.710   3.563   8.709  0.00  0.00    +0.000 A 
ATOM     23  C   UNL     1      46.309   4.083   7.544  0.00  0.00    +0.000 A 
ATOM     24  C   UNL     1      46.876   3.249   6.571  0.00  0.00    +0.000 A 
ATOM     25  C   UNL     1      46.868   1.870   6.747  0.00  0.00    +0.000 A 
ATOM     26  C   UNL     1      46.284   1.341   7.888  0.00  0.00    +0.000 A 
ATOM     27  F   UNL     1      46.277   0.014   8.069  0.00  0.00    +0.000 F 
ATOM     28  C   UNL     1      45.707   2.164   8.854  0.00  0.00    +0.000 A 
ENDBRANCH  20  22
ENDBRANCH   1  15
TORSDOF 4
ENDMDL
