MODEL 1
REMARK VINA RESULT:    -8.176      0.000      0.000
REMARK INTER + INTRA:         -12.129
REMARK INTER:                 -11.044
REMARK INTRA:                  -1.085
REMARK UNBOUND:                -1.085
REMARK  Name = 
REMARK  7 active torsions:
REMARK  status: ('A' for Active; 'I' for Inactive)
REMARK    1  A    between atoms: C_1  and  N_2
REMARK    2  A    between atoms: N_2  and  C_3
REMARK    3  A    between atoms: C_3  and  C_4
REMARK    4  A    between atoms: C_7  and  C_8
REMARK    5  A    between atoms: C_8  and  N_9
REMARK    6  A    between atoms: C_10  and  C_12
REMARK    7  A    between atoms: C_19  and  C_21
REMARK                            x       y       z     vdW  Elec       q    Type
REMARK                         _______ _______ _______ _____ _____    ______ ____
ROOT
ATOM      1  C   UNL     1      47.519   5.773  13.651  0.00  0.00    +0.000 A 
ATOM      2  C   UNL     1      48.183   6.240  14.796  0.00  0.00    +0.000 A 
ATOM      3  C   UNL     1      48.247   5.455  15.949  0.00  0.00    +0.000 A 
ATOM      4  C   UNL     1      47.656   4.187  15.975  0.00  0.00    +0.000 A 
ATOM      5  C   UNL     1      47.004   3.717  14.826  0.00  0.00    +0.000 A 
ATOM      6  C   UNL     1      46.944   4.498  13.670  0.00  0.00    +0.000 A 
ENDROOT
BRANCH   1   7
ATOM      7  C   UNL     1      47.386   6.654  12.436  0.00  0.00    +0.000 C 
BRANCH   7   9
ATOM      8  C   UNL     1      46.277   8.859  13.042  0.00  0.00    +0.000 C 
ATOM      9  N   UNL     1      46.250   7.575  12.352  0.00  0.00    +0.000 N 
ATOM     10  C   UNL     1      45.128   7.350  11.530  0.00  0.00    +0.000 C 
ATOM     11  O   UNL     1      44.245   8.199  11.422  0.00  0.00    +0.000 OA
BRANCH  10  12
ATOM     12  C   UNL     1      44.984   6.067  10.822  0.00  0.00    +0.000 A 
ATOM     13  C   UNL     1      45.582   5.763   9.610  0.00  0.00    +0.000 A 
ATOM     14  S   UNL     1      45.284   4.170   9.075  0.00  0.00    +0.000 S 
ATOM     15  C   UNL     1      44.477   3.783  10.520  0.00  0.00    +0.000 A 
ATOM     16  N   UNL     1      44.053   2.515  10.765  0.00  0.00    +0.000 NA
ATOM     17  C   UNL     1      43.526   2.352  11.932  0.00  0.00    +0.000 A 
ATOM     18  N   UNL     1      43.347   3.350  12.857  0.00  0.00    +0.000 N 
ATOM     19  C   UNL     1      43.630   4.673  12.595  0.00  0.00    +0.000 A 
ATOM     20  O   UNL     1      43.232   5.566  13.338  0.00  0.00    +0.000 OA
ATOM     21  C   UNL     1      44.346   4.883  11.347  0.00  0.00    +0.000 A 
ATOM     22  H   UNL     1      42.863   3.167  13.724  0.00  0.00    +0.000 HD
ENDBRANCH  10  12
ENDBRANCH   7   9
ENDBRANCH   1   7
BRANCH   4  23
ATOM     23  C   UNL     1      47.673   3.363  17.235  0.00  0.00    +0.000 C 
BRANCH  23  24
ATOM     24  N   UNL     1      49.026   3.048  17.623  0.00  0.00    +0.000 N 
ATOM     25  C   UNL     1      49.787   2.166  16.898  0.00  0.00    +0.000 C 
ATOM     26  O   UNL     1      49.358   1.588  15.905  0.00  0.00    +0.000 OA
ATOM     27  H   UNL     1      49.441   3.557  18.388  0.00  0.00    +0.000 HD
BRANCH  25  28
ATOM     28  C   UNL     1      51.137   1.972  17.383  0.00  0.00    +0.000 A 
ATOM     29  C   UNL     1      52.098   2.855  17.850  0.00  0.00    +0.000 A 
ATOM     30  C   UNL     1      53.253   2.109  18.198  0.00  0.00    +0.000 A 
ATOM     31  C   UNL     1      52.977   0.788  17.944  0.00  0.00    +0.000 A 
ATOM     32  N   UNL     1      51.699   0.712  17.458  0.00  0.00    +0.000 N 
ATOM     33  H   UNL     1      51.213  -0.134  17.186  0.00  0.00    +0.000 HD
ENDBRANCH  25  28
ENDBRANCH  23  24
ENDBRANCH   4  23
TORSDOF 6
ENDMDL
MODEL 2
REMARK VINA RESULT:    -8.126      1.340      2.003
REMARK INTER + INTRA:         -12.062
REMARK INTER:                 -11.394
REMARK INTRA:                  -0.667
REMARK UNBOUND:                -1.085
REMARK  Name = 
REMARK  7 active torsions:
REMARK  status: ('A' for Active; 'I' for Inactive)
REMARK    1  A    between atoms: C_1  and  N_2
REMARK    2  A    between atoms: N_2  and  C_3
REMARK    3  A    between atoms: C_3  and  C_4
REMARK    4  A    between atoms: C_7  and  C_8
REMARK    5  A    between atoms: C_8  and  N_9
REMARK    6  A    between atoms: C_10  and  C_12
REMARK    7  A    between atoms: C_19  and  C_21
REMARK                            x       y       z     vdW  Elec       q    Type
REMARK                         _______ _______ _______ _____ _____    ______ ____
ROOT
ATOM      1  C   UNL     1      47.347   5.630  13.498  0.00  0.00    +0.000 A 
ATOM      2  C   UNL     1      48.076   6.289  14.499  0.00  0.00    +0.000 A 
ATOM      3  C   UNL     1      48.228   5.714  15.762  0.00  0.00    +0.000 A 
ATOM      4  C   UNL     1      47.662   4.466  16.044  0.00  0.00    +0.000 A 
ATOM      5  C   UNL     1      46.944   3.802  15.038  0.00  0.00    +0.000 A 
ATOM      6  C   UNL     1      46.796   4.374  13.772  0.00  0.00    +0.000 A 
ENDROOT
BRANCH   1   7
ATOM      7  C   UNL     1      47.120   6.289  12.162  0.00  0.00    +0.000 C 
BRANCH   7   9
ATOM      8  C   UNL     1      46.110   8.621  12.148  0.00  0.00    +0.000 C 
ATOM      9  N   UNL     1      45.967   7.177  11.999  0.00  0.00    +0.000 N 
ATOM     10  C   UNL     1      44.697   6.732  11.585  0.00  0.00    +0.000 C 
ATOM     11  O   UNL     1      43.787   7.530  11.371  0.00  0.00    +0.000 OA
BRANCH  10  12
ATOM     12  C   UNL     1      44.436   5.290  11.446  0.00  0.00    +0.000 A 
ATOM     13  C   UNL     1      43.666   4.539  12.320  0.00  0.00    +0.000 A 
ATOM     14  S   UNL     1      43.490   2.906  11.854  0.00  0.00    +0.000 S 
ATOM     15  C   UNL     1      44.304   3.185  10.389  0.00  0.00    +0.000 A 
ATOM     16  N   UNL     1      44.408   2.207   9.450  0.00  0.00    +0.000 NA
ATOM     17  C   UNL     1      44.985   2.583   8.358  0.00  0.00    +0.000 A 
ATOM     18  N   UNL     1      45.503   3.835   8.138  0.00  0.00    +0.000 N 
ATOM     19  C   UNL     1      45.547   4.809   9.111  0.00  0.00    +0.000 A 
ATOM     20  O   UNL     1      46.232   5.818   8.967  0.00  0.00    +0.000 OA
ATOM     21  C   UNL     1      44.794   4.475  10.309  0.00  0.00    +0.000 A 
ATOM     22  H   UNL     1      46.004   4.040   7.286  0.00  0.00    +0.000 HD
ENDBRANCH  10  12
ENDBRANCH   7   9
ENDBRANCH   1   7
BRANCH   4  23
ATOM     23  C   UNL     1      47.775   3.870  17.422  0.00  0.00    +0.000 C 
BRANCH  23  24
ATOM     24  N   UNL     1      49.131   3.461  17.694  0.00  0.00    +0.000 N 
ATOM     25  C   UNL     1      49.702   2.405  17.031  0.00  0.00    +0.000 C 
ATOM     26  O   UNL     1      49.093   1.745  16.195  0.00  0.00    +0.000 OA
ATOM     27  H   UNL     1      49.689   4.023  18.318  0.00  0.00    +0.000 HD
BRANCH  25  28
ATOM     28  C   UNL     1      51.079   2.129  17.380  0.00  0.00    +0.000 A 
ATOM     29  C   UNL     1      52.116   2.943  17.808  0.00  0.00    +0.000 A 
ATOM     30  C   UNL     1      53.263   2.133  18.007  0.00  0.00    +0.000 A 
ATOM     31  C   UNL     1      52.907   0.842  17.702  0.00  0.00    +0.000 A 
ATOM     32  N   UNL     1      51.589   0.846  17.330  0.00  0.00    +0.000 N 
ATOM     33  H   UNL     1      51.044   0.038  17.054  0.00  0.00    +0.000 HD
ENDBRANCH  25  28
ENDBRANCH  23  24
ENDBRANCH   4  23
TORSDOF 6
ENDMDL
MODEL 3
REMARK VINA RESULT:    -7.776      3.723      7.956
REMARK INTER + INTRA:         -11.589
REMARK INTER:                 -10.425
REMARK INTRA:                  -1.164
REMARK UNBOUND:                -1.085
REMARK  Name = 
REMARK  7 active torsions:
REMARK  status: ('A' for Active; 'I' for Inactive)
REMARK    1  A    between atoms: C_1  and  N_2
REMARK    2  A    between atoms: N_2  and  C_3
REMARK    3  A    between atoms: C_3  and  C_4
REMARK    4  A    between atoms: C_7  and  C_8
REMARK    5  A    between atoms: C_8  and  N_9
REMARK    6  A    between atoms: C_10  and  C_12
REMARK    7  A    between atoms: C_19  and  C_21
REMARK                            x       y       z     vdW  Elec       q    Type
REMARK                         _______ _______ _______ _____ _____    ______ ____
ROOT
ATOM      1  C   UNL     1      46.524   6.437  13.251  0.00  0.00    +0.000 A 
ATOM      2  C   UNL     1      45.617   6.749  12.227  0.00  0.00    +0.000 A 
ATOM      3  C   UNL     1      44.880   5.742  11.599  0.00  0.00    +0.000 A 
ATOM      4  C   UNL     1      45.032   4.407  11.990  0.00  0.00    +0.000 A 
ATOM      5  C   UNL     1      45.930   4.098  13.022  0.00  0.00    +0.000 A 
ATOM      6  C   UNL     1      46.662   5.105  13.655  0.00  0.00    +0.000 A 
ENDROOT
BRANCH   1   7
ATOM      7  C   UNL     1      47.372   7.516  13.872  0.00  0.00    +0.000 C 
BRANCH   7   9
ATOM      8  C   UNL     1      49.463   7.064  12.501  0.00  0.00    +0.000 C 
ATOM      9  N   UNL     1      48.829   7.420  13.765  0.00  0.00    +0.000 N 
ATOM     10  C   UNL     1      49.709   7.764  14.810  0.00  0.00    +0.000 C 
ATOM     11  O   UNL     1      50.926   7.757  14.638  0.00  0.00    +0.000 OA
BRANCH  10  12
ATOM     12  C   UNL     1      49.172   8.099  16.139  0.00  0.00    +0.000 A 
ATOM     13  C   UNL     1      48.947   9.386  16.599  0.00  0.00    +0.000 A 
ATOM     14  S   UNL     1      48.252   9.450  18.156  0.00  0.00    +0.000 S 
ATOM     15  C   UNL     1      48.082   7.760  18.204  0.00  0.00    +0.000 A 
ATOM     16  N   UNL     1      47.443   7.151  19.238  0.00  0.00    +0.000 NA
ATOM     17  C   UNL     1      47.322   5.873  19.103  0.00  0.00    +0.000 A 
ATOM     18  N   UNL     1      47.819   5.146  18.050  0.00  0.00    +0.000 N 
ATOM     19  C   UNL     1      48.594   5.702  17.056  0.00  0.00    +0.000 A 
ATOM     20  O   UNL     1      49.225   4.996  16.275  0.00  0.00    +0.000 OA
ATOM     21  C   UNL     1      48.645   7.154  17.096  0.00  0.00    +0.000 A 
ATOM     22  H   UNL     1      47.749   4.139  18.044  0.00  0.00    +0.000 HD
ENDBRANCH  10  12
ENDBRANCH   7   9
ENDBRANCH   1   7
BRANCH   4  23
ATOM     23  C   UNL     1      44.283   3.314  11.275  0.00  0.00    +0.000 C 
BRANCH  23  24
ATOM     24  N   UNL     1      45.088   2.747  10.221  0.00  0.00    +0.000 N 
ATOM     25  C   UNL     1      45.015   3.223   8.936  0.00  0.00    +0.000 C 
ATOM     26  O   UNL     1      44.257   4.132   8.612  0.00  0.00    +0.000 OA
ATOM     27  H   UNL     1      45.777   2.050  10.460  0.00  0.00    +0.000 HD
BRANCH  25  28
ATOM     28  C   UNL     1      45.905   2.583   7.990  0.00  0.00    +0.000 A 
ATOM     29  C   UNL     1      46.523   3.035   6.835  0.00  0.00    +0.000 A 
ATOM     30  C   UNL     1      47.294   1.973   6.300  0.00  0.00    +0.000 A 
ATOM     31  C   UNL     1      47.139   0.895   7.137  0.00  0.00    +0.000 A 
ATOM     32  N   UNL     1      46.304   1.271   8.156  0.00  0.00    +0.000 N 
ATOM     33  H   UNL     1      46.009   0.690   8.931  0.00  0.00    +0.000 HD
ENDBRANCH  25  28
ENDBRANCH  23  24
ENDBRANCH   4  23
TORSDOF 6
ENDMDL
MODEL 4
REMARK VINA RESULT:    -7.434      3.263      8.129
REMARK INTER + INTRA:         -11.126
REMARK INTER:                 -10.033
REMARK INTRA:                  -1.093
REMARK UNBOUND:                -1.085
REMARK  Name = 
REMARK  7 active torsions:
REMARK  status: ('A' for Active; 'I' for Inactive)
REMARK    1  A    between atoms: C_1  and  N_2
REMARK    2  A    between atoms: N_2  and  C_3
REMARK    3  A    between atoms: C_3  and  C_4
REMARK    4  A    between atoms: C_7  and  C_8
REMARK    5  A    between atoms: C_8  and  N_9
REMARK    6  A    between atoms: C_10  and  C_12
REMARK    7  A    between atoms: C_19  and  C_21
REMARK                            x       y       z     vdW  Elec       q    Type
REMARK                         _______ _______ _______ _____ _____    ______ ____
ROOT
ATOM      1  C   UNL     1      47.981   6.647  13.995  0.00  0.00    +0.000 A 
ATOM      2  C   UNL     1      47.735   7.642  13.037  0.00  0.00    +0.000 A 
ATOM      3  C   UNL     1      46.787   7.442  12.032  0.00  0.00    +0.000 A 
ATOM      4  C   UNL     1      46.062   6.247  11.972  0.00  0.00    +0.000 A 
ATOM      5  C   UNL     1      46.300   5.258  12.938  0.00  0.00    +0.000 A 
ATOM      6  C   UNL     1      47.243   5.459  13.948  0.00  0.00    +0.000 A 
ENDROOT
BRANCH   1   7
ATOM      7  C   UNL     1      49.058   6.837  15.031  0.00  0.00    +0.000 C 
BRANCH   7   9
ATOM      8  C   UNL     1      48.696   8.997  16.321  0.00  0.00    +0.000 C 
ATOM      9  N   UNL     1      48.729   7.540  16.273  0.00  0.00    +0.000 N 
ATOM     10  C   UNL     1      48.318   6.884  17.451  0.00  0.00    +0.000 C 
ATOM     11  O   UNL     1      47.962   7.524  18.438  0.00  0.00    +0.000 OA
BRANCH  10  12
ATOM     12  C   UNL     1      48.355   5.414  17.521  0.00  0.00    +0.000 A 
ATOM     13  C   UNL     1      47.251   4.589  17.380  0.00  0.00    +0.000 A 
ATOM     14  S   UNL     1      47.622   2.924  17.440  0.00  0.00    +0.000 S 
ATOM     15  C   UNL     1      49.290   3.248  17.499  0.00  0.00    +0.000 A 
ATOM     16  N   UNL     1      50.199   2.239  17.453  0.00  0.00    +0.000 NA
ATOM     17  C   UNL     1      51.427   2.636  17.429  0.00  0.00    +0.000 A 
ATOM     18  N   UNL     1      51.827   3.948  17.488  0.00  0.00    +0.000 N 
ATOM     19  C   UNL     1      50.947   4.991  17.679  0.00  0.00    +0.000 A 
ATOM     20  O   UNL     1      51.348   6.112  17.975  0.00  0.00    +0.000 OA
ATOM     21  C   UNL     1      49.549   4.604  17.580  0.00  0.00    +0.000 A 
ATOM     22  H   UNL     1      52.807   4.184  17.536  0.00  0.00    +0.000 HD
ENDBRANCH  10  12
ENDBRANCH   7   9
ENDBRANCH   1   7
BRANCH   4  23
ATOM     23  C   UNL     1      45.082   6.004  10.855  0.00  0.00    +0.000 C 
BRANCH  23  24
ATOM     24  N   UNL     1      45.669   5.179   9.828  0.00  0.00    +0.000 N 
ATOM     25  C   UNL     1      45.041   4.043   9.383  0.00  0.00    +0.000 C 
ATOM     26  O   UNL     1      43.970   3.659   9.842  0.00  0.00    +0.000 OA
ATOM     27  H   UNL     1      46.509   5.499   9.372  0.00  0.00    +0.000 HD
BRANCH  25  28
ATOM     28  C   UNL     1      45.728   3.333   8.325  0.00  0.00    +0.000 A 
ATOM     29  C   UNL     1      46.165   3.722   7.068  0.00  0.00    +0.000 A 
ATOM     30  C   UNL     1      46.784   2.607   6.449  0.00  0.00    +0.000 A 
ATOM     31  C   UNL     1      46.721   1.561   7.337  0.00  0.00    +0.000 A 
ATOM     32  N   UNL     1      46.087   2.007   8.467  0.00  0.00    +0.000 N 
ATOM     33  H   UNL     1      45.899   1.462   9.300  0.00  0.00    +0.000 HD
ENDBRANCH  25  28
ENDBRANCH  23  24
ENDBRANCH   4  23
TORSDOF 6
ENDMDL
MODEL 5
REMARK VINA RESULT:    -7.312      3.778      8.282
REMARK INTER + INTRA:         -10.962
REMARK INTER:                  -9.757
REMARK INTRA:                  -1.205
REMARK UNBOUND:                -1.085
REMARK  Name = 
REMARK  7 active torsions:
REMARK  status: ('A' for Active; 'I' for Inactive)
REMARK    1  A    between atoms: C_1  and  N_2
REMARK    2  A    between atoms: N_2  and  C_3
REMARK    3  A    between atoms: C_3  and  C_4
REMARK    4  A    between atoms: C_7  and  C_8
REMARK    5  A    between atoms: C_8  and  N_9
REMARK    6  A    between atoms: C_10  and  C_12
REMARK    7  A    between atoms: C_19  and  C_21
REMARK                            x       y       z     vdW  Elec       q    Type
REMARK                         _______ _______ _______ _____ _____    ______ ____
ROOT
ATOM      1  C   UNL     1      47.245   7.441  13.597  0.00  0.00    +0.000 A 
ATOM      2  C   UNL     1      47.247   6.055  13.381  0.00  0.00    +0.000 A 
ATOM      3  C   UNL     1      46.396   5.482  12.433  0.00  0.00    +0.000 A 
ATOM      4  C   UNL     1      45.535   6.287  11.680  0.00  0.00    +0.000 A 
ATOM      5  C   UNL     1      45.542   7.674  11.889  0.00  0.00    +0.000 A 
ATOM      6  C   UNL     1      46.398   8.248  12.832  0.00  0.00    +0.000 A 
ENDROOT
BRANCH   1   7
ATOM      7  C   UNL     1      48.109   8.045  14.674  0.00  0.00    +0.000 C 
BRANCH   7   9
ATOM      8  C   UNL     1      50.533   8.100  13.912  0.00  0.00    +0.000 C 
ATOM      9  N   UNL     1      49.496   7.593  14.803  0.00  0.00    +0.000 N 
ATOM     10  C   UNL     1      49.945   6.749  15.839  0.00  0.00    +0.000 C 
ATOM     11  O   UNL     1      51.137   6.476  15.958  0.00  0.00    +0.000 OA
BRANCH  10  12
ATOM     12  C   UNL     1      48.972   6.150  16.767  0.00  0.00    +0.000 A 
ATOM     13  C   UNL     1      48.438   4.878  16.639  0.00  0.00    +0.000 A 
ATOM     14  S   UNL     1      47.389   4.440  17.913  0.00  0.00    +0.000 S 
ATOM     15  C   UNL     1      47.736   5.873  18.758  0.00  0.00    +0.000 A 
ATOM     16  N   UNL     1      47.241   6.084  20.006  0.00  0.00    +0.000 NA
ATOM     17  C   UNL     1      47.648   7.179  20.556  0.00  0.00    +0.000 A 
ATOM     18  N   UNL     1      48.471   8.098  19.955  0.00  0.00    +0.000 N 
ATOM     19  C   UNL     1      48.879   7.993  18.643  0.00  0.00    +0.000 A 
ATOM     20  O   UNL     1      49.400   8.941  18.063  0.00  0.00    +0.000 OA
ATOM     21  C   UNL     1      48.554   6.716  18.029  0.00  0.00    +0.000 A 
ATOM     22  H   UNL     1      48.694   8.968  20.417  0.00  0.00    +0.000 HD
ENDBRANCH  10  12
ENDBRANCH   7   9
ENDBRANCH   1   7
BRANCH   4  23
ATOM     23  C   UNL     1      44.574   5.667  10.700  0.00  0.00    +0.000 C 
BRANCH  23  24
ATOM     24  N   UNL     1      45.284   4.927   9.685  0.00  0.00    +0.000 N 
ATOM     25  C   UNL     1      44.909   3.652   9.342  0.00  0.00    +0.000 C 
ATOM     26  O   UNL     1      43.975   3.071   9.885  0.00  0.00    +0.000 OA
ATOM     27  H   UNL     1      46.009   5.394   9.163  0.00  0.00    +0.000 HD
BRANCH  25  28
ATOM     28  C   UNL     1      45.688   3.044   8.285  0.00  0.00    +0.000 A 
ATOM     29  C   UNL     1      46.194   3.538   7.092  0.00  0.00    +0.000 A 
ATOM     30  C   UNL     1      46.891   2.491   6.438  0.00  0.00    +0.000 A 
ATOM     31  C   UNL     1      46.805   1.380   7.241  0.00  0.00    +0.000 A 
ATOM     32  N   UNL     1      46.083   1.721   8.354  0.00  0.00    +0.000 N 
ATOM     33  H   UNL     1      45.858   1.111   9.130  0.00  0.00    +0.000 HD
ENDBRANCH  25  28
ENDBRANCH  23  24
ENDBRANCH   4  23
TORSDOF 6
ENDMDL
MODEL 6
REMARK VINA RESULT:    -6.671      4.459      5.818
REMARK INTER + INTRA:         -10.097
REMARK INTER:                  -9.066
REMARK INTRA:                  -1.031
REMARK UNBOUND:                -1.085
REMARK  Name = 
REMARK  7 active torsions:
REMARK  status: ('A' for Active; 'I' for Inactive)
REMARK    1  A    between atoms: C_1  and  N_2
REMARK    2  A    between atoms: N_2  and  C_3
REMARK    3  A    between atoms: C_3  and  C_4
REMARK    4  A    between atoms: C_7  and  C_8
REMARK    5  A    between atoms: C_8  and  N_9
REMARK    6  A    between atoms: C_10  and  C_12
REMARK    7  A    between atoms: C_19  and  C_21
REMARK                            x       y       z     vdW  Elec       q    Type
REMARK                         _______ _______ _______ _____ _____    ______ ____
ROOT
ATOM      1  C   UNL     1      47.675   7.013  12.724  0.00  0.00    +0.000 A 
ATOM      2  C   UNL     1      48.517   7.083  13.844  0.00  0.00    +0.000 A 
ATOM      3  C   UNL     1      49.822   7.564  13.722  0.00  0.00    +0.000 A 
ATOM      4  C   UNL     1      50.306   7.991  12.480  0.00  0.00    +0.000 A 
ATOM      5  C   UNL     1      49.459   7.931  11.364  0.00  0.00    +0.000 A 
ATOM      6  C   UNL     1      48.151   7.457  11.485  0.00  0.00    +0.000 A 
ENDROOT
BRANCH   1   7
ATOM      7  C   UNL     1      46.295   6.422  12.844  0.00  0.00    +0.000 C 
BRANCH   7   9
ATOM      8  C   UNL     1      45.094   8.621  12.418  0.00  0.00    +0.000 C 
ATOM      9  N   UNL     1      45.157   7.169  12.303  0.00  0.00    +0.000 N 
ATOM     10  C   UNL     1      44.124   6.573  11.553  0.00  0.00    +0.000 C 
ATOM     11  O   UNL     1      43.241   7.258  11.040  0.00  0.00    +0.000 OA
BRANCH  10  12
ATOM     12  C   UNL     1      44.071   5.109  11.412  0.00  0.00    +0.000 A 
ATOM     13  C   UNL     1      43.315   4.266  12.209  0.00  0.00    +0.000 A 
ATOM     14  S   UNL     1      43.407   2.622  11.757  0.00  0.00    +0.000 S 
ATOM     15  C   UNL     1      44.336   3.001  10.385  0.00  0.00    +0.000 A 
ATOM     16  N   UNL     1      44.670   2.043   9.481  0.00  0.00    +0.000 NA
ATOM     17  C   UNL     1      45.310   2.488   8.453  0.00  0.00    +0.000 A 
ATOM     18  N   UNL     1      45.682   3.797   8.267  0.00  0.00    +0.000 N 
ATOM     19  C   UNL     1      45.489   4.772   9.222  0.00  0.00    +0.000 A 
ATOM     20  O   UNL     1      46.047   5.862   9.136  0.00  0.00    +0.000 OA
ATOM     21  C   UNL     1      44.658   4.345  10.336  0.00  0.00    +0.000 A 
ATOM     22  H   UNL     1      46.243   4.064   7.472  0.00  0.00    +0.000 HD
ENDBRANCH  10  12
ENDBRANCH   7   9
ENDBRANCH   1   7
BRANCH   4  23
ATOM     23  C   UNL     1      51.731   8.454  12.336  0.00  0.00    +0.000 C 
BRANCH  23  24
ATOM     24  N   UNL     1      52.516   7.481  11.616  0.00  0.00    +0.000 N 
ATOM     25  C   UNL     1      52.845   7.667  10.297  0.00  0.00    +0.000 C 
ATOM     26  O   UNL     1      52.478   8.648   9.659  0.00  0.00    +0.000 OA
ATOM     27  H   UNL     1      52.900   6.699  12.123  0.00  0.00    +0.000 HD
BRANCH  25  28
ATOM     28  C   UNL     1      53.666   6.627   9.713  0.00  0.00    +0.000 A 
ATOM     29  C   UNL     1      53.598   5.950   8.506  0.00  0.00    +0.000 A 
ATOM     30  C   UNL     1      54.671   5.026   8.455  0.00  0.00    +0.000 A 
ATOM     31  C   UNL     1      55.378   5.157   9.626  0.00  0.00    +0.000 A 
ATOM     32  N   UNL     1      54.769   6.127  10.377  0.00  0.00    +0.000 N 
ATOM     33  H   UNL     1      55.067   6.449  11.290  0.00  0.00    +0.000 HD
ENDBRANCH  25  28
ENDBRANCH  23  24
ENDBRANCH   4  23
TORSDOF 6
ENDMDL
MODEL 7
REMARK VINA RESULT:    -6.506      3.789      8.276
REMARK INTER + INTRA:          -9.873
REMARK INTER:                  -8.720
REMARK INTRA:                  -1.153
REMARK UNBOUND:                -1.085
REMARK  Name = 
REMARK  7 active torsions:
REMARK  status: ('A' for Active; 'I' for Inactive)
REMARK    1  A    between atoms: C_1  and  N_2
REMARK    2  A    between atoms: N_2  and  C_3
REMARK    3  A    between atoms: C_3  and  C_4
REMARK    4  A    between atoms: C_7  and  C_8
REMARK    5  A    between atoms: C_8  and  N_9
REMARK    6  A    between atoms: C_10  and  C_12
REMARK    7  A    between atoms: C_19  and  C_21
REMARK                            x       y       z     vdW  Elec       q    Type
REMARK                         _______ _______ _______ _____ _____    ______ ____
ROOT
ATOM      1  C   UNL     1      47.933   8.364  13.995  0.00  0.00    +0.000 A 
ATOM      2  C   UNL     1      47.667   7.006  13.769  0.00  0.00    +0.000 A 
ATOM      3  C   UNL     1      46.581   6.615  12.983  0.00  0.00    +0.000 A 
ATOM      4  C   UNL     1      45.746   7.577  12.404  0.00  0.00    +0.000 A 
ATOM      5  C   UNL     1      46.019   8.935  12.622  0.00  0.00    +0.000 A 
ATOM      6  C   UNL     1      47.109   9.327  13.402  0.00  0.00    +0.000 A 
ENDROOT
BRANCH   1   7
ATOM      7  C   UNL     1      49.059   8.779  14.906  0.00  0.00    +0.000 C 
BRANCH   7   9
ATOM      8  C   UNL     1      51.084   7.860  13.674  0.00  0.00    +0.000 C 
ATOM      9  N   UNL     1      50.299   8.000  14.896  0.00  0.00    +0.000 N 
ATOM     10  C   UNL     1      50.873   7.439  16.054  0.00  0.00    +0.000 C 
ATOM     11  O   UNL     1      51.964   6.875  16.008  0.00  0.00    +0.000 OA
BRANCH  10  12
ATOM     12  C   UNL     1      50.141   7.489  17.331  0.00  0.00    +0.000 A 
ATOM     13  C   UNL     1      50.305   8.468  18.297  0.00  0.00    +0.000 A 
ATOM     14  S   UNL     1      49.265   8.293  19.639  0.00  0.00    +0.000 S 
ATOM     15  C   UNL     1      48.452   6.995  18.902  0.00  0.00    +0.000 A 
ATOM     16  N   UNL     1      47.355   6.439  19.481  0.00  0.00    +0.000 NA
ATOM     17  C   UNL     1      46.797   5.515  18.774  0.00  0.00    +0.000 A 
ATOM     18  N   UNL     1      47.261   5.069  17.561  0.00  0.00    +0.000 N 
ATOM     19  C   UNL     1      48.445   5.504  17.007  0.00  0.00    +0.000 A 
ATOM     20  O   UNL     1      48.955   4.915  16.058  0.00  0.00    +0.000 OA
ATOM     21  C   UNL     1      49.037   6.636  17.702  0.00  0.00    +0.000 A 
ATOM     22  H   UNL     1      46.815   4.293  17.094  0.00  0.00    +0.000 HD
ENDBRANCH  10  12
ENDBRANCH   7   9
ENDBRANCH   1   7
BRANCH   4  23
ATOM     23  C   UNL     1      44.540   7.158  11.606  0.00  0.00    +0.000 C 
BRANCH  23  24
ATOM     24  N   UNL     1      44.869   6.078  10.709  0.00  0.00    +0.000 N 
ATOM     25  C   UNL     1      44.121   4.928  10.676  0.00  0.00    +0.000 C 
ATOM     26  O   UNL     1      43.156   4.748  11.412  0.00  0.00    +0.000 OA
ATOM     27  H   UNL     1      45.607   6.216  10.036  0.00  0.00    +0.000 HD
BRANCH  25  28
ATOM     28  C   UNL     1      44.545   3.943   9.703  0.00  0.00    +0.000 A 
ATOM     29  C   UNL     1      44.727   2.571   9.779  0.00  0.00    +0.000 A 
ATOM     30  C   UNL     1      45.157   2.110   8.509  0.00  0.00    +0.000 A 
ATOM     31  C   UNL     1      45.225   3.203   7.680  0.00  0.00    +0.000 A 
ATOM     32  N   UNL     1      44.851   4.304   8.405  0.00  0.00    +0.000 N 
ATOM     33  H   UNL     1      44.797   5.255   8.060  0.00  0.00    +0.000 HD
ENDBRANCH  25  28
ENDBRANCH  23  24
ENDBRANCH   4  23
TORSDOF 6
ENDMDL
MODEL 8
REMARK VINA RESULT:    -6.377      3.088      4.120
REMARK INTER + INTRA:          -9.699
REMARK INTER:                  -8.558
REMARK INTRA:                  -1.142
REMARK UNBOUND:                -1.085
REMARK  Name = 
REMARK  7 active torsions:
REMARK  status: ('A' for Active; 'I' for Inactive)
REMARK    1  A    between atoms: C_1  and  N_2
REMARK    2  A    between atoms: N_2  and  C_3
REMARK    3  A    between atoms: C_3  and  C_4
REMARK    4  A    between atoms: C_7  and  C_8
REMARK    5  A    between atoms: C_8  and  N_9
REMARK    6  A    between atoms: C_10  and  C_12
REMARK    7  A    between atoms: C_19  and  C_21
REMARK                            x       y       z     vdW  Elec       q    Type
REMARK                         _______ _______ _______ _____ _____    ______ ____
ROOT
ATOM      1  C   UNL     1      48.558   6.766  15.757  0.00  0.00    +0.000 A 
ATOM      2  C   UNL     1      47.814   5.667  15.303  0.00  0.00    +0.000 A 
ATOM      3  C   UNL     1      47.752   4.492  16.054  0.00  0.00    +0.000 A 
ATOM      4  C   UNL     1      48.427   4.398  17.276  0.00  0.00    +0.000 A 
ATOM      5  C   UNL     1      49.161   5.502  17.735  0.00  0.00    +0.000 A 
ATOM      6  C   UNL     1      49.218   6.680  16.987  0.00  0.00    +0.000 A 
ENDROOT
BRANCH   1   7
ATOM      7  C   UNL     1      48.684   8.004  14.907  0.00  0.00    +0.000 C 
BRANCH   7   9
ATOM      8  C   UNL     1      51.060   8.123  14.011  0.00  0.00    +0.000 C 
ATOM      9  N   UNL     1      49.625   7.997  13.784  0.00  0.00    +0.000 N 
ATOM     10  C   UNL     1      49.239   7.760  12.450  0.00  0.00    +0.000 C 
ATOM     11  O   UNL     1      50.078   7.670  11.556  0.00  0.00    +0.000 OA
BRANCH  10  12
ATOM     12  C   UNL     1      47.810   7.660  12.108  0.00  0.00    +0.000 A 
ATOM     13  C   UNL     1      47.104   6.472  12.007  0.00  0.00    +0.000 A 
ATOM     14  S   UNL     1      45.445   6.683  11.663  0.00  0.00    +0.000 S 
ATOM     15  C   UNL     1      45.583   8.372  11.795  0.00  0.00    +0.000 A 
ATOM     16  N   UNL     1      44.485   9.170  11.719  0.00  0.00    +0.000 NA
ATOM     17  C   UNL     1      44.730  10.423  11.911  0.00  0.00    +0.000 A 
ATOM     18  N   UNL     1      45.977  10.953  12.130  0.00  0.00    +0.000 N 
ATOM     19  C   UNL     1      47.130  10.201  12.072  0.00  0.00    +0.000 A 
ATOM     20  O   UNL     1      48.234  10.736  12.023  0.00  0.00    +0.000 OA
ATOM     21  C   UNL     1      46.893   8.769  11.989  0.00  0.00    +0.000 A 
ATOM     22  H   UNL     1      46.105  11.951  12.203  0.00  0.00    +0.000 HD
ENDBRANCH  10  12
ENDBRANCH   7   9
ENDBRANCH   1   7
BRANCH   4  23
ATOM     23  C   UNL     1      48.411   3.112  18.060  0.00  0.00    +0.000 C 
BRANCH  23  24
ATOM     24  N   UNL     1      49.751   2.623  18.270  0.00  0.00    +0.000 N 
ATOM     25  C   UNL     1      50.424   1.947  17.284  0.00  0.00    +0.000 C 
ATOM     26  O   UNL     1      49.923   1.706  16.190  0.00  0.00    +0.000 OA
ATOM     27  H   UNL     1      50.226   2.865  19.126  0.00  0.00    +0.000 HD
BRANCH  25  28
ATOM     28  C   UNL     1      51.774   1.546  17.622  0.00  0.00    +0.000 A 
ATOM     29  C   UNL     1      52.980   2.229  17.621  0.00  0.00    +0.000 A 
ATOM     30  C   UNL     1      53.995   1.336  18.049  0.00  0.00    +0.000 A 
ATOM     31  C   UNL     1      53.393   0.129  18.309  0.00  0.00    +0.000 A 
ATOM     32  N   UNL     1      52.054   0.263  18.053  0.00  0.00    +0.000 N 
ATOM     33  H   UNL     1      51.351  -0.458  18.159  0.00  0.00    +0.000 HD
ENDBRANCH  25  28
ENDBRANCH  23  24
ENDBRANCH   4  23
TORSDOF 6
ENDMDL
MODEL 9
REMARK VINA RESULT:    -6.275      2.569      3.589
REMARK INTER + INTRA:          -9.561
REMARK INTER:                  -8.203
REMARK INTRA:                  -1.358
REMARK UNBOUND:                -1.085
REMARK  Name = 
REMARK  7 active torsions:
REMARK  status: ('A' for Active; 'I' for Inactive)
REMARK    1  A    between atoms: C_1  and  N_2
REMARK    2  A    between atoms: N_2  and  C_3
REMARK    3  A    between atoms: C_3  and  C_4
REMARK    4  A    between atoms: C_7  and  C_8
REMARK    5  A    between atoms: C_8  and  N_9
REMARK    6  A    between atoms: C_10  and  C_12
REMARK    7  A    between atoms: C_19  and  C_21
REMARK                            x       y       z     vdW  Elec       q    Type
REMARK                         _______ _______ _______ _____ _____    ______ ____
ROOT
ATOM      1  C   UNL     1      49.500   7.381  15.822  0.00  0.00    +0.000 A 
ATOM      2  C   UNL     1      48.284   6.737  16.094  0.00  0.00    +0.000 A 
ATOM      3  C   UNL     1      48.249   5.597  16.900  0.00  0.00    +0.000 A 
ATOM      4  C   UNL     1      49.429   5.087  17.454  0.00  0.00    +0.000 A 
ATOM      5  C   UNL     1      50.642   5.740  17.191  0.00  0.00    +0.000 A 
ATOM      6  C   UNL     1      50.677   6.883  16.390  0.00  0.00    +0.000 A 
ENDROOT
BRANCH   1   7
ATOM      7  C   UNL     1      49.542   8.565  14.890  0.00  0.00    +0.000 C 
BRANCH   7   9
ATOM      8  C   UNL     1      51.488   8.299  13.277  0.00  0.00    +0.000 C 
ATOM      9  N   UNL     1      50.054   8.376  13.531  0.00  0.00    +0.000 N 
ATOM     10  C   UNL     1      49.226   8.146  12.415  0.00  0.00    +0.000 C 
ATOM     11  O   UNL     1      49.708   7.899  11.311  0.00  0.00    +0.000 OA
BRANCH  10  12
ATOM     12  C   UNL     1      47.764   8.243  12.556  0.00  0.00    +0.000 A 
ATOM     13  C   UNL     1      47.028   9.403  12.375  0.00  0.00    +0.000 A 
ATOM     14  S   UNL     1      45.343   9.183  12.539  0.00  0.00    +0.000 S 
ATOM     15  C   UNL     1      45.528   7.501  12.701  0.00  0.00    +0.000 A 
ATOM     16  N   UNL     1      44.445   6.683  12.768  0.00  0.00    +0.000 NA
ATOM     17  C   UNL     1      44.737   5.426  12.813  0.00  0.00    +0.000 A 
ATOM     18  N   UNL     1      46.011   4.918  12.839  0.00  0.00    +0.000 N 
ATOM     19  C   UNL     1      47.133   5.714  12.918  0.00  0.00    +0.000 A 
ATOM     20  O   UNL     1      48.231   5.238  13.189  0.00  0.00    +0.000 OA
ATOM     21  C   UNL     1      46.860   7.131  12.737  0.00  0.00    +0.000 A 
ATOM     22  H   UNL     1      46.167   3.926  12.946  0.00  0.00    +0.000 HD
ENDBRANCH  10  12
ENDBRANCH   7   9
ENDBRANCH   1   7
BRANCH   4  23
ATOM     23  C   UNL     1      49.402   3.825  18.275  0.00  0.00    +0.000 C 
BRANCH  23  24
ATOM     24  N   UNL     1      50.691   3.177  18.261  0.00  0.00    +0.000 N 
ATOM     25  C   UNL     1      50.976   2.181  17.361  0.00  0.00    +0.000 C 
ATOM     26  O   UNL     1      50.156   1.777  16.543  0.00  0.00    +0.000 OA
ATOM     27  H   UNL     1      51.416   3.530  18.865  0.00  0.00    +0.000 HD
BRANCH  25  28
ATOM     28  C   UNL     1      52.319   1.646  17.438  0.00  0.00    +0.000 A 
ATOM     29  C   UNL     1      53.529   2.208  17.815  0.00  0.00    +0.000 A 
ATOM     30  C   UNL     1      54.534   1.214  17.701  0.00  0.00    +0.000 A 
ATOM     31  C   UNL     1      53.922   0.064  17.264  0.00  0.00    +0.000 A 
ATOM     32  N   UNL     1      52.587   0.330  17.112  0.00  0.00    +0.000 N 
ATOM     33  H   UNL     1      51.879  -0.326  16.807  0.00  0.00    +0.000 HD
ENDBRANCH  25  28
ENDBRANCH  23  24
ENDBRANCH   4  23
TORSDOF 6
ENDMDL
