MODEL 1
REMARK VINA RESULT:    -7.734      0.000      0.000
REMARK INTER + INTRA:         -12.233
REMARK INTER:                 -10.899
REMARK INTRA:                  -1.334
REMARK UNBOUND:                -1.334
REMARK  Name = 
REMARK  10 active torsions:
REMARK  status: ('A' for Active; 'I' for Inactive)
REMARK    1  A    between atoms: C_1  and  C_2
REMARK    2  A    between atoms: C_7  and  C_8
REMARK    3  A    between atoms: N_10  and  C_11
REMARK    4  A    between atoms: C_11  and  C_12
REMARK    5  A    between atoms: C_15  and  C_16
REMARK    6  A    between atoms: C_16  and  N_17
REMARK    7  A    between atoms: N_17  and  C_18
REMARK    8  A    between atoms: C_18  and  C_19
REMARK    9  A    between atoms: C_18  and  C_20
REMARK   10  A    between atoms: C_18  and  C_21
REMARK                            x       y       z     vdW  Elec       q    Type
REMARK                         _______ _______ _______ _____ _____    ______ ____
ROOT
ATOM      1  C   UNL     1      49.568   4.560  17.291  0.00  0.00    +0.000 A 
ATOM      2  C   UNL     1      48.997   3.301  17.058  0.00  0.00    +0.000 A 
ATOM      3  C   UNL     1      49.776   2.141  17.116  0.00  0.00    +0.000 A 
ATOM      4  C   UNL     1      51.138   2.219  17.432  0.00  0.00    +0.000 A 
ATOM      5  C   UNL     1      51.710   3.478  17.661  0.00  0.00    +0.000 A 
ATOM      6  C   UNL     1      50.932   4.636  17.602  0.00  0.00    +0.000 A 
ENDROOT
BRANCH   1   7
ATOM      7  C   UNL     1      48.728   5.809  17.209  0.00  0.00    +0.000 C 
BRANCH   7  10
ATOM      8  C   UNL     1      48.279   6.247  14.819  0.00  0.00    +0.000 C 
ATOM      9  O   UNL     1      49.428   6.639  14.627  0.00  0.00    +0.000 OA
ATOM     10  N   UNL     1      47.864   5.816  16.053  0.00  0.00    +0.000 N 
ATOM     11  H   UNL     1      46.917   5.481  16.187  0.00  0.00    +0.000 HD
BRANCH   8  18
ATOM     12  C   UNL     1      44.070   2.604  10.799  0.00  0.00    +0.000 C 
ATOM     13  C   UNL     1      44.913   3.575  11.571  0.00  0.00    +0.000 A 
ATOM     14  N   UNL     1      44.883   4.846  11.316  0.00  0.00    +0.000 NA
ATOM     15  C   UNL     1      45.703   5.602  12.095  0.00  0.00    +0.000 A 
ATOM     16  S   UNL     1      45.779   7.290  11.887  0.00  0.00    +0.000 S 
ATOM     17  C   UNL     1      46.933   7.444  13.131  0.00  0.00    +0.000 A 
ATOM     18  C   UNL     1      47.289   6.239  13.726  0.00  0.00    +0.000 A 
ATOM     19  C   UNL     1      46.543   5.163  13.105  0.00  0.00    +0.000 A 
ATOM     20  C   UNL     1      46.533   3.736  13.361  0.00  0.00    +0.000 A 
ATOM     21  O   UNL     1      47.200   3.181  14.232  0.00  0.00    +0.000 OA
ATOM     22  N   UNL     1      45.698   3.009  12.547  0.00  0.00    +0.000 N 
ATOM     23  H   UNL     1      45.679   2.014  12.712  0.00  0.00    +0.000 HD
ENDBRANCH   8  18
ENDBRANCH   7  10
ENDBRANCH   1   7
BRANCH   4  24
ATOM     24  C   UNL     1      51.991   0.976  17.526  0.00  0.00    +0.000 C 
BRANCH  24  25
ATOM     25  N   UNL     1      52.977   1.096  18.597  0.00  0.00    +0.000 NA
ATOM     26  H   UNL     1      52.607   0.632  19.427  0.00  0.00    +0.000 HD
BRANCH  25  27
ATOM     27  C   UNL     1      54.320   0.521  18.309  0.00  0.00    +0.000 C 
ATOM     28  C   UNL     1      54.774   0.926  16.886  0.00  0.00    +0.000 C 
ATOM     29  C   UNL     1      55.361   1.004  19.337  0.00  0.00    +0.000 C 
BRANCH  27  30
ATOM     30  C   UNL     1      54.279  -1.028  18.395  0.00  0.00    +0.000 A 
ATOM     31  C   UNL     1      54.937  -1.825  17.454  0.00  0.00    +0.000 A 
ATOM     32  C   UNL     1      54.886  -3.213  17.575  0.00  0.00    +0.000 A 
ATOM     33  C   UNL     1      54.166  -3.781  18.616  0.00  0.00    +0.000 A 
ATOM     34  C   UNL     1      53.517  -2.933  19.494  0.00  0.00    +0.000 A 
ATOM     35  N   UNL     1      53.555  -1.586  19.404  0.00  0.00    +0.000 NA
ENDBRANCH  27  30
ENDBRANCH  25  27
ENDBRANCH  24  25
ENDBRANCH   4  24
TORSDOF 7
ENDMDL
MODEL 2
REMARK VINA RESULT:    -7.393      3.048      9.962
REMARK INTER + INTRA:         -11.752
REMARK INTER:                 -10.474
REMARK INTRA:                  -1.278
REMARK UNBOUND:                -1.334
REMARK  Name = 
REMARK  10 active torsions:
REMARK  status: ('A' for Active; 'I' for Inactive)
REMARK    1  A    between atoms: C_1  and  C_2
REMARK    2  A    between atoms: C_7  and  C_8
REMARK    3  A    between atoms: N_10  and  C_11
REMARK    4  A    between atoms: C_11  and  C_12
REMARK    5  A    between atoms: C_15  and  C_16
REMARK    6  A    between atoms: C_16  and  N_17
REMARK    7  A    between atoms: N_17  and  C_18
REMARK    8  A    between atoms: C_18  and  C_19
REMARK    9  A    between atoms: C_18  and  C_20
REMARK   10  A    between atoms: C_18  and  C_21
REMARK                            x       y       z     vdW  Elec       q    Type
REMARK                         _______ _______ _______ _____ _____    ______ ____
ROOT
ATOM      1  C   UNL     1      48.620   6.164  15.720  0.00  0.00    +0.000 A 
ATOM      2  C   UNL     1      48.370   6.632  14.422  0.00  0.00    +0.000 A 
ATOM      3  C   UNL     1      47.513   5.936  13.564  0.00  0.00    +0.000 A 
ATOM      4  C   UNL     1      46.873   4.768  13.998  0.00  0.00    +0.000 A 
ATOM      5  C   UNL     1      47.127   4.297  15.293  0.00  0.00    +0.000 A 
ATOM      6  C   UNL     1      47.983   4.992  16.150  0.00  0.00    +0.000 A 
ENDROOT
BRANCH   1   7
ATOM      7  C   UNL     1      49.559   6.907  16.635  0.00  0.00    +0.000 C 
BRANCH   7  10
ATOM      8  C   UNL     1      50.637   5.709  18.507  0.00  0.00    +0.000 C 
ATOM      9  O   UNL     1      49.790   6.100  19.306  0.00  0.00    +0.000 OA
ATOM     10  N   UNL     1      50.587   6.054  17.181  0.00  0.00    +0.000 N 
ATOM     11  H   UNL     1      51.286   5.707  16.534  0.00  0.00    +0.000 HD
BRANCH   8  18
ATOM     12  C   UNL     1      53.965  -0.275  17.989  0.00  0.00    +0.000 C 
ATOM     13  C   UNL     1      53.394   1.087  18.246  0.00  0.00    +0.000 A 
ATOM     14  N   UNL     1      53.936   1.897  19.102  0.00  0.00    +0.000 NA
ATOM     15  C   UNL     1      53.306   3.095  19.231  0.00  0.00    +0.000 A 
ATOM     16  S   UNL     1      53.893   4.270  20.313  0.00  0.00    +0.000 S 
ATOM     17  C   UNL     1      52.644   5.352  19.900  0.00  0.00    +0.000 A 
ATOM     18  C   UNL     1      51.760   4.859  18.947  0.00  0.00    +0.000 A 
ATOM     19  C   UNL     1      52.174   3.526  18.558  0.00  0.00    +0.000 A 
ATOM     20  C   UNL     1      51.611   2.592  17.602  0.00  0.00    +0.000 A 
ATOM     21  O   UNL     1      50.624   2.819  16.907  0.00  0.00    +0.000 OA
ATOM     22  N   UNL     1      52.273   1.391  17.510  0.00  0.00    +0.000 N 
ATOM     23  H   UNL     1      51.895   0.729  16.850  0.00  0.00    +0.000 HD
ENDBRANCH   8  18
ENDBRANCH   7  10
ENDBRANCH   1   7
BRANCH   4  24
ATOM     24  C   UNL     1      45.923   4.016  13.096  0.00  0.00    +0.000 C 
BRANCH  24  25
ATOM     25  N   UNL     1      45.209   4.928  12.207  0.00  0.00    +0.000 NA
ATOM     26  H   UNL     1      45.893   5.410  11.624  0.00  0.00    +0.000 HD
BRANCH  25  27
ATOM     27  C   UNL     1      44.199   4.303  11.310  0.00  0.00    +0.000 C 
ATOM     28  C   UNL     1      43.519   3.113  12.030  0.00  0.00    +0.000 C 
ATOM     29  C   UNL     1      43.127   5.325  10.884  0.00  0.00    +0.000 C 
BRANCH  27  30
ATOM     30  C   UNL     1      44.872   3.780  10.013  0.00  0.00    +0.000 A 
ATOM     31  C   UNL     1      45.421   4.658   9.076  0.00  0.00    +0.000 A 
ATOM     32  C   UNL     1      46.028   4.145   7.930  0.00  0.00    +0.000 A 
ATOM     33  C   UNL     1      46.060   2.773   7.730  0.00  0.00    +0.000 A 
ATOM     34  C   UNL     1      45.472   1.966   8.686  0.00  0.00    +0.000 A 
ATOM     35  N   UNL     1      44.884   2.434   9.807  0.00  0.00    +0.000 NA
ENDBRANCH  27  30
ENDBRANCH  25  27
ENDBRANCH  24  25
ENDBRANCH   4  24
TORSDOF 7
ENDMDL
MODEL 3
REMARK VINA RESULT:    -7.290      7.266     10.296
REMARK INTER + INTRA:         -11.607
REMARK INTER:                 -10.222
REMARK INTRA:                  -1.385
REMARK UNBOUND:                -1.334
REMARK  Name = 
REMARK  10 active torsions:
REMARK  status: ('A' for Active; 'I' for Inactive)
REMARK    1  A    between atoms: C_1  and  C_2
REMARK    2  A    between atoms: C_7  and  C_8
REMARK    3  A    between atoms: N_10  and  C_11
REMARK    4  A    between atoms: C_11  and  C_12
REMARK    5  A    between atoms: C_15  and  C_16
REMARK    6  A    between atoms: C_16  and  N_17
REMARK    7  A    between atoms: N_17  and  C_18
REMARK    8  A    between atoms: C_18  and  C_19
REMARK    9  A    between atoms: C_18  and  C_20
REMARK   10  A    between atoms: C_18  and  C_21
REMARK                            x       y       z     vdW  Elec       q    Type
REMARK                         _______ _______ _______ _____ _____    ______ ____
ROOT
ATOM      1  C   UNL     1      49.014   7.660  11.977  0.00  0.00    +0.000 A 
ATOM      2  C   UNL     1      47.786   7.974  11.379  0.00  0.00    +0.000 A 
ATOM      3  C   UNL     1      46.619   7.294  11.743  0.00  0.00    +0.000 A 
ATOM      4  C   UNL     1      46.658   6.302  12.730  0.00  0.00    +0.000 A 
ATOM      5  C   UNL     1      47.886   5.985  13.325  0.00  0.00    +0.000 A 
ATOM      6  C   UNL     1      49.051   6.663  12.961  0.00  0.00    +0.000 A 
ENDROOT
BRANCH   1   7
ATOM      7  C   UNL     1      50.272   8.383  11.568  0.00  0.00    +0.000 C 
BRANCH   7  10
ATOM      8  C   UNL     1      52.282   7.772  10.268  0.00  0.00    +0.000 C 
ATOM      9  O   UNL     1      52.279   8.847   9.672  0.00  0.00    +0.000 OA
ATOM     10  N   UNL     1      51.338   7.476  11.216  0.00  0.00    +0.000 N 
ATOM     11  H   UNL     1      51.367   6.590  11.709  0.00  0.00    +0.000 HD
BRANCH   8  18
ATOM     12  C   UNL     1      54.852   3.235   5.800  0.00  0.00    +0.000 C 
ATOM     13  C   UNL     1      54.454   4.163   6.908  0.00  0.00    +0.000 A 
ATOM     14  N   UNL     1      55.100   4.191   8.032  0.00  0.00    +0.000 NA
ATOM     15  C   UNL     1      54.621   5.080   8.943  0.00  0.00    +0.000 A 
ATOM     16  S   UNL     1      55.360   5.239  10.468  0.00  0.00    +0.000 S 
ATOM     17  C   UNL     1      54.247   6.439  10.942  0.00  0.00    +0.000 A 
ATOM     18  C   UNL     1      53.298   6.745   9.973  0.00  0.00    +0.000 A 
ATOM     19  C   UNL     1      53.543   5.936   8.795  0.00  0.00    +0.000 A 
ATOM     20  C   UNL     1      52.859   5.879   7.517  0.00  0.00    +0.000 A 
ATOM     21  O   UNL     1      51.898   6.581   7.211  0.00  0.00    +0.000 OA
ATOM     22  N   UNL     1      53.369   4.962   6.630  0.00  0.00    +0.000 N 
ATOM     23  H   UNL     1      52.905   4.908   5.737  0.00  0.00    +0.000 HD
ENDBRANCH   8  18
ENDBRANCH   7  10
ENDBRANCH   1   7
BRANCH   4  24
ATOM     24  C   UNL     1      45.404   5.575  13.156  0.00  0.00    +0.000 C 
BRANCH  24  25
ATOM     25  N   UNL     1      45.348   4.238  12.572  0.00  0.00    +0.000 NA
ATOM     26  H   UNL     1      45.205   3.564  13.324  0.00  0.00    +0.000 HD
BRANCH  25  27
ATOM     27  C   UNL     1      44.286   4.020  11.552  0.00  0.00    +0.000 C 
ATOM     28  C   UNL     1      43.383   2.835  11.975  0.00  0.00    +0.000 C 
ATOM     29  C   UNL     1      43.422   5.284  11.371  0.00  0.00    +0.000 C 
BRANCH  27  30
ATOM     30  C   UNL     1      44.915   3.696  10.170  0.00  0.00    +0.000 A 
ATOM     31  C   UNL     1      45.379   4.710   9.329  0.00  0.00    +0.000 A 
ATOM     32  C   UNL     1      45.950   4.374   8.102  0.00  0.00    +0.000 A 
ATOM     33  C   UNL     1      46.029   3.041   7.728  0.00  0.00    +0.000 A 
ATOM     34  C   UNL     1      45.525   2.093   8.598  0.00  0.00    +0.000 A 
ATOM     35  N   UNL     1      44.973   2.388   9.794  0.00  0.00    +0.000 NA
ENDBRANCH  27  30
ENDBRANCH  25  27
ENDBRANCH  24  25
ENDBRANCH   4  24
TORSDOF 7
ENDMDL
MODEL 4
REMARK VINA RESULT:    -7.106      1.555      2.998
REMARK INTER + INTRA:         -11.348
REMARK INTER:                 -10.047
REMARK INTRA:                  -1.301
REMARK UNBOUND:                -1.334
REMARK  Name = 
REMARK  10 active torsions:
REMARK  status: ('A' for Active; 'I' for Inactive)
REMARK    1  A    between atoms: C_1  and  C_2
REMARK    2  A    between atoms: C_7  and  C_8
REMARK    3  A    between atoms: N_10  and  C_11
REMARK    4  A    between atoms: C_11  and  C_12
REMARK    5  A    between atoms: C_15  and  C_16
REMARK    6  A    between atoms: C_16  and  N_17
REMARK    7  A    between atoms: N_17  and  C_18
REMARK    8  A    between atoms: C_18  and  C_19
REMARK    9  A    between atoms: C_18  and  C_20
REMARK   10  A    between atoms: C_18  and  C_21
REMARK                            x       y       z     vdW  Elec       q    Type
REMARK                         _______ _______ _______ _____ _____    ______ ____
ROOT
ATOM      1  C   UNL     1      48.733   3.446  17.217  0.00  0.00    +0.000 A 
ATOM      2  C   UNL     1      49.251   2.185  16.893  0.00  0.00    +0.000 A 
ATOM      3  C   UNL     1      50.592   1.876  17.146  0.00  0.00    +0.000 A 
ATOM      4  C   UNL     1      51.432   2.819  17.750  0.00  0.00    +0.000 A 
ATOM      5  C   UNL     1      50.916   4.082  18.070  0.00  0.00    +0.000 A 
ATOM      6  C   UNL     1      49.578   4.390  17.816  0.00  0.00    +0.000 A 
ENDROOT
BRANCH   1   7
ATOM      7  C   UNL     1      47.293   3.781  16.926  0.00  0.00    +0.000 C 
BRANCH   7  10
ATOM      8  C   UNL     1      47.135   4.279  14.511  0.00  0.00    +0.000 C 
ATOM      9  O   UNL     1      47.220   3.090  14.213  0.00  0.00    +0.000 OA
ATOM     10  N   UNL     1      47.153   4.695  15.817  0.00  0.00    +0.000 N 
ATOM     11  H   UNL     1      47.065   5.679  16.044  0.00  0.00    +0.000 HD
BRANCH   8  18
ATOM     12  C   UNL     1      49.601  10.074  11.773  0.00  0.00    +0.000 C 
ATOM     13  C   UNL     1      48.915   8.814  12.209  0.00  0.00    +0.000 A 
ATOM     14  N   UNL     1      47.877   8.357  11.580  0.00  0.00    +0.000 NA
ATOM     15  C   UNL     1      47.360   7.208  12.093  0.00  0.00    +0.000 A 
ATOM     16  S   UNL     1      45.997   6.480  11.381  0.00  0.00    +0.000 S 
ATOM     17  C   UNL     1      46.005   5.219  12.527  0.00  0.00    +0.000 A 
ATOM     18  C   UNL     1      47.024   5.316  13.468  0.00  0.00    +0.000 A 
ATOM     19  C   UNL     1      47.820   6.495  13.187  0.00  0.00    +0.000 A 
ATOM     20  C   UNL     1      48.991   7.037  13.850  0.00  0.00    +0.000 A 
ATOM     21  O   UNL     1      49.540   6.522  14.821  0.00  0.00    +0.000 OA
ATOM     22  N   UNL     1      49.474   8.202  13.306  0.00  0.00    +0.000 N 
ATOM     23  H   UNL     1      50.288   8.593  13.756  0.00  0.00    +0.000 HD
ENDBRANCH   8  18
ENDBRANCH   7  10
ENDBRANCH   1   7
BRANCH   4  24
ATOM     24  C   UNL     1      52.876   2.496  18.056  0.00  0.00    +0.000 C 
BRANCH  24  25
ATOM     25  N   UNL     1      53.023   1.113  18.500  0.00  0.00    +0.000 NA
ATOM     26  H   UNL     1      52.324   0.546  18.018  0.00  0.00    +0.000 HD
BRANCH  25  27
ATOM     27  C   UNL     1      54.357   0.495  18.269  0.00  0.00    +0.000 C 
ATOM     28  C   UNL     1      54.858   0.840  16.846  0.00  0.00    +0.000 C 
ATOM     29  C   UNL     1      55.383   0.986  19.308  0.00  0.00    +0.000 C 
BRANCH  27  30
ATOM     30  C   UNL     1      54.273  -1.049  18.404  0.00  0.00    +0.000 A 
ATOM     31  C   UNL     1      54.964  -1.893  17.531  0.00  0.00    +0.000 A 
ATOM     32  C   UNL     1      54.871  -3.274  17.696  0.00  0.00    +0.000 A 
ATOM     33  C   UNL     1      54.079  -3.789  18.712  0.00  0.00    +0.000 A 
ATOM     34  C   UNL     1      53.402  -2.895  19.521  0.00  0.00    +0.000 A 
ATOM     35  N   UNL     1      53.478  -1.554  19.388  0.00  0.00    +0.000 NA
ENDBRANCH  27  30
ENDBRANCH  25  27
ENDBRANCH  24  25
ENDBRANCH   4  24
TORSDOF 7
ENDMDL
MODEL 5
REMARK VINA RESULT:    -6.915      7.177     10.318
REMARK INTER + INTRA:         -11.079
REMARK INTER:                  -9.520
REMARK INTRA:                  -1.559
REMARK UNBOUND:                -1.334
REMARK  Name = 
REMARK  10 active torsions:
REMARK  status: ('A' for Active; 'I' for Inactive)
REMARK    1  A    between atoms: C_1  and  C_2
REMARK    2  A    between atoms: C_7  and  C_8
REMARK    3  A    between atoms: N_10  and  C_11
REMARK    4  A    between atoms: C_11  and  C_12
REMARK    5  A    between atoms: C_15  and  C_16
REMARK    6  A    between atoms: C_16  and  N_17
REMARK    7  A    between atoms: N_17  and  C_18
REMARK    8  A    between atoms: C_18  and  C_19
REMARK    9  A    between atoms: C_18  and  C_20
REMARK   10  A    between atoms: C_18  and  C_21
REMARK                            x       y       z     vdW  Elec       q    Type
REMARK                         _______ _______ _______ _____ _____    ______ ____
ROOT
ATOM      1  C   UNL     1      47.877   8.959  11.829  0.00  0.00    +0.000 A 
ATOM      2  C   UNL     1      48.165   7.588  11.767  0.00  0.00    +0.000 A 
ATOM      3  C   UNL     1      47.205   6.639  12.132  0.00  0.00    +0.000 A 
ATOM      4  C   UNL     1      45.930   7.046  12.545  0.00  0.00    +0.000 A 
ATOM      5  C   UNL     1      45.644   8.416  12.612  0.00  0.00    +0.000 A 
ATOM      6  C   UNL     1      46.603   9.363  12.248  0.00  0.00    +0.000 A 
ENDROOT
BRANCH   1   7
ATOM      7  C   UNL     1      48.921   9.979  11.452  0.00  0.00    +0.000 C 
BRANCH   7  10
ATOM      8  C   UNL     1      51.369  10.137  11.158  0.00  0.00    +0.000 C 
ATOM      9  O   UNL     1      51.273  11.193  10.536  0.00  0.00    +0.000 OA
ATOM     10  N   UNL     1      50.265   9.488  11.646  0.00  0.00    +0.000 N 
ATOM     11  H   UNL     1      50.366   8.627  12.172  0.00  0.00    +0.000 HD
BRANCH   8  18
ATOM     12  C   UNL     1      55.379   4.596  10.552  0.00  0.00    +0.000 C 
ATOM     13  C   UNL     1      54.678   5.903  10.774  0.00  0.00    +0.000 A 
ATOM     14  N   UNL     1      55.275   6.901  11.347  0.00  0.00    +0.000 NA
ATOM     15  C   UNL     1      54.513   8.019  11.483  0.00  0.00    +0.000 A 
ATOM     16  S   UNL     1      55.151   9.417  12.213  0.00  0.00    +0.000 S 
ATOM     17  C   UNL     1      53.684  10.259  12.008  0.00  0.00    +0.000 A 
ATOM     18  C   UNL     1      52.685   9.513  11.392  0.00  0.00    +0.000 A 
ATOM     19  C   UNL     1      53.199   8.194  11.082  0.00  0.00    +0.000 A 
ATOM     20  C   UNL     1      52.577   7.055  10.435  0.00  0.00    +0.000 A 
ATOM     21  O   UNL     1      51.428   7.044  10.001  0.00  0.00    +0.000 OA
ATOM     22  N   UNL     1      53.379   5.944  10.326  0.00  0.00    +0.000 N 
ATOM     23  H   UNL     1      52.962   5.142   9.879  0.00  0.00    +0.000 HD
ENDBRANCH   8  18
ENDBRANCH   7  10
ENDBRANCH   1   7
BRANCH   4  24
ATOM     24  C   UNL     1      44.870   6.036  12.918  0.00  0.00    +0.000 C 
BRANCH  24  25
ATOM     25  N   UNL     1      45.172   4.724  12.352  0.00  0.00    +0.000 NA
ATOM     26  H   UNL     1      45.248   4.054  13.118  0.00  0.00    +0.000 HD
BRANCH  25  27
ATOM     27  C   UNL     1      44.181   4.195  11.375  0.00  0.00    +0.000 C 
ATOM     28  C   UNL     1      43.475   2.949  11.962  0.00  0.00    +0.000 C 
ATOM     29  C   UNL     1      43.128   5.263  11.020  0.00  0.00    +0.000 C 
BRANCH  27  30
ATOM     30  C   UNL     1      44.884   3.790  10.052  0.00  0.00    +0.000 A 
ATOM     31  C   UNL     1      45.427   4.751   9.195  0.00  0.00    +0.000 A 
ATOM     32  C   UNL     1      46.062   4.343   8.022  0.00  0.00    +0.000 A 
ATOM     33  C   UNL     1      46.127   2.991   7.716  0.00  0.00    +0.000 A 
ATOM     34  C   UNL     1      45.544   2.099   8.596  0.00  0.00    +0.000 A 
ATOM     35  N   UNL     1      44.929   2.465   9.741  0.00  0.00    +0.000 NA
ENDBRANCH  27  30
ENDBRANCH  25  27
ENDBRANCH  24  25
ENDBRANCH   4  24
TORSDOF 7
ENDMDL
MODEL 6
REMARK VINA RESULT:    -6.915      4.637      6.780
REMARK INTER + INTRA:         -11.079
REMARK INTER:                  -9.480
REMARK INTRA:                  -1.600
REMARK UNBOUND:                -1.334
REMARK  Name = 
REMARK  10 active torsions:
REMARK  status: ('A' for Active; 'I' for Inactive)
REMARK    1  A    between atoms: C_1  and  C_2
REMARK    2  A    between atoms: C_7  and  C_8
REMARK    3  A    between atoms: N_10  and  C_11
REMARK    4  A    between atoms: C_11  and  C_12
REMARK    5  A    between atoms: C_15  and  C_16
REMARK    6  A    between atoms: C_16  and  N_17
REMARK    7  A    between atoms: N_17  and  C_18
REMARK    8  A    between atoms: C_18  and  C_19
REMARK    9  A    between atoms: C_18  and  C_20
REMARK   10  A    between atoms: C_18  and  C_21
REMARK                            x       y       z     vdW  Elec       q    Type
REMARK                         _______ _______ _______ _____ _____    ______ ____
ROOT
ATOM      1  C   UNL     1      46.474   7.407  13.047  0.00  0.00    +0.000 A 
ATOM      2  C   UNL     1      46.883   8.695  13.423  0.00  0.00    +0.000 A 
ATOM      3  C   UNL     1      47.960   8.876  14.297  0.00  0.00    +0.000 A 
ATOM      4  C   UNL     1      48.663   7.771  14.791  0.00  0.00    +0.000 A 
ATOM      5  C   UNL     1      48.252   6.483  14.419  0.00  0.00    +0.000 A 
ATOM      6  C   UNL     1      47.176   6.303  13.548  0.00  0.00    +0.000 A 
ENDROOT
BRANCH   1   7
ATOM      7  C   UNL     1      45.301   7.216  12.121  0.00  0.00    +0.000 C 
BRANCH   7  10
ATOM      8  C   UNL     1      44.319   5.306  10.899  0.00  0.00    +0.000 C 
ATOM      9  O   UNL     1      43.174   5.677  11.146  0.00  0.00    +0.000 OA
ATOM     10  N   UNL     1      45.412   6.012  11.333  0.00  0.00    +0.000 N 
ATOM     11  H   UNL     1      46.349   5.699  11.105  0.00  0.00    +0.000 HD
BRANCH   8  18
ATOM     12  C   UNL     1      47.641   2.217   5.744  0.00  0.00    +0.000 C 
ATOM     13  C   UNL     1      46.828   2.694   6.910  0.00  0.00    +0.000 A 
ATOM     14  N   UNL     1      46.036   1.895   7.554  0.00  0.00    +0.000 NA
ATOM     15  C   UNL     1      45.361   2.471   8.585  0.00  0.00    +0.000 A 
ATOM     16  S   UNL     1      44.282   1.556   9.531  0.00  0.00    +0.000 S 
ATOM     17  C   UNL     1      43.900   2.907  10.497  0.00  0.00    +0.000 A 
ATOM     18  C   UNL     1      44.567   4.071  10.133  0.00  0.00    +0.000 A 
ATOM     19  C   UNL     1      45.433   3.789   9.005  0.00  0.00    +0.000 A 
ATOM     20  C   UNL     1      46.342   4.641   8.262  0.00  0.00    +0.000 A 
ATOM     21  O   UNL     1      46.542   5.828   8.512  0.00  0.00    +0.000 OA
ATOM     22  N   UNL     1      46.996   4.022   7.225  0.00  0.00    +0.000 N 
ATOM     23  H   UNL     1      47.631   4.601   6.697  0.00  0.00    +0.000 HD
ENDBRANCH   8  18
ENDBRANCH   7  10
ENDBRANCH   1   7
BRANCH   4  24
ATOM     24  C   UNL     1      49.846   7.946  15.715  0.00  0.00    +0.000 C 
BRANCH  24  25
ATOM     25  N   UNL     1      49.495   7.601  17.089  0.00  0.00    +0.000 NA
ATOM     26  H   UNL     1      48.485   7.459  17.137  0.00  0.00    +0.000 HD
BRANCH  25  27
ATOM     27  C   UNL     1      50.156   6.389  17.644  0.00  0.00    +0.000 C 
ATOM     28  C   UNL     1      51.448   6.082  16.848  0.00  0.00    +0.000 C 
ATOM     29  C   UNL     1      50.504   6.578  19.133  0.00  0.00    +0.000 C 
BRANCH  27  30
ATOM     30  C   UNL     1      49.211   5.161  17.549  0.00  0.00    +0.000 A 
ATOM     31  C   UNL     1      47.853   5.266  17.857  0.00  0.00    +0.000 A 
ATOM     32  C   UNL     1      47.036   4.141  17.746  0.00  0.00    +0.000 A 
ATOM     33  C   UNL     1      47.589   2.932  17.350  0.00  0.00    +0.000 A 
ATOM     34  C   UNL     1      48.946   2.896  17.087  0.00  0.00    +0.000 A 
ATOM     35  N   UNL     1      49.759   3.970  17.180  0.00  0.00    +0.000 NA
ENDBRANCH  27  30
ENDBRANCH  25  27
ENDBRANCH  24  25
ENDBRANCH   4  24
TORSDOF 7
ENDMDL
MODEL 7
REMARK VINA RESULT:    -6.827      7.613     10.423
REMARK INTER + INTRA:         -10.955
REMARK INTER:                  -9.720
REMARK INTRA:                  -1.235
REMARK UNBOUND:                -1.334
REMARK  Name = 
REMARK  10 active torsions:
REMARK  status: ('A' for Active; 'I' for Inactive)
REMARK    1  A    between atoms: C_1  and  C_2
REMARK    2  A    between atoms: C_7  and  C_8
REMARK    3  A    between atoms: N_10  and  C_11
REMARK    4  A    between atoms: C_11  and  C_12
REMARK    5  A    between atoms: C_15  and  C_16
REMARK    6  A    between atoms: C_16  and  N_17
REMARK    7  A    between atoms: N_17  and  C_18
REMARK    8  A    between atoms: C_18  and  C_19
REMARK    9  A    between atoms: C_18  and  C_20
REMARK   10  A    between atoms: C_18  and  C_21
REMARK                            x       y       z     vdW  Elec       q    Type
REMARK                         _______ _______ _______ _____ _____    ______ ____
ROOT
ATOM      1  C   UNL     1      49.655   8.174  12.042  0.00  0.00    +0.000 A 
ATOM      2  C   UNL     1      48.558   9.017  11.815  0.00  0.00    +0.000 A 
ATOM      3  C   UNL     1      47.255   8.579  12.071  0.00  0.00    +0.000 A 
ATOM      4  C   UNL     1      47.028   7.295  12.580  0.00  0.00    +0.000 A 
ATOM      5  C   UNL     1      48.123   6.450  12.803  0.00  0.00    +0.000 A 
ATOM      6  C   UNL     1      49.425   6.887  12.547  0.00  0.00    +0.000 A 
ENDROOT
BRANCH   1   7
ATOM      7  C   UNL     1      51.056   8.644  11.748  0.00  0.00    +0.000 C 
BRANCH   7  10
ATOM      8  C   UNL     1      52.581   8.788   9.810  0.00  0.00    +0.000 C 
ATOM      9  O   UNL     1      53.202   9.724  10.309  0.00  0.00    +0.000 OA
ATOM     10  N   UNL     1      51.526   8.200  10.457  0.00  0.00    +0.000 N 
ATOM     11  H   UNL     1      51.037   7.418  10.037  0.00  0.00    +0.000 HD
BRANCH   8  18
ATOM     12  C   UNL     1      54.523   3.423   5.989  0.00  0.00    +0.000 C 
ATOM     13  C   UNL     1      54.099   4.708   6.635  0.00  0.00    +0.000 A 
ATOM     14  N   UNL     1      53.965   5.799   5.947  0.00  0.00    +0.000 NA
ATOM     15  C   UNL     1      53.579   6.884   6.670  0.00  0.00    +0.000 A 
ATOM     16  S   UNL     1      53.357   8.392   5.914  0.00  0.00    +0.000 S 
ATOM     17  C   UNL     1      52.925   9.128   7.389  0.00  0.00    +0.000 A 
ATOM     18  C   UNL     1      52.940   8.265   8.478  0.00  0.00    +0.000 A 
ATOM     19  C   UNL     1      53.321   6.940   8.030  0.00  0.00    +0.000 A 
ATOM     20  C   UNL     1      53.472   5.693   8.755  0.00  0.00    +0.000 A 
ATOM     21  O   UNL     1      53.264   5.560   9.959  0.00  0.00    +0.000 OA
ATOM     22  N   UNL     1      53.871   4.625   7.989  0.00  0.00    +0.000 N 
ATOM     23  H   UNL     1      53.982   3.750   8.478  0.00  0.00    +0.000 HD
ENDBRANCH   8  18
ENDBRANCH   7  10
ENDBRANCH   1   7
BRANCH   4  24
ATOM     24  C   UNL     1      45.630   6.811  12.888  0.00  0.00    +0.000 C 
BRANCH  24  25
ATOM     25  N   UNL     1      45.498   5.382  12.624  0.00  0.00    +0.000 NA
ATOM     26  H   UNL     1      45.486   4.890  13.518  0.00  0.00    +0.000 HD
BRANCH  25  27
ATOM     27  C   UNL     1      44.289   4.972  11.858  0.00  0.00    +0.000 C 
ATOM     28  C   UNL     1      43.423   4.014  12.712  0.00  0.00    +0.000 C 
ATOM     29  C   UNL     1      43.449   6.198  11.450  0.00  0.00    +0.000 C 
BRANCH  27  30
ATOM     30  C   UNL     1      44.694   4.241  10.550  0.00  0.00    +0.000 A 
ATOM     31  C   UNL     1      44.438   2.879  10.370  0.00  0.00    +0.000 A 
ATOM     32  C   UNL     1      44.806   2.264   9.175  0.00  0.00    +0.000 A 
ATOM     33  C   UNL     1      45.440   3.009   8.191  0.00  0.00    +0.000 A 
ATOM     34  C   UNL     1      45.687   4.345   8.448  0.00  0.00    +0.000 A 
ATOM     35  N   UNL     1      45.335   4.967   9.593  0.00  0.00    +0.000 NA
ENDBRANCH  27  30
ENDBRANCH  25  27
ENDBRANCH  24  25
ENDBRANCH   4  24
TORSDOF 7
ENDMDL
MODEL 8
REMARK VINA RESULT:    -6.682      5.405     10.135
REMARK INTER + INTRA:         -10.750
REMARK INTER:                  -9.125
REMARK INTRA:                  -1.625
REMARK UNBOUND:                -1.334
REMARK  Name = 
REMARK  10 active torsions:
REMARK  status: ('A' for Active; 'I' for Inactive)
REMARK    1  A    between atoms: C_1  and  C_2
REMARK    2  A    between atoms: C_7  and  C_8
REMARK    3  A    between atoms: N_10  and  C_11
REMARK    4  A    between atoms: C_11  and  C_12
REMARK    5  A    between atoms: C_15  and  C_16
REMARK    6  A    between atoms: C_16  and  N_17
REMARK    7  A    between atoms: N_17  and  C_18
REMARK    8  A    between atoms: C_18  and  C_19
REMARK    9  A    between atoms: C_18  and  C_20
REMARK   10  A    between atoms: C_18  and  C_21
REMARK                            x       y       z     vdW  Elec       q    Type
REMARK                         _______ _______ _______ _____ _____    ______ ____
ROOT
ATOM      1  C   UNL     1      48.218   8.617  12.117  0.00  0.00    +0.000 A 
ATOM      2  C   UNL     1      48.247   7.240  11.856  0.00  0.00    +0.000 A 
ATOM      3  C   UNL     1      47.119   6.446  12.086  0.00  0.00    +0.000 A 
ATOM      4  C   UNL     1      45.935   7.020  12.561  0.00  0.00    +0.000 A 
ATOM      5  C   UNL     1      45.907   8.396  12.827  0.00  0.00    +0.000 A 
ATOM      6  C   UNL     1      47.032   9.189  12.598  0.00  0.00    +0.000 A 
ENDROOT
BRANCH   1   7
ATOM      7  C   UNL     1      49.441   9.467  11.885  0.00  0.00    +0.000 C 
BRANCH   7  10
ATOM      8  C   UNL     1      51.633   8.641  12.671  0.00  0.00    +0.000 C 
ATOM      9  O   UNL     1      51.920   8.205  11.558  0.00  0.00    +0.000 OA
ATOM     10  N   UNL     1      50.443   9.279  12.907  0.00  0.00    +0.000 N 
ATOM     11  H   UNL     1      50.232   9.647  13.828  0.00  0.00    +0.000 HD
BRANCH   8  18
ATOM     12  C   UNL     1      52.724   6.183  18.989  0.00  0.00    +0.000 C 
ATOM     13  C   UNL     1      52.693   6.790  17.618  0.00  0.00    +0.000 A 
ATOM     14  N   UNL     1      53.722   7.412  17.131  0.00  0.00    +0.000 NA
ATOM     15  C   UNL     1      53.545   7.912  15.878  0.00  0.00    +0.000 A 
ATOM     16  S   UNL     1      54.800   8.754  15.098  0.00  0.00    +0.000 S 
ATOM     17  C   UNL     1      53.839   9.015  13.716  0.00  0.00    +0.000 A 
ATOM     18  C   UNL     1      52.558   8.481  13.808  0.00  0.00    +0.000 A 
ATOM     19  C   UNL     1      52.408   7.825  15.092  0.00  0.00    +0.000 A 
ATOM     20  C   UNL     1      51.288   7.109  15.673  0.00  0.00    +0.000 A 
ATOM     21  O   UNL     1      50.214   6.922  15.107  0.00  0.00    +0.000 OA
ATOM     22  N   UNL     1      51.506   6.629  16.942  0.00  0.00    +0.000 N 
ATOM     23  H   UNL     1      50.738   6.129  17.362  0.00  0.00    +0.000 HD
ENDBRANCH   8  18
ENDBRANCH   7  10
ENDBRANCH   1   7
BRANCH   4  24
ATOM     24  C   UNL     1      44.697   6.183  12.791  0.00  0.00    +0.000 C 
BRANCH  24  25
ATOM     25  N   UNL     1      44.956   4.774  12.509  0.00  0.00    +0.000 NA
ATOM     26  H   UNL     1      44.944   4.263  13.392  0.00  0.00    +0.000 HD
BRANCH  25  27
ATOM     27  C   UNL     1      43.999   4.112  11.581  0.00  0.00    +0.000 C 
ATOM     28  C   UNL     1      43.463   2.807  12.219  0.00  0.00    +0.000 C 
ATOM     29  C   UNL     1      42.817   5.043  11.246  0.00  0.00    +0.000 C 
BRANCH  27  30
ATOM     30  C   UNL     1      44.696   3.758  10.240  0.00  0.00    +0.000 A 
ATOM     31  C   UNL     1      45.218   4.753   9.409  0.00  0.00    +0.000 A 
ATOM     32  C   UNL     1      45.848   4.391   8.219  0.00  0.00    +0.000 A 
ATOM     33  C   UNL     1      45.929   3.051   7.870  0.00  0.00    +0.000 A 
ATOM     34  C   UNL     1      45.367   2.123   8.727  0.00  0.00    +0.000 A 
ATOM     35  N   UNL     1      44.757   2.445   9.887  0.00  0.00    +0.000 NA
ENDBRANCH  27  30
ENDBRANCH  25  27
ENDBRANCH  24  25
ENDBRANCH   4  24
TORSDOF 7
ENDMDL
MODEL 9
REMARK VINA RESULT:    -6.664      2.958      9.803
REMARK INTER + INTRA:         -10.725
REMARK INTER:                  -9.658
REMARK INTRA:                  -1.068
REMARK UNBOUND:                -1.334
REMARK  Name = 
REMARK  10 active torsions:
REMARK  status: ('A' for Active; 'I' for Inactive)
REMARK    1  A    between atoms: C_1  and  C_2
REMARK    2  A    between atoms: C_7  and  C_8
REMARK    3  A    between atoms: N_10  and  C_11
REMARK    4  A    between atoms: C_11  and  C_12
REMARK    5  A    between atoms: C_15  and  C_16
REMARK    6  A    between atoms: C_16  and  N_17
REMARK    7  A    between atoms: N_17  and  C_18
REMARK    8  A    between atoms: C_18  and  C_19
REMARK    9  A    between atoms: C_18  and  C_20
REMARK   10  A    between atoms: C_18  and  C_21
REMARK                            x       y       z     vdW  Elec       q    Type
REMARK                         _______ _______ _______ _____ _____    ______ ____
ROOT
ATOM      1  C   UNL     1      48.289   7.704  14.556  0.00  0.00    +0.000 A 
ATOM      2  C   UNL     1      48.039   6.326  14.483  0.00  0.00    +0.000 A 
ATOM      3  C   UNL     1      47.132   5.813  13.550  0.00  0.00    +0.000 A 
ATOM      4  C   UNL     1      46.477   6.669  12.656  0.00  0.00    +0.000 A 
ATOM      5  C   UNL     1      46.723   8.046  12.732  0.00  0.00    +0.000 A 
ATOM      6  C   UNL     1      47.627   8.559  13.664  0.00  0.00    +0.000 A 
ENDROOT
BRANCH   1   7
ATOM      7  C   UNL     1      49.252   8.255  15.576  0.00  0.00    +0.000 C 
BRANCH   7  10
ATOM      8  C   UNL     1      50.387   6.778  17.199  0.00  0.00    +0.000 C 
ATOM      9  O   UNL     1      49.602   7.082  18.095  0.00  0.00    +0.000 OA
ATOM     10  N   UNL     1      50.274   7.302  15.938  0.00  0.00    +0.000 N 
ATOM     11  H   UNL     1      50.922   7.026  15.208  0.00  0.00    +0.000 HD
BRANCH   8  18
ATOM     12  C   UNL     1      52.475   0.276  17.913  0.00  0.00    +0.000 C 
ATOM     13  C   UNL     1      52.230   1.750  17.787  0.00  0.00    +0.000 A 
ATOM     14  N   UNL     1      53.191   2.609  17.922  0.00  0.00    +0.000 NA
ATOM     15  C   UNL     1      52.816   3.910  17.785  0.00  0.00    +0.000 A 
ATOM     16  S   UNL     1      53.961   5.160  17.933  0.00  0.00    +0.000 S 
ATOM     17  C   UNL     1      52.775   6.351  17.657  0.00  0.00    +0.000 A 
ATOM     18  C   UNL     1      51.498   5.841  17.451  0.00  0.00    +0.000 A 
ATOM     19  C   UNL     1      51.546   4.395  17.522  0.00  0.00    +0.000 A 
ATOM     20  C   UNL     1      50.506   3.396  17.367  0.00  0.00    +0.000 A 
ATOM     21  O   UNL     1      49.331   3.650  17.112  0.00  0.00    +0.000 OA
ATOM     22  N   UNL     1      50.926   2.096  17.522  0.00  0.00    +0.000 N 
ATOM     23  H   UNL     1      50.215   1.389  17.418  0.00  0.00    +0.000 HD
ENDBRANCH   8  18
ENDBRANCH   7  10
ENDBRANCH   1   7
BRANCH   4  24
ATOM     24  C   UNL     1      45.514   6.131  11.623  0.00  0.00    +0.000 C 
BRANCH  24  25
ATOM     25  N   UNL     1      45.522   4.671  11.606  0.00  0.00    +0.000 NA
ATOM     26  H   UNL     1      45.342   4.339  12.554  0.00  0.00    +0.000 HD
BRANCH  25  27
ATOM     27  C   UNL     1      44.534   4.027  10.698  0.00  0.00    +0.000 C 
ATOM     28  C   UNL     1      43.857   2.834  11.416  0.00  0.00    +0.000 C 
ATOM     29  C   UNL     1      43.457   5.033  10.247  0.00  0.00    +0.000 C 
BRANCH  27  30
ATOM     30  C   UNL     1      45.234   3.502   9.416  0.00  0.00    +0.000 A 
ATOM     31  C   UNL     1      45.421   2.135   9.199  0.00  0.00    +0.000 A 
ATOM     32  C   UNL     1      46.042   1.705   8.028  0.00  0.00    +0.000 A 
ATOM     33  C   UNL     1      46.483   2.643   7.106  0.00  0.00    +0.000 A 
ATOM     34  C   UNL     1      46.290   3.980   7.399  0.00  0.00    +0.000 A 
ATOM     35  N   UNL     1      45.686   4.424   8.521  0.00  0.00    +0.000 NA
ENDBRANCH  27  30
ENDBRANCH  25  27
ENDBRANCH  24  25
ENDBRANCH   4  24
TORSDOF 7
ENDMDL
