MODEL 1
REMARK VINA RESULT:    -7.441      0.000      0.000
REMARK INTER + INTRA:         -11.714
REMARK INTER:                 -10.486
REMARK INTRA:                  -1.228
REMARK UNBOUND:                -1.228
REMARK  Name = 
REMARK  9 active torsions:
REMARK  status: ('A' for Active; 'I' for Inactive)
REMARK    1  A    between atoms: C_1  and  O_2
REMARK    2  A    between atoms: O_2  and  C_3
REMARK    3  A    between atoms: C_10  and  C_11
REMARK    4  A    between atoms: N_13  and  C_14
REMARK    5  A    between atoms: C_14  and  C_15
REMARK    6  A    between atoms: C_18  and  N_19
REMARK    7  A    between atoms: N_19  and  C_20
REMARK    8  A    between atoms: C_20  and  C_21
REMARK    9  A    between atoms: C_26  and  C_27
REMARK                            x       y       z     vdW  Elec       q    Type
REMARK                         _______ _______ _______ _____ _____    ______ ____
ROOT
ATOM      1  C   UNL     1      49.362   7.364  14.635  0.00  0.00    +0.000 A 
ATOM      2  C   UNL     1      48.340   6.425  14.754  0.00  0.00    +0.000 A 
ATOM      3  C   UNL     1      47.483   6.140  13.666  0.00  0.00    +0.000 A 
ATOM      4  C   UNL     1      47.557   6.867  12.476  0.00  0.00    +0.000 A 
ATOM      5  C   UNL     1      48.594   7.783  12.361  0.00  0.00    +0.000 A 
ATOM      6  C   UNL     1      49.536   7.948  13.384  0.00  0.00    +0.000 A 
ENDROOT
BRANCH   4   7
ATOM      7  N   UNL     1      46.674   6.679  11.421  0.00  0.00    +0.000 N 
ATOM      8  H   UNL     1      46.848   7.165  10.550  0.00  0.00    +0.000 HD
BRANCH   7   9
ATOM      9  C   UNL     1      45.935   5.421  11.364  0.00  0.00    +0.000 C 
BRANCH   9  10
ATOM     10  C   UNL     1      44.432   5.624  11.590  0.00  0.00    +0.000 C 
ATOM     11  C   UNL     1      43.939   4.912  12.859  0.00  0.00    +0.000 C 
ATOM     12  C   UNL     1      44.042   3.390  12.726  0.00  0.00    +0.000 C 
ATOM     13  C   UNL     1      43.364   2.900  11.443  0.00  0.00    +0.000 C 
ATOM     14  N   UNL     1      43.838   3.634  10.265  0.00  0.00    +0.000 N 
ATOM     15  C   UNL     1      44.487   2.941   9.253  0.00  0.00    +0.000 C 
ATOM     16  C   UNL     1      44.994   3.676   8.030  0.00  0.00    +0.000 C 
ATOM     17  O   UNL     1      44.673   1.721   9.313  0.00  0.00    +0.000 OA
ATOM     18  C   UNL     1      43.672   5.085  10.366  0.00  0.00    +0.000 C 
ENDBRANCH   9  10
ENDBRANCH   7   9
ENDBRANCH   4   7
BRANCH   1  19
ATOM     19  C   UNL     1      50.259   7.781  15.782  0.00  0.00    +0.000 C 
BRANCH  19  22
ATOM     20  C   UNL     1      50.809   5.993  17.407  0.00  0.00    +0.000 C 
ATOM     21  O   UNL     1      49.792   6.235  18.097  0.00  0.00    +0.000 OA
ATOM     22  N   UNL     1      51.092   6.707  16.280  0.00  0.00    +0.000 N 
ATOM     23  H   UNL     1      51.982   6.558  15.816  0.00  0.00    +0.000 HD
BRANCH  20  31
ATOM     24  C   UNL     1      50.683   2.546  17.188  0.00  0.00    +0.000 A 
ATOM     25  N   UNL     1      50.904   1.207  17.228  0.00  0.00    +0.000 NA
ATOM     26  C   UNL     1      52.011   0.762  17.776  0.00  0.00    +0.000 A 
ATOM     27  N   UNL     1      52.982   1.497  18.299  0.00  0.00    +0.000 NA
ATOM     28  C   UNL     1      52.753   2.822  18.214  0.00  0.00    +0.000 A 
ATOM     29  S   UNL     1      53.909   3.904  18.823  0.00  0.00    +0.000 S 
ATOM     30  C   UNL     1      52.947   5.241  18.407  0.00  0.00    +0.000 A 
ATOM     31  C   UNL     1      51.742   4.915  17.794  0.00  0.00    +0.000 A 
ATOM     32  C   UNL     1      51.636   3.454  17.676  0.00  0.00    +0.000 A 
BRANCH  24  34
ATOM     33  C   UNL     1      48.470   2.947  17.658  0.00  0.00    +0.000 C 
ATOM     34  O   UNL     1      49.483   2.951  16.642  0.00  0.00    +0.000 OA
ENDBRANCH  24  34
ENDBRANCH  20  31
ENDBRANCH  19  22
ENDBRANCH   1  19
TORSDOF 7
ENDMDL
MODEL 2
REMARK VINA RESULT:    -7.169      3.224      8.198
REMARK INTER + INTRA:         -11.332
REMARK INTER:                  -9.830
REMARK INTRA:                  -1.501
REMARK UNBOUND:                -1.228
REMARK  Name = 
REMARK  9 active torsions:
REMARK  status: ('A' for Active; 'I' for Inactive)
REMARK    1  A    between atoms: C_1  and  O_2
REMARK    2  A    between atoms: O_2  and  C_3
REMARK    3  A    between atoms: C_10  and  C_11
REMARK    4  A    between atoms: N_13  and  C_14
REMARK    5  A    between atoms: C_14  and  C_15
REMARK    6  A    between atoms: C_18  and  N_19
REMARK    7  A    between atoms: N_19  and  C_20
REMARK    8  A    between atoms: C_20  and  C_21
REMARK    9  A    between atoms: C_26  and  C_27
REMARK                            x       y       z     vdW  Elec       q    Type
REMARK                         _______ _______ _______ _____ _____    ______ ____
ROOT
ATOM      1  C   UNL     1      48.640   8.098  13.206  0.00  0.00    +0.000 A 
ATOM      2  C   UNL     1      48.172   9.096  14.058  0.00  0.00    +0.000 A 
ATOM      3  C   UNL     1      48.320   8.984  15.460  0.00  0.00    +0.000 A 
ATOM      4  C   UNL     1      48.835   7.824  16.044  0.00  0.00    +0.000 A 
ATOM      5  C   UNL     1      49.318   6.847  15.183  0.00  0.00    +0.000 A 
ATOM      6  C   UNL     1      49.313   7.032  13.795  0.00  0.00    +0.000 A 
ENDROOT
BRANCH   4   7
ATOM      7  N   UNL     1      48.911   7.640  17.418  0.00  0.00    +0.000 N 
ATOM      8  H   UNL     1      48.894   8.455  18.017  0.00  0.00    +0.000 HD
BRANCH   7   9
ATOM      9  C   UNL     1      48.423   6.379  17.967  0.00  0.00    +0.000 C 
BRANCH   9  10
ATOM     10  C   UNL     1      49.369   5.808  19.031  0.00  0.00    +0.000 C 
ATOM     11  C   UNL     1      50.846   6.011  18.657  0.00  0.00    +0.000 C 
ATOM     12  C   UNL     1      51.229   5.200  17.417  0.00  0.00    +0.000 C 
ATOM     13  C   UNL     1      50.831   3.729  17.573  0.00  0.00    +0.000 C 
ATOM     14  N   UNL     1      49.425   3.587  17.967  0.00  0.00    +0.000 N 
ATOM     15  C   UNL     1      48.550   2.918  17.122  0.00  0.00    +0.000 C 
ATOM     16  C   UNL     1      47.093   2.765  17.501  0.00  0.00    +0.000 C 
ATOM     17  O   UNL     1      48.924   2.434  16.048  0.00  0.00    +0.000 OA
ATOM     18  C   UNL     1      49.079   4.306  19.194  0.00  0.00    +0.000 C 
ENDBRANCH   9  10
ENDBRANCH   7   9
ENDBRANCH   4   7
BRANCH   1  19
ATOM     19  C   UNL     1      48.437   8.111  11.705  0.00  0.00    +0.000 C 
BRANCH  19  22
ATOM     20  C   UNL     1      46.287   6.961  11.259  0.00  0.00    +0.000 C 
ATOM     21  O   UNL     1      45.621   7.911  11.730  0.00  0.00    +0.000 OA
ATOM     22  N   UNL     1      47.650   6.996  11.222  0.00  0.00    +0.000 N 
ATOM     23  H   UNL     1      48.153   6.160  10.941  0.00  0.00    +0.000 HD
BRANCH  20  31
ATOM     24  C   UNL     1      44.509   4.377  12.711  0.00  0.00    +0.000 A 
ATOM     25  N   UNL     1      43.784   3.266  13.000  0.00  0.00    +0.000 NA
ATOM     26  C   UNL     1      43.454   2.451  12.025  0.00  0.00    +0.000 A 
ATOM     27  N   UNL     1      43.743   2.603  10.741  0.00  0.00    +0.000 NA
ATOM     28  C   UNL     1      44.431   3.730  10.477  0.00  0.00    +0.000 A 
ATOM     29  S   UNL     1      44.866   4.084   8.875  0.00  0.00    +0.000 S 
ATOM     30  C   UNL     1      45.658   5.508   9.354  0.00  0.00    +0.000 A 
ATOM     31  C   UNL     1      45.612   5.763  10.721  0.00  0.00    +0.000 A 
ATOM     32  C   UNL     1      44.865   4.689  11.390  0.00  0.00    +0.000 A 
BRANCH  24  34
ATOM     33  C   UNL     1      46.202   4.849  14.192  0.00  0.00    +0.000 C 
ATOM     34  O   UNL     1      44.864   5.169  13.783  0.00  0.00    +0.000 OA
ENDBRANCH  24  34
ENDBRANCH  20  31
ENDBRANCH  19  22
ENDBRANCH   1  19
TORSDOF 7
ENDMDL
MODEL 3
REMARK VINA RESULT:    -6.784      5.281      6.797
REMARK INTER + INTRA:         -10.789
REMARK INTER:                  -9.830
REMARK INTRA:                  -0.959
REMARK UNBOUND:                -1.228
REMARK  Name = 
REMARK  9 active torsions:
REMARK  status: ('A' for Active; 'I' for Inactive)
REMARK    1  A    between atoms: C_1  and  O_2
REMARK    2  A    between atoms: O_2  and  C_3
REMARK    3  A    between atoms: C_10  and  C_11
REMARK    4  A    between atoms: N_13  and  C_14
REMARK    5  A    between atoms: C_14  and  C_15
REMARK    6  A    between atoms: C_18  and  N_19
REMARK    7  A    between atoms: N_19  and  C_20
REMARK    8  A    between atoms: C_20  and  C_21
REMARK    9  A    between atoms: C_26  and  C_27
REMARK                            x       y       z     vdW  Elec       q    Type
REMARK                         _______ _______ _______ _____ _____    ______ ____
ROOT
ATOM      1  C   UNL     1      49.678   8.518  11.761  0.00  0.00    +0.000 A 
ATOM      2  C   UNL     1      48.568   9.361  11.768  0.00  0.00    +0.000 A 
ATOM      3  C   UNL     1      47.294   8.883  12.153  0.00  0.00    +0.000 A 
ATOM      4  C   UNL     1      47.081   7.531  12.430  0.00  0.00    +0.000 A 
ATOM      5  C   UNL     1      48.198   6.707  12.443  0.00  0.00    +0.000 A 
ATOM      6  C   UNL     1      49.482   7.217  12.214  0.00  0.00    +0.000 A 
ENDROOT
BRANCH   4   7
ATOM      7  N   UNL     1      45.828   7.009  12.723  0.00  0.00    +0.000 N 
ATOM      8  H   UNL     1      45.134   7.618  13.138  0.00  0.00    +0.000 HD
BRANCH   7   9
ATOM      9  C   UNL     1      45.356   5.878  11.930  0.00  0.00    +0.000 C 
BRANCH   9  10
ATOM     10  C   UNL     1      43.826   5.779  11.919  0.00  0.00    +0.000 C 
ATOM     11  C   UNL     1      43.297   4.908  13.069  0.00  0.00    +0.000 C 
ATOM     12  C   UNL     1      43.716   3.445  12.904  0.00  0.00    +0.000 C 
ATOM     13  C   UNL     1      43.348   2.917  11.513  0.00  0.00    +0.000 C 
ATOM     14  N   UNL     1      43.841   3.801  10.451  0.00  0.00    +0.000 N 
ATOM     15  C   UNL     1      44.758   3.308   9.533  0.00  0.00    +0.000 C 
ATOM     16  C   UNL     1      45.289   4.202   8.433  0.00  0.00    +0.000 C 
ATOM     17  O   UNL     1      45.169   2.144   9.582  0.00  0.00    +0.000 OA
ATOM     18  C   UNL     1      43.380   5.185  10.571  0.00  0.00    +0.000 C 
ENDBRANCH   9  10
ENDBRANCH   7   9
ENDBRANCH   4   7
BRANCH   1  19
ATOM     19  C   UNL     1      51.050   8.938  11.276  0.00  0.00    +0.000 C 
BRANCH  19  22
ATOM     20  C   UNL     1      53.009   7.985  10.095  0.00  0.00    +0.000 C 
ATOM     21  O   UNL     1      53.437   9.119   9.782  0.00  0.00    +0.000 OA
ATOM     22  N   UNL     1      51.859   7.831  10.813  0.00  0.00    +0.000 N 
ATOM     23  H   UNL     1      51.486   6.897  10.945  0.00  0.00    +0.000 HD
BRANCH  20  31
ATOM     24  C   UNL     1      52.984   6.014   7.255  0.00  0.00    +0.000 A 
ATOM     25  N   UNL     1      53.181   5.082   6.287  0.00  0.00    +0.000 NA
ATOM     26  C   UNL     1      54.016   4.096   6.516  0.00  0.00    +0.000 A 
ATOM     27  N   UNL     1      54.729   3.906   7.617  0.00  0.00    +0.000 NA
ATOM     28  C   UNL     1      54.541   4.863   8.546  0.00  0.00    +0.000 A 
ATOM     29  S   UNL     1      55.394   4.778  10.010  0.00  0.00    +0.000 S 
ATOM     30  C   UNL     1      54.643   6.189  10.585  0.00  0.00    +0.000 A 
ATOM     31  C   UNL     1      53.742   6.766   9.696  0.00  0.00    +0.000 A 
ATOM     32  C   UNL     1      53.692   5.964   8.466  0.00  0.00    +0.000 A 
BRANCH  24  34
ATOM     33  C   UNL     1      52.724   8.114   6.359  0.00  0.00    +0.000 C 
ATOM     34  O   UNL     1      52.062   7.000   6.975  0.00  0.00    +0.000 OA
ENDBRANCH  24  34
ENDBRANCH  20  31
ENDBRANCH  19  22
ENDBRANCH   1  19
TORSDOF 7
ENDMDL
MODEL 4
REMARK VINA RESULT:    -6.704      2.035      2.320
REMARK INTER + INTRA:         -10.675
REMARK INTER:                  -9.364
REMARK INTRA:                  -1.311
REMARK UNBOUND:                -1.228
REMARK  Name = 
REMARK  9 active torsions:
REMARK  status: ('A' for Active; 'I' for Inactive)
REMARK    1  A    between atoms: C_1  and  O_2
REMARK    2  A    between atoms: O_2  and  C_3
REMARK    3  A    between atoms: C_10  and  C_11
REMARK    4  A    between atoms: N_13  and  C_14
REMARK    5  A    between atoms: C_14  and  C_15
REMARK    6  A    between atoms: C_18  and  N_19
REMARK    7  A    between atoms: N_19  and  C_20
REMARK    8  A    between atoms: C_20  and  C_21
REMARK    9  A    between atoms: C_26  and  C_27
REMARK                            x       y       z     vdW  Elec       q    Type
REMARK                         _______ _______ _______ _____ _____    ______ ____
ROOT
ATOM      1  C   UNL     1      49.794   7.613  13.619  0.00  0.00    +0.000 A 
ATOM      2  C   UNL     1      49.744   7.841  12.245  0.00  0.00    +0.000 A 
ATOM      3  C   UNL     1      48.545   7.652  11.520  0.00  0.00    +0.000 A 
ATOM      4  C   UNL     1      47.404   7.126  12.129  0.00  0.00    +0.000 A 
ATOM      5  C   UNL     1      47.460   6.926  13.502  0.00  0.00    +0.000 A 
ATOM      6  C   UNL     1      48.600   7.263  14.242  0.00  0.00    +0.000 A 
ENDROOT
BRANCH   4   7
ATOM      7  N   UNL     1      46.239   6.842  11.431  0.00  0.00    +0.000 N 
ATOM      8  H   UNL     1      46.059   7.336  10.566  0.00  0.00    +0.000 HD
BRANCH   7   9
ATOM      9  C   UNL     1      45.649   5.516  11.594  0.00  0.00    +0.000 C 
BRANCH   9  10
ATOM     10  C   UNL     1      44.130   5.579  11.784  0.00  0.00    +0.000 C 
ATOM     11  C   UNL     1      43.666   4.760  12.998  0.00  0.00    +0.000 C 
ATOM     12  C   UNL     1      43.903   3.262  12.789  0.00  0.00    +0.000 C 
ATOM     13  C   UNL     1      43.303   2.787  11.462  0.00  0.00    +0.000 C 
ATOM     14  N   UNL     1      43.744   3.622  10.339  0.00  0.00    +0.000 N 
ATOM     15  C   UNL     1      44.476   3.042   9.313  0.00  0.00    +0.000 C 
ATOM     16  C   UNL     1      44.950   3.883   8.146  0.00  0.00    +0.000 C 
ATOM     17  O   UNL     1      44.764   1.840   9.315  0.00  0.00    +0.000 OA
ATOM     18  C   UNL     1      43.451   5.045  10.510  0.00  0.00    +0.000 C 
ENDBRANCH   9  10
ENDBRANCH   7   9
ENDBRANCH   4   7
BRANCH   1  19
ATOM     19  C   UNL     1      51.062   7.709  14.442  0.00  0.00    +0.000 C 
BRANCH  19  22
ATOM     20  C   UNL     1      51.862   6.663  16.542  0.00  0.00    +0.000 C 
ATOM     21  O   UNL     1      52.987   6.414  16.050  0.00  0.00    +0.000 OA
ATOM     22  N   UNL     1      50.889   7.284  15.815  0.00  0.00    +0.000 N 
ATOM     23  H   UNL     1      49.958   7.362  16.211  0.00  0.00    +0.000 HD
BRANCH  20  31
ATOM     24  C   UNL     1      49.342   4.809  18.009  0.00  0.00    +0.000 A 
ATOM     25  N   UNL     1      48.496   4.146  18.840  0.00  0.00    +0.000 NA
ATOM     26  C   UNL     1      48.710   4.193  20.134  0.00  0.00    +0.000 A 
ATOM     27  N   UNL     1      49.702   4.822  20.746  0.00  0.00    +0.000 NA
ATOM     28  C   UNL     1      50.546   5.441  19.898  0.00  0.00    +0.000 A 
ATOM     29  S   UNL     1      51.883   6.281  20.521  0.00  0.00    +0.000 S 
ATOM     30  C   UNL     1      52.370   6.756  18.964  0.00  0.00    +0.000 A 
ATOM     31  C   UNL     1      51.553   6.294  17.938  0.00  0.00    +0.000 A 
ATOM     32  C   UNL     1      50.459   5.497  18.509  0.00  0.00    +0.000 A 
BRANCH  24  34
ATOM     33  C   UNL     1      47.673   4.358  16.495  0.00  0.00    +0.000 C 
ATOM     34  O   UNL     1      49.040   4.761  16.665  0.00  0.00    +0.000 OA
ENDBRANCH  24  34
ENDBRANCH  20  31
ENDBRANCH  19  22
ENDBRANCH   1  19
TORSDOF 7
ENDMDL
MODEL 5
REMARK VINA RESULT:    -6.362      3.347      5.177
REMARK INTER + INTRA:         -10.193
REMARK INTER:                  -8.941
REMARK INTRA:                  -1.253
REMARK UNBOUND:                -1.228
REMARK  Name = 
REMARK  9 active torsions:
REMARK  status: ('A' for Active; 'I' for Inactive)
REMARK    1  A    between atoms: C_1  and  O_2
REMARK    2  A    between atoms: O_2  and  C_3
REMARK    3  A    between atoms: C_10  and  C_11
REMARK    4  A    between atoms: N_13  and  C_14
REMARK    5  A    between atoms: C_14  and  C_15
REMARK    6  A    between atoms: C_18  and  N_19
REMARK    7  A    between atoms: N_19  and  C_20
REMARK    8  A    between atoms: C_20  and  C_21
REMARK    9  A    between atoms: C_26  and  C_27
REMARK                            x       y       z     vdW  Elec       q    Type
REMARK                         _______ _______ _______ _____ _____    ______ ____
ROOT
ATOM      1  C   UNL     1      47.431   5.476  14.280  0.00  0.00    +0.000 A 
ATOM      2  C   UNL     1      47.894   6.516  13.477  0.00  0.00    +0.000 A 
ATOM      3  C   UNL     1      47.302   6.784  12.221  0.00  0.00    +0.000 A 
ATOM      4  C   UNL     1      46.314   5.950  11.693  0.00  0.00    +0.000 A 
ATOM      5  C   UNL     1      45.846   4.931  12.512  0.00  0.00    +0.000 A 
ATOM      6  C   UNL     1      46.326   4.768  13.817  0.00  0.00    +0.000 A 
ENDROOT
BRANCH   4   7
ATOM      7  N   UNL     1      45.775   6.127  10.426  0.00  0.00    +0.000 N 
ATOM      8  H   UNL     1      45.747   7.061  10.037  0.00  0.00    +0.000 HD
BRANCH   7   9
ATOM      9  C   UNL     1      45.828   5.003   9.496  0.00  0.00    +0.000 C 
BRANCH   9  10
ATOM     10  C   UNL     1      44.431   4.546   9.062  0.00  0.00    +0.000 C 
ATOM     11  C   UNL     1      43.726   3.728  10.156  0.00  0.00    +0.000 C 
ATOM     12  C   UNL     1      44.437   2.396  10.408  0.00  0.00    +0.000 C 
ATOM     13  C   UNL     1      44.644   1.624   9.101  0.00  0.00    +0.000 C 
ATOM     14  N   UNL     1      45.285   2.456   8.076  0.00  0.00    +0.000 N 
ATOM     15  C   UNL     1      46.524   2.081   7.578  0.00  0.00    +0.000 C 
ATOM     16  C   UNL     1      47.210   2.926   6.526  0.00  0.00    +0.000 C 
ATOM     17  O   UNL     1      47.103   1.061   7.969  0.00  0.00    +0.000 OA
ATOM     18  C   UNL     1      44.564   3.697   7.786  0.00  0.00    +0.000 C 
ENDBRANCH   9  10
ENDBRANCH   7   9
ENDBRANCH   4   7
BRANCH   1  19
ATOM     19  C   UNL     1      48.073   5.078  15.593  0.00  0.00    +0.000 C 
BRANCH  19  22
ATOM     20  C   UNL     1      48.654   6.131  17.760  0.00  0.00    +0.000 C 
ATOM     21  O   UNL     1      49.621   5.356  17.937  0.00  0.00    +0.000 OA
ATOM     22  N   UNL     1      47.866   6.044  16.650  0.00  0.00    +0.000 N 
ATOM     23  H   UNL     1      47.026   6.612  16.601  0.00  0.00    +0.000 HD
BRANCH  20  31
ATOM     24  C   UNL     1      48.032   9.523  17.534  0.00  0.00    +0.000 A 
ATOM     25  N   UNL     1      47.754  10.836  17.742  0.00  0.00    +0.000 NA
ATOM     26  C   UNL     1      47.572  11.260  18.971  0.00  0.00    +0.000 A 
ATOM     27  N   UNL     1      47.611  10.524  20.072  0.00  0.00    +0.000 NA
ATOM     28  C   UNL     1      47.853   9.220  19.834  0.00  0.00    +0.000 A 
ATOM     29  S   UNL     1      47.919   8.137  21.139  0.00  0.00    +0.000 S 
ATOM     30  C   UNL     1      48.267   6.836  20.102  0.00  0.00    +0.000 A 
ATOM     31  C   UNL     1      48.334   7.174  18.755  0.00  0.00    +0.000 A 
ATOM     32  C   UNL     1      48.077   8.613  18.602  0.00  0.00    +0.000 A 
BRANCH  24  34
ATOM     33  C   UNL     1      49.664   9.225  15.943  0.00  0.00    +0.000 C 
ATOM     34  O   UNL     1      48.259   9.146  16.227  0.00  0.00    +0.000 OA
ENDBRANCH  24  34
ENDBRANCH  20  31
ENDBRANCH  19  22
ENDBRANCH   1  19
TORSDOF 7
ENDMDL
MODEL 6
REMARK VINA RESULT:    -6.352      5.276      7.024
REMARK INTER + INTRA:         -10.180
REMARK INTER:                  -9.230
REMARK INTRA:                  -0.950
REMARK UNBOUND:                -1.228
REMARK  Name = 
REMARK  9 active torsions:
REMARK  status: ('A' for Active; 'I' for Inactive)
REMARK    1  A    between atoms: C_1  and  O_2
REMARK    2  A    between atoms: O_2  and  C_3
REMARK    3  A    between atoms: C_10  and  C_11
REMARK    4  A    between atoms: N_13  and  C_14
REMARK    5  A    between atoms: C_14  and  C_15
REMARK    6  A    between atoms: C_18  and  N_19
REMARK    7  A    between atoms: N_19  and  C_20
REMARK    8  A    between atoms: C_20  and  C_21
REMARK    9  A    between atoms: C_26  and  C_27
REMARK                            x       y       z     vdW  Elec       q    Type
REMARK                         _______ _______ _______ _____ _____    ______ ____
ROOT
ATOM      1  C   UNL     1      49.576   8.693  12.377  0.00  0.00    +0.000 A 
ATOM      2  C   UNL     1      48.357   9.231  11.970  0.00  0.00    +0.000 A 
ATOM      3  C   UNL     1      47.138   8.577  12.267  0.00  0.00    +0.000 A 
ATOM      4  C   UNL     1      47.120   7.320  12.876  0.00  0.00    +0.000 A 
ATOM      5  C   UNL     1      48.340   6.806  13.297  0.00  0.00    +0.000 A 
ATOM      6  C   UNL     1      49.528   7.531  13.140  0.00  0.00    +0.000 A 
ENDROOT
BRANCH   4   7
ATOM      7  N   UNL     1      45.950   6.607  13.101  0.00  0.00    +0.000 N 
ATOM      8  H   UNL     1      45.283   6.969  13.771  0.00  0.00    +0.000 HD
BRANCH   7   9
ATOM      9  C   UNL     1      45.444   5.765  12.022  0.00  0.00    +0.000 C 
BRANCH   9  10
ATOM     10  C   UNL     1      43.912   5.737  11.981  0.00  0.00    +0.000 C 
ATOM     11  C   UNL     1      43.322   4.845  13.085  0.00  0.00    +0.000 C 
ATOM     12  C   UNL     1      43.678   3.372  12.867  0.00  0.00    +0.000 C 
ATOM     13  C   UNL     1      43.313   2.918  11.450  0.00  0.00    +0.000 C 
ATOM     14  N   UNL     1      43.865   3.820  10.433  0.00  0.00    +0.000 N 
ATOM     15  C   UNL     1      44.777   3.324   9.512  0.00  0.00    +0.000 C 
ATOM     16  C   UNL     1      45.368   4.235   8.458  0.00  0.00    +0.000 C 
ATOM     17  O   UNL     1      45.133   2.140   9.520  0.00  0.00    +0.000 OA
ATOM     18  C   UNL     1      43.465   5.218  10.603  0.00  0.00    +0.000 C 
ENDBRANCH   9  10
ENDBRANCH   7   9
ENDBRANCH   4   7
BRANCH   1  19
ATOM     19  C   UNL     1      50.920   9.291  12.017  0.00  0.00    +0.000 C 
BRANCH  19  22
ATOM     20  C   UNL     1      52.617   8.685  10.315  0.00  0.00    +0.000 C 
ATOM     21  O   UNL     1      53.532   8.637  11.169  0.00  0.00    +0.000 OA
ATOM     22  N   UNL     1      51.335   8.999  10.662  0.00  0.00    +0.000 N 
ATOM     23  H   UNL     1      50.650   9.140   9.927  0.00  0.00    +0.000 HD
BRANCH  20  31
ATOM     24  C   UNL     1      53.530   5.826   8.602  0.00  0.00    +0.000 A 
ATOM     25  N   UNL     1      53.883   4.883   7.690  0.00  0.00    +0.000 NA
ATOM     26  C   UNL     1      54.038   5.239   6.436  0.00  0.00    +0.000 A 
ATOM     27  N   UNL     1      53.868   6.454   5.935  0.00  0.00    +0.000 NA
ATOM     28  C   UNL     1      53.484   7.361   6.853  0.00  0.00    +0.000 A 
ATOM     29  S   UNL     1      53.206   8.964   6.371  0.00  0.00    +0.000 S 
ATOM     30  C   UNL     1      52.833   9.428   7.962  0.00  0.00    +0.000 A 
ATOM     31  C   UNL     1      52.897   8.398   8.894  0.00  0.00    +0.000 A 
ATOM     32  C   UNL     1      53.285   7.153   8.215  0.00  0.00    +0.000 A 
BRANCH  24  34
ATOM     33  C   UNL     1      54.740   5.255  10.470  0.00  0.00    +0.000 C 
ATOM     34  O   UNL     1      53.427   5.402   9.909  0.00  0.00    +0.000 OA
ENDBRANCH  24  34
ENDBRANCH  20  31
ENDBRANCH  19  22
ENDBRANCH   1  19
TORSDOF 7
ENDMDL
MODEL 7
REMARK VINA RESULT:    -6.269      3.111      8.583
REMARK INTER + INTRA:         -10.063
REMARK INTER:                  -8.599
REMARK INTRA:                  -1.464
REMARK UNBOUND:                -1.228
REMARK  Name = 
REMARK  9 active torsions:
REMARK  status: ('A' for Active; 'I' for Inactive)
REMARK    1  A    between atoms: C_1  and  O_2
REMARK    2  A    between atoms: O_2  and  C_3
REMARK    3  A    between atoms: C_10  and  C_11
REMARK    4  A    between atoms: N_13  and  C_14
REMARK    5  A    between atoms: C_14  and  C_15
REMARK    6  A    between atoms: C_18  and  N_19
REMARK    7  A    between atoms: N_19  and  C_20
REMARK    8  A    between atoms: C_20  and  C_21
REMARK    9  A    between atoms: C_26  and  C_27
REMARK                            x       y       z     vdW  Elec       q    Type
REMARK                         _______ _______ _______ _____ _____    ______ ____
ROOT
ATOM      1  C   UNL     1      49.566   7.882  14.010  0.00  0.00    +0.000 A 
ATOM      2  C   UNL     1      48.891   7.225  15.038  0.00  0.00    +0.000 A 
ATOM      3  C   UNL     1      49.573   6.807  16.204  0.00  0.00    +0.000 A 
ATOM      4  C   UNL     1      50.959   6.934  16.319  0.00  0.00    +0.000 A 
ATOM      5  C   UNL     1      51.615   7.611  15.299  0.00  0.00    +0.000 A 
ATOM      6  C   UNL     1      50.912   8.162  14.221  0.00  0.00    +0.000 A 
ENDROOT
BRANCH   4   7
ATOM      7  N   UNL     1      51.673   6.453  17.408  0.00  0.00    +0.000 N 
ATOM      8  H   UNL     1      51.227   6.448  18.316  0.00  0.00    +0.000 HD
BRANCH   7   9
ATOM      9  C   UNL     1      52.723   5.470  17.157  0.00  0.00    +0.000 C 
BRANCH   9  10
ATOM     10  C   UNL     1      53.225   4.819  18.450  0.00  0.00    +0.000 C 
ATOM     11  C   UNL     1      54.503   3.996  18.222  0.00  0.00    +0.000 C 
ATOM     12  C   UNL     1      54.236   2.779  17.332  0.00  0.00    +0.000 C 
ATOM     13  C   UNL     1      53.059   1.954  17.861  0.00  0.00    +0.000 C 
ATOM     14  N   UNL     1      51.876   2.788  18.099  0.00  0.00    +0.000 N 
ATOM     15  C   UNL     1      50.714   2.534  17.383  0.00  0.00    +0.000 C 
ATOM     16  C   UNL     1      49.482   3.386  17.604  0.00  0.00    +0.000 C 
ATOM     17  O   UNL     1      50.646   1.621  16.554  0.00  0.00    +0.000 OA
ATOM     18  C   UNL     1      52.116   3.910  19.008  0.00  0.00    +0.000 C 
ENDBRANCH   9  10
ENDBRANCH   7   9
ENDBRANCH   4   7
BRANCH   1  19
ATOM     19  C   UNL     1      48.919   8.278  12.699  0.00  0.00    +0.000 C 
BRANCH  19  22
ATOM     20  C   UNL     1      46.486   7.809  12.651  0.00  0.00    +0.000 C 
ATOM     21  O   UNL     1      46.217   8.871  13.256  0.00  0.00    +0.000 OA
ATOM     22  N   UNL     1      47.772   7.464  12.355  0.00  0.00    +0.000 N 
ATOM     23  H   UNL     1      47.956   6.544  11.969  0.00  0.00    +0.000 HD
BRANCH  20  31
ATOM     24  C   UNL     1      46.029   4.395  12.934  0.00  0.00    +0.000 A 
ATOM     25  N   UNL     1      45.592   3.109  12.903  0.00  0.00    +0.000 NA
ATOM     26  C   UNL     1      44.458   2.838  12.300  0.00  0.00    +0.000 A 
ATOM     27  N   UNL     1      43.651   3.708  11.711  0.00  0.00    +0.000 NA
ATOM     28  C   UNL     1      44.091   4.979  11.786  0.00  0.00    +0.000 A 
ATOM     29  S   UNL     1      43.164   6.221  11.094  0.00  0.00    +0.000 S 
ATOM     30  C   UNL     1      44.310   7.392  11.543  0.00  0.00    +0.000 A 
ATOM     31  C   UNL     1      45.410   6.889  12.229  0.00  0.00    +0.000 A 
ATOM     32  C   UNL     1      45.267   5.434  12.377  0.00  0.00    +0.000 A 
BRANCH  24  34
ATOM     33  C   UNL     1      47.179   4.198  14.913  0.00  0.00    +0.000 C 
ATOM     34  O   UNL     1      47.248   4.610  13.541  0.00  0.00    +0.000 OA
ENDBRANCH  24  34
ENDBRANCH  20  31
ENDBRANCH  19  22
ENDBRANCH   1  19
TORSDOF 7
ENDMDL
MODEL 8
REMARK VINA RESULT:    -6.066      5.636      9.066
REMARK INTER + INTRA:          -9.776
REMARK INTER:                  -8.784
REMARK INTRA:                  -0.993
REMARK UNBOUND:                -1.228
REMARK  Name = 
REMARK  9 active torsions:
REMARK  status: ('A' for Active; 'I' for Inactive)
REMARK    1  A    between atoms: C_1  and  O_2
REMARK    2  A    between atoms: O_2  and  C_3
REMARK    3  A    between atoms: C_10  and  C_11
REMARK    4  A    between atoms: N_13  and  C_14
REMARK    5  A    between atoms: C_14  and  C_15
REMARK    6  A    between atoms: C_18  and  N_19
REMARK    7  A    between atoms: N_19  and  C_20
REMARK    8  A    between atoms: C_20  and  C_21
REMARK    9  A    between atoms: C_26  and  C_27
REMARK                            x       y       z     vdW  Elec       q    Type
REMARK                         _______ _______ _______ _____ _____    ______ ____
ROOT
ATOM      1  C   UNL     1      49.530   8.484  11.685  0.00  0.00    +0.000 A 
ATOM      2  C   UNL     1      49.932   9.807  11.509  0.00  0.00    +0.000 A 
ATOM      3  C   UNL     1      51.172  10.115  10.902  0.00  0.00    +0.000 A 
ATOM      4  C   UNL     1      52.082   9.112  10.562  0.00  0.00    +0.000 A 
ATOM      5  C   UNL     1      51.659   7.799  10.720  0.00  0.00    +0.000 A 
ATOM      6  C   UNL     1      50.369   7.499  11.175  0.00  0.00    +0.000 A 
ENDROOT
BRANCH   4   7
ATOM      7  N   UNL     1      53.344   9.380  10.049  0.00  0.00    +0.000 N 
ATOM      8  H   UNL     1      53.906  10.094  10.494  0.00  0.00    +0.000 HD
BRANCH   7   9
ATOM      9  C   UNL     1      54.037   8.307   9.342  0.00  0.00    +0.000 C 
BRANCH   9  10
ATOM     10  C   UNL     1      54.851   8.831   8.153  0.00  0.00    +0.000 C 
ATOM     11  C   UNL     1      54.023   9.763   7.254  0.00  0.00    +0.000 C 
ATOM     12  C   UNL     1      52.886   9.010   6.560  0.00  0.00    +0.000 C 
ATOM     13  C   UNL     1      53.407   7.764   5.837  0.00  0.00    +0.000 C 
ATOM     14  N   UNL     1      54.221   6.925   6.724  0.00  0.00    +0.000 N 
ATOM     15  C   UNL     1      53.805   5.630   7.000  0.00  0.00    +0.000 C 
ATOM     16  C   UNL     1      54.623   4.747   7.918  0.00  0.00    +0.000 C 
ATOM     17  O   UNL     1      52.770   5.160   6.516  0.00  0.00    +0.000 OA
ATOM     18  C   UNL     1      55.351   7.630   7.332  0.00  0.00    +0.000 C 
ENDBRANCH   9  10
ENDBRANCH   7   9
ENDBRANCH   4   7
BRANCH   1  19
ATOM     19  C   UNL     1      48.260   8.080  12.405  0.00  0.00    +0.000 C 
BRANCH  19  22
ATOM     20  C   UNL     1      46.209   6.992  11.537  0.00  0.00    +0.000 C 
ATOM     21  O   UNL     1      45.487   7.952  11.892  0.00  0.00    +0.000 OA
ATOM     22  N   UNL     1      47.555   6.993  11.760  0.00  0.00    +0.000 N 
ATOM     23  H   UNL     1      48.084   6.150  11.563  0.00  0.00    +0.000 HD
BRANCH  20  31
ATOM     24  C   UNL     1      44.429   4.244  12.643  0.00  0.00    +0.000 A 
ATOM     25  N   UNL     1      43.727   3.090  12.787  0.00  0.00    +0.000 NA
ATOM     26  C   UNL     1      43.502   2.346  11.729  0.00  0.00    +0.000 A 
ATOM     27  N   UNL     1      43.880   2.610  10.487  0.00  0.00    +0.000 NA
ATOM     28  C   UNL     1      44.542   3.776  10.366  0.00  0.00    +0.000 A 
ATOM     29  S   UNL     1      45.081   4.271   8.835  0.00  0.00    +0.000 S 
ATOM     30  C   UNL     1      45.780   5.677   9.482  0.00  0.00    +0.000 A 
ATOM     31  C   UNL     1      45.622   5.820  10.857  0.00  0.00    +0.000 A 
ATOM     32  C   UNL     1      44.869   4.672  11.381  0.00  0.00    +0.000 A 
BRANCH  24  34
ATOM     33  C   UNL     1      46.025   4.736  14.221  0.00  0.00    +0.000 C 
ATOM     34  O   UNL     1      44.672   4.959  13.797  0.00  0.00    +0.000 OA
ENDBRANCH  24  34
ENDBRANCH  20  31
ENDBRANCH  19  22
ENDBRANCH   1  19
TORSDOF 7
ENDMDL
MODEL 9
REMARK VINA RESULT:    -5.832      5.577      8.530
REMARK INTER + INTRA:          -9.447
REMARK INTER:                  -8.127
REMARK INTRA:                  -1.321
REMARK UNBOUND:                -1.228
REMARK  Name = 
REMARK  9 active torsions:
REMARK  status: ('A' for Active; 'I' for Inactive)
REMARK    1  A    between atoms: C_1  and  O_2
REMARK    2  A    between atoms: O_2  and  C_3
REMARK    3  A    between atoms: C_10  and  C_11
REMARK    4  A    between atoms: N_13  and  C_14
REMARK    5  A    between atoms: C_14  and  C_15
REMARK    6  A    between atoms: C_18  and  N_19
REMARK    7  A    between atoms: N_19  and  C_20
REMARK    8  A    between atoms: C_20  and  C_21
REMARK    9  A    between atoms: C_26  and  C_27
REMARK                            x       y       z     vdW  Elec       q    Type
REMARK                         _______ _______ _______ _____ _____    ______ ____
ROOT
ATOM      1  C   UNL     1      49.086  10.021  11.473  0.00  0.00    +0.000 A 
ATOM      2  C   UNL     1      49.597  11.119  10.782  0.00  0.00    +0.000 A 
ATOM      3  C   UNL     1      50.922  11.117  10.289  0.00  0.00    +0.000 A 
ATOM      4  C   UNL     1      51.799  10.067  10.573  0.00  0.00    +0.000 A 
ATOM      5  C   UNL     1      51.272   8.969  11.241  0.00  0.00    +0.000 A 
ATOM      6  C   UNL     1      49.917   8.911  11.589  0.00  0.00    +0.000 A 
ENDROOT
BRANCH   4   7
ATOM      7  N   UNL     1      53.132  10.071  10.184  0.00  0.00    +0.000 N 
ATOM      8  H   UNL     1      53.789  10.631  10.712  0.00  0.00    +0.000 HD
BRANCH   7   9
ATOM      9  C   UNL     1      53.643   8.896   9.484  0.00  0.00    +0.000 C 
BRANCH   9  10
ATOM     10  C   UNL     1      54.555   9.275   8.312  0.00  0.00    +0.000 C 
ATOM     11  C   UNL     1      53.856  10.219   7.320  0.00  0.00    +0.000 C 
ATOM     12  C   UNL     1      52.690   9.526   6.611  0.00  0.00    +0.000 C 
ATOM     13  C   UNL     1      53.131   8.197   5.988  0.00  0.00    +0.000 C 
ATOM     14  N   UNL     1      53.826   7.347   6.962  0.00  0.00    +0.000 N 
ATOM     15  C   UNL     1      53.285   6.112   7.288  0.00  0.00    +0.000 C 
ATOM     16  C   UNL     1      53.977   5.219   8.296  0.00  0.00    +0.000 C 
ATOM     17  O   UNL     1      52.235   5.704   6.778  0.00  0.00    +0.000 OA
ATOM     18  C   UNL     1      54.985   7.988   7.586  0.00  0.00    +0.000 C 
ENDBRANCH   9  10
ENDBRANCH   7   9
ENDBRANCH   4   7
BRANCH   1  19
ATOM     19  C   UNL     1      47.710   9.991  12.104  0.00  0.00    +0.000 C 
BRANCH  19  22
ATOM     20  C   UNL     1      45.796   8.430  12.312  0.00  0.00    +0.000 C 
ATOM     21  O   UNL     1      44.977   9.369  12.437  0.00  0.00    +0.000 OA
ATOM     22  N   UNL     1      47.130   8.665  12.152  0.00  0.00    +0.000 N 
ATOM     23  H   UNL     1      47.771   7.879  12.171  0.00  0.00    +0.000 HD
BRANCH  20  31
ATOM     24  C   UNL     1      47.178   5.495  13.504  0.00  0.00    +0.000 A 
ATOM     25  N   UNL     1      47.468   4.220  13.870  0.00  0.00    +0.000 NA
ATOM     26  C   UNL     1      46.621   3.264  13.567  0.00  0.00    +0.000 A 
ATOM     27  N   UNL     1      45.464   3.407  12.937  0.00  0.00    +0.000 NA
ATOM     28  C   UNL     1      45.185   4.685  12.618  0.00  0.00    +0.000 A 
ATOM     29  S   UNL     1      43.730   5.044  11.820  0.00  0.00    +0.000 S 
ATOM     30  C   UNL     1      44.118   6.696  11.753  0.00  0.00    +0.000 A 
ATOM     31  C   UNL     1      45.339   7.026  12.332  0.00  0.00    +0.000 A 
ATOM     32  C   UNL     1      45.973   5.808  12.856  0.00  0.00    +0.000 A 
BRANCH  24  34
ATOM     33  C   UNL     1      48.445   6.377  15.207  0.00  0.00    +0.000 C 
ATOM     34  O   UNL     1      48.127   6.448  13.809  0.00  0.00    +0.000 OA
ENDBRANCH  24  34
ENDBRANCH  20  31
ENDBRANCH  19  22
ENDBRANCH   1  19
TORSDOF 7
ENDMDL
