MODEL 1
REMARK VINA RESULT:    -8.533      0.000      0.000
REMARK INTER + INTRA:         -13.229
REMARK INTER:                 -12.025
REMARK INTRA:                  -1.203
REMARK UNBOUND:                -1.203
REMARK  Name = 
REMARK  8 active torsions:
REMARK  status: ('A' for Active; 'I' for Inactive)
REMARK    1  A    between atoms: C_1  and  C_2
REMARK    2  A    between atoms: C_2  and  N_3
REMARK    3  A    between atoms: C_2  and  C_25
REMARK    4  A    between atoms: N_3  and  C_4
REMARK    5  A    between atoms: C_4  and  C_5
REMARK    6  A    between atoms: C_8  and  C_9
REMARK    7  A    between atoms: C_9  and  N_10
REMARK    8  A    between atoms: C_11  and  C_13
REMARK                            x       y       z     vdW  Elec       q    Type
REMARK                         _______ _______ _______ _____ _____    ______ ____
ROOT
ATOM      1  C   UNL     1      44.492   5.310  10.930  0.00  0.00    +0.000 A 
ATOM      2  C   UNL     1      45.720   5.736  10.416  0.00  0.00    +0.000 A 
ATOM      3  C   UNL     1      46.548   6.549  11.182  0.00  0.00    +0.000 A 
ATOM      4  C   UNL     1      46.115   6.946  12.443  0.00  0.00    +0.000 A 
ATOM      5  N   UNL     1      44.932   6.537  12.971  0.00  0.00    +0.000 NA
ATOM      6  C   UNL     1      44.156   5.736  12.208  0.00  0.00    +0.000 A 
ENDROOT
BRANCH   1   7
ATOM      7  C   UNL     1      43.537   4.499  10.100  0.00  0.00    +0.000 C 
BRANCH   7   8
ATOM      8  N   UNL     1      44.166   3.994   8.881  0.00  0.00    +0.000 NA
ATOM      9  H   UNL     1      44.731   4.736   8.470  0.00  0.00    +0.000 HD
BRANCH   8  11
ATOM     10  C   UNL     1      44.233   1.520   9.243  0.00  0.00    +0.000 C 
ATOM     11  C   UNL     1      45.034   2.825   9.108  0.00  0.00    +0.000 C 
BRANCH  11  12
ATOM     12  C   UNL     1      46.041   2.637   7.974  0.00  0.00    +0.000 A 
ATOM     13  C   UNL     1      46.723   1.415   7.833  0.00  0.00    +0.000 A 
ATOM     14  C   UNL     1      47.525   1.167   6.715  0.00  0.00    +0.000 A 
ATOM     15  C   UNL     1      47.670   2.139   5.729  0.00  0.00    +0.000 A 
ATOM     16  C   UNL     1      47.033   3.370   5.871  0.00  0.00    +0.000 A 
ATOM     17  C   UNL     1      46.222   3.615   6.981  0.00  0.00    +0.000 A 
ENDBRANCH  11  12
ENDBRANCH   8  11
ENDBRANCH   7   8
ENDBRANCH   1   7
BRANCH   4  18
ATOM     18  C   UNL     1      46.975   7.852  13.287  0.00  0.00    +0.000 C 
BRANCH  18  19
ATOM     19  N   UNL     1      47.447   7.196  14.481  0.00  0.00    +0.000 N 
ATOM     20  C   UNL     1      48.732   6.751  14.626  0.00  0.00    +0.000 C 
ATOM     21  O   UNL     1      49.578   6.881  13.747  0.00  0.00    +0.000 OA
ATOM     22  H   UNL     1      46.722   6.853  15.102  0.00  0.00    +0.000 HD
BRANCH  20  23
ATOM     23  C   UNL     1      49.074   6.184  15.942  0.00  0.00    +0.000 A 
ATOM     24  C   UNL     1      50.070   6.769  16.706  0.00  0.00    +0.000 A 
ATOM     25  S   UNL     1      50.281   6.034  18.232  0.00  0.00    +0.000 S 
ATOM     26  C   UNL     1      49.083   4.873  17.900  0.00  0.00    +0.000 A 
ATOM     27  N   UNL     1      48.775   3.906  18.806  0.00  0.00    +0.000 NA
ATOM     28  C   UNL     1      47.869   3.074  18.414  0.00  0.00    +0.000 A 
ATOM     29  N   UNL     1      47.235   3.127  17.198  0.00  0.00    +0.000 N 
ATOM     30  C   UNL     1      47.483   4.110  16.271  0.00  0.00    +0.000 A 
ATOM     31  O   UNL     1      46.842   4.172  15.229  0.00  0.00    +0.000 OA
ATOM     32  C   UNL     1      48.514   5.056  16.652  0.00  0.00    +0.000 A 
ATOM     33  H   UNL     1      46.520   2.457  16.955  0.00  0.00    +0.000 HD
ENDBRANCH  20  23
ENDBRANCH  18  19
ENDBRANCH   4  18
TORSDOF 7
ENDMDL
MODEL 2
REMARK VINA RESULT:    -8.153      1.742      2.187
REMARK INTER + INTRA:         -12.692
REMARK INTER:                 -11.551
REMARK INTRA:                  -1.141
REMARK UNBOUND:                -1.203
REMARK  Name = 
REMARK  8 active torsions:
REMARK  status: ('A' for Active; 'I' for Inactive)
REMARK    1  A    between atoms: C_1  and  C_2
REMARK    2  A    between atoms: C_2  and  N_3
REMARK    3  A    between atoms: C_2  and  C_25
REMARK    4  A    between atoms: N_3  and  C_4
REMARK    5  A    between atoms: C_4  and  C_5
REMARK    6  A    between atoms: C_8  and  C_9
REMARK    7  A    between atoms: C_9  and  N_10
REMARK    8  A    between atoms: C_11  and  C_13
REMARK                            x       y       z     vdW  Elec       q    Type
REMARK                         _______ _______ _______ _____ _____    ______ ____
ROOT
ATOM      1  C   UNL     1      45.797   4.624  12.503  0.00  0.00    +0.000 A 
ATOM      2  C   UNL     1      46.103   5.851  11.907  0.00  0.00    +0.000 A 
ATOM      3  C   UNL     1      47.136   6.631  12.417  0.00  0.00    +0.000 A 
ATOM      4  C   UNL     1      47.826   6.179  13.537  0.00  0.00    +0.000 A 
ATOM      5  N   UNL     1      47.557   4.985  14.128  0.00  0.00    +0.000 NA
ATOM      6  C   UNL     1      46.557   4.243  13.601  0.00  0.00    +0.000 A 
ENDROOT
BRANCH   1   7
ATOM      7  C   UNL     1      44.637   3.794  12.030  0.00  0.00    +0.000 C 
BRANCH   7   8
ATOM      8  N   UNL     1      45.056   2.759  11.086  0.00  0.00    +0.000 NA
ATOM      9  H   UNL     1      44.776   1.848  11.449  0.00  0.00    +0.000 HD
BRANCH   8  11
ATOM     10  C   UNL     1      43.880   4.320   9.524  0.00  0.00    +0.000 C 
ATOM     11  C   UNL     1      44.473   2.918   9.742  0.00  0.00    +0.000 C 
BRANCH  11  12
ATOM     12  C   UNL     1      45.506   2.675   8.642  0.00  0.00    +0.000 A 
ATOM     13  C   UNL     1      46.029   1.385   8.441  0.00  0.00    +0.000 A 
ATOM     14  C   UNL     1      46.850   1.109   7.343  0.00  0.00    +0.000 A 
ATOM     15  C   UNL     1      47.174   2.117   6.440  0.00  0.00    +0.000 A 
ATOM     16  C   UNL     1      46.697   3.409   6.645  0.00  0.00    +0.000 A 
ATOM     17  C   UNL     1      45.867   3.685   7.735  0.00  0.00    +0.000 A 
ENDBRANCH  11  12
ENDBRANCH   8  11
ENDBRANCH   7   8
ENDBRANCH   1   7
BRANCH   4  18
ATOM     18  C   UNL     1      48.930   7.014  14.133  0.00  0.00    +0.000 C 
BRANCH  18  19
ATOM     19  N   UNL     1      48.977   6.907  15.570  0.00  0.00    +0.000 N 
ATOM     20  C   UNL     1      50.142   6.743  16.266  0.00  0.00    +0.000 C 
ATOM     21  O   UNL     1      51.236   6.677  15.714  0.00  0.00    +0.000 OA
ATOM     22  H   UNL     1      48.089   6.704  16.018  0.00  0.00    +0.000 HD
BRANCH  20  23
ATOM     23  C   UNL     1      50.022   6.743  17.734  0.00  0.00    +0.000 A 
ATOM     24  C   UNL     1      50.468   7.834  18.461  0.00  0.00    +0.000 A 
ATOM     25  S   UNL     1      50.182   7.701  20.139  0.00  0.00    +0.000 S 
ATOM     26  C   UNL     1      49.500   6.152  19.955  0.00  0.00    +0.000 A 
ATOM     27  N   UNL     1      49.057   5.450  21.033  0.00  0.00    +0.000 NA
ATOM     28  C   UNL     1      48.591   4.279  20.753  0.00  0.00    +0.000 A 
ATOM     29  N   UNL     1      48.518   3.749  19.490  0.00  0.00    +0.000 N 
ATOM     30  C   UNL     1      48.913   4.439  18.369  0.00  0.00    +0.000 A 
ATOM     31  O   UNL     1      48.761   3.966  17.249  0.00  0.00    +0.000 OA
ATOM     32  C   UNL     1      49.471   5.752  18.630  0.00  0.00    +0.000 A 
ATOM     33  H   UNL     1      48.126   2.833  19.332  0.00  0.00    +0.000 HD
ENDBRANCH  20  23
ENDBRANCH  18  19
ENDBRANCH   4  18
TORSDOF 7
ENDMDL
MODEL 3
REMARK VINA RESULT:    -7.771      2.166      2.744
REMARK INTER + INTRA:         -12.155
REMARK INTER:                 -11.194
REMARK INTRA:                  -0.960
REMARK UNBOUND:                -1.203
REMARK  Name = 
REMARK  8 active torsions:
REMARK  status: ('A' for Active; 'I' for Inactive)
REMARK    1  A    between atoms: C_1  and  C_2
REMARK    2  A    between atoms: C_2  and  N_3
REMARK    3  A    between atoms: C_2  and  C_25
REMARK    4  A    between atoms: N_3  and  C_4
REMARK    5  A    between atoms: C_4  and  C_5
REMARK    6  A    between atoms: C_8  and  C_9
REMARK    7  A    between atoms: C_9  and  N_10
REMARK    8  A    between atoms: C_11  and  C_13
REMARK                            x       y       z     vdW  Elec       q    Type
REMARK                         _______ _______ _______ _____ _____    ______ ____
ROOT
ATOM      1  C   UNL     1      44.562   5.692  11.528  0.00  0.00    +0.000 A 
ATOM      2  C   UNL     1      45.106   4.890  12.535  0.00  0.00    +0.000 A 
ATOM      3  C   UNL     1      46.189   5.348  13.278  0.00  0.00    +0.000 A 
ATOM      4  C   UNL     1      46.728   6.595  12.975  0.00  0.00    +0.000 A 
ATOM      5  N   UNL     1      46.211   7.400  12.009  0.00  0.00    +0.000 NA
ATOM      6  C   UNL     1      45.150   6.932  11.315  0.00  0.00    +0.000 A 
ENDROOT
BRANCH   1   7
ATOM      7  C   UNL     1      43.445   5.197  10.653  0.00  0.00    +0.000 C 
BRANCH   7   8
ATOM      8  N   UNL     1      43.947   4.520   9.458  0.00  0.00    +0.000 NA
ATOM      9  H   UNL     1      44.483   5.186   8.902  0.00  0.00    +0.000 HD
BRANCH   8  11
ATOM     10  C   UNL     1      44.022   2.167  10.304  0.00  0.00    +0.000 C 
ATOM     11  C   UNL     1      44.813   3.366   9.757  0.00  0.00    +0.000 C 
BRANCH  11  12
ATOM     12  C   UNL     1      45.577   2.894   8.519  0.00  0.00    +0.000 A 
ATOM     13  C   UNL     1      45.923   3.812   7.513  0.00  0.00    +0.000 A 
ATOM     14  C   UNL     1      46.756   3.435   6.455  0.00  0.00    +0.000 A 
ATOM     15  C   UNL     1      47.243   2.133   6.377  0.00  0.00    +0.000 A 
ATOM     16  C   UNL     1      46.878   1.199   7.344  0.00  0.00    +0.000 A 
ATOM     17  C   UNL     1      46.056   1.577   8.408  0.00  0.00    +0.000 A 
ENDBRANCH  11  12
ENDBRANCH   8  11
ENDBRANCH   7   8
ENDBRANCH   1   7
BRANCH   4  18
ATOM     18  C   UNL     1      47.921   7.109  13.740  0.00  0.00    +0.000 C 
BRANCH  18  19
ATOM     19  N   UNL     1      47.861   6.762  15.138  0.00  0.00    +0.000 N 
ATOM     20  C   UNL     1      48.974   6.488  15.885  0.00  0.00    +0.000 C 
ATOM     21  O   UNL     1      50.107   6.522  15.415  0.00  0.00    +0.000 OA
ATOM     22  H   UNL     1      46.946   6.482  15.475  0.00  0.00    +0.000 HD
BRANCH  20  23
ATOM     23  C   UNL     1      48.743   6.240  17.318  0.00  0.00    +0.000 A 
ATOM     24  C   UNL     1      48.999   4.988  17.850  0.00  0.00    +0.000 A 
ATOM     25  S   UNL     1      48.753   4.898  19.537  0.00  0.00    +0.000 S 
ATOM     26  C   UNL     1      48.242   6.519  19.604  0.00  0.00    +0.000 A 
ATOM     27  N   UNL     1      47.856   7.083  20.780  0.00  0.00    +0.000 NA
ATOM     28  C   UNL     1      47.465   8.310  20.682  0.00  0.00    +0.000 A 
ATOM     29  N   UNL     1      47.434   9.028  19.514  0.00  0.00    +0.000 N 
ATOM     30  C   UNL     1      47.856   8.513  18.312  0.00  0.00    +0.000 A 
ATOM     31  O   UNL     1      47.888   9.208  17.303  0.00  0.00    +0.000 OA
ATOM     32  C   UNL     1      48.280   7.127  18.361  0.00  0.00    +0.000 A 
ATOM     33  H   UNL     1      47.134   9.992  19.503  0.00  0.00    +0.000 HD
ENDBRANCH  20  23
ENDBRANCH  18  19
ENDBRANCH   4  18
TORSDOF 7
ENDMDL
MODEL 4
REMARK VINA RESULT:    -7.475      2.994      4.284
REMARK INTER + INTRA:         -11.737
REMARK INTER:                 -10.618
REMARK INTRA:                  -1.119
REMARK UNBOUND:                -1.203
REMARK  Name = 
REMARK  8 active torsions:
REMARK  status: ('A' for Active; 'I' for Inactive)
REMARK    1  A    between atoms: C_1  and  C_2
REMARK    2  A    between atoms: C_2  and  N_3
REMARK    3  A    between atoms: C_2  and  C_25
REMARK    4  A    between atoms: N_3  and  C_4
REMARK    5  A    between atoms: C_4  and  C_5
REMARK    6  A    between atoms: C_8  and  C_9
REMARK    7  A    between atoms: C_9  and  N_10
REMARK    8  A    between atoms: C_11  and  C_13
REMARK                            x       y       z     vdW  Elec       q    Type
REMARK                         _______ _______ _______ _____ _____    ______ ____
ROOT
ATOM      1  C   UNL     1      46.916   4.831  13.941  0.00  0.00    +0.000 A 
ATOM      2  C   UNL     1      47.028   4.381  15.260  0.00  0.00    +0.000 A 
ATOM      3  C   UNL     1      47.910   5.008  16.134  0.00  0.00    +0.000 A 
ATOM      4  C   UNL     1      48.687   6.060  15.659  0.00  0.00    +0.000 A 
ATOM      5  N   UNL     1      48.589   6.525  14.386  0.00  0.00    +0.000 NA
ATOM      6  C   UNL     1      47.714   5.904  13.565  0.00  0.00    +0.000 A 
ENDROOT
BRANCH   1   7
ATOM      7  C   UNL     1      46.035   4.127  12.947  0.00  0.00    +0.000 C 
BRANCH   7   8
ATOM      8  N   UNL     1      45.226   5.067  12.173  0.00  0.00    +0.000 NA
ATOM      9  H   UNL     1      45.837   5.585  11.542  0.00  0.00    +0.000 HD
BRANCH   8  11
ATOM     10  C   UNL     1      43.031   5.379  11.016  0.00  0.00    +0.000 C 
ATOM     11  C   UNL     1      44.176   4.417  11.370  0.00  0.00    +0.000 C 
BRANCH  11  12
ATOM     12  C   UNL     1      44.730   3.852  10.062  0.00  0.00    +0.000 A 
ATOM     13  C   UNL     1      45.361   4.705   9.139  0.00  0.00    +0.000 A 
ATOM     14  C   UNL     1      46.014   4.186   8.016  0.00  0.00    +0.000 A 
ATOM     15  C   UNL     1      46.033   2.813   7.789  0.00  0.00    +0.000 A 
ATOM     16  C   UNL     1      45.380   1.957   8.673  0.00  0.00    +0.000 A 
ATOM     17  C   UNL     1      44.738   2.471   9.801  0.00  0.00    +0.000 A 
ENDBRANCH  11  12
ENDBRANCH   8  11
ENDBRANCH   7   8
ENDBRANCH   1   7
BRANCH   4  18
ATOM     18  C   UNL     1      49.675   6.741  16.572  0.00  0.00    +0.000 C 
BRANCH  18  19
ATOM     19  N   UNL     1      50.713   5.846  17.015  0.00  0.00    +0.000 N 
ATOM     20  C   UNL     1      50.841   5.439  18.315  0.00  0.00    +0.000 C 
ATOM     21  O   UNL     1      50.075   5.809  19.199  0.00  0.00    +0.000 OA
ATOM     22  H   UNL     1      51.492   5.735  16.373  0.00  0.00    +0.000 HD
BRANCH  20  23
ATOM     23  C   UNL     1      51.901   4.452  18.581  0.00  0.00    +0.000 A 
ATOM     24  C   UNL     1      52.996   4.808  19.350  0.00  0.00    +0.000 A 
ATOM     25  S   UNL     1      54.087   3.524  19.623  0.00  0.00    +0.000 S 
ATOM     26  C   UNL     1      53.157   2.460  18.674  0.00  0.00    +0.000 A 
ATOM     27  N   UNL     1      53.551   1.173  18.476  0.00  0.00    +0.000 NA
ATOM     28  C   UNL     1      52.768   0.487  17.713  0.00  0.00    +0.000 A 
ATOM     29  N   UNL     1      51.620   0.968  17.137  0.00  0.00    +0.000 N 
ATOM     30  C   UNL     1      51.161   2.246  17.346  0.00  0.00    +0.000 A 
ATOM     31  O   UNL     1      50.091   2.618  16.879  0.00  0.00    +0.000 OA
ATOM     32  C   UNL     1      52.019   3.070  18.175  0.00  0.00    +0.000 A 
ATOM     33  H   UNL     1      51.038   0.375  16.563  0.00  0.00    +0.000 HD
ENDBRANCH  20  23
ENDBRANCH  18  19
ENDBRANCH   4  18
TORSDOF 7
ENDMDL
MODEL 5
REMARK VINA RESULT:    -7.416      3.025      8.639
REMARK INTER + INTRA:         -11.654
REMARK INTER:                  -9.736
REMARK INTRA:                  -1.918
REMARK UNBOUND:                -1.203
REMARK  Name = 
REMARK  8 active torsions:
REMARK  status: ('A' for Active; 'I' for Inactive)
REMARK    1  A    between atoms: C_1  and  C_2
REMARK    2  A    between atoms: C_2  and  N_3
REMARK    3  A    between atoms: C_2  and  C_25
REMARK    4  A    between atoms: N_3  and  C_4
REMARK    5  A    between atoms: C_4  and  C_5
REMARK    6  A    between atoms: C_8  and  C_9
REMARK    7  A    between atoms: C_9  and  N_10
REMARK    8  A    between atoms: C_11  and  C_13
REMARK                            x       y       z     vdW  Elec       q    Type
REMARK                         _______ _______ _______ _____ _____    ______ ____
ROOT
ATOM      1  C   UNL     1      48.774   8.012  16.072  0.00  0.00    +0.000 A 
ATOM      2  C   UNL     1      49.061   6.848  15.353  0.00  0.00    +0.000 A 
ATOM      3  C   UNL     1      48.647   6.730  14.030  0.00  0.00    +0.000 A 
ATOM      4  C   UNL     1      47.924   7.774  13.460  0.00  0.00    +0.000 A 
ATOM      5  N   UNL     1      47.642   8.921  14.132  0.00  0.00    +0.000 NA
ATOM      6  C   UNL     1      48.070   9.011  15.411  0.00  0.00    +0.000 A 
ENDROOT
BRANCH   1   7
ATOM      7  C   UNL     1      49.134   8.141  17.525  0.00  0.00    +0.000 C 
BRANCH   7   8
ATOM      8  N   UNL     1      48.054   7.684  18.398  0.00  0.00    +0.000 NA
ATOM      9  H   UNL     1      47.265   7.391  17.821  0.00  0.00    +0.000 HD
BRANCH   8  11
ATOM     10  C   UNL     1      47.515   6.420  20.488  0.00  0.00    +0.000 C 
ATOM     11  C   UNL     1      48.436   6.555  19.265  0.00  0.00    +0.000 C 
BRANCH  11  12
ATOM     12  C   UNL     1      48.405   5.225  18.511  0.00  0.00    +0.000 A 
ATOM     13  C   UNL     1      47.208   4.776  17.926  0.00  0.00    +0.000 A 
ATOM     14  C   UNL     1      47.195   3.647  17.100  0.00  0.00    +0.000 A 
ATOM     15  C   UNL     1      48.371   2.943  16.858  0.00  0.00    +0.000 A 
ATOM     16  C   UNL     1      49.558   3.351  17.461  0.00  0.00    +0.000 A 
ATOM     17  C   UNL     1      49.576   4.485  18.277  0.00  0.00    +0.000 A 
ENDBRANCH  11  12
ENDBRANCH   8  11
ENDBRANCH   7   8
ENDBRANCH   1   7
BRANCH   4  18
ATOM     18  C   UNL     1      47.434   7.666  12.039  0.00  0.00    +0.000 C 
BRANCH  18  19
ATOM     19  N   UNL     1      46.736   6.428  11.797  0.00  0.00    +0.000 N 
ATOM     20  C   UNL     1      45.372   6.333  11.781  0.00  0.00    +0.000 C 
ATOM     21  O   UNL     1      44.642   7.301  11.970  0.00  0.00    +0.000 OA
ATOM     22  H   UNL     1      47.299   5.589  11.892  0.00  0.00    +0.000 HD
BRANCH  20  23
ATOM     23  C   UNL     1      44.821   5.014  11.429  0.00  0.00    +0.000 A 
ATOM     24  C   UNL     1      44.057   4.318  12.351  0.00  0.00    +0.000 A 
ATOM     25  S   UNL     1      43.435   2.845  11.753  0.00  0.00    +0.000 S 
ATOM     26  C   UNL     1      44.212   3.063  10.255  0.00  0.00    +0.000 A 
ATOM     27  N   UNL     1      44.105   2.132   9.269  0.00  0.00    +0.000 NA
ATOM     28  C   UNL     1      44.768   2.410   8.196  0.00  0.00    +0.000 A 
ATOM     29  N   UNL     1      45.523   3.541   8.016  0.00  0.00    +0.000 N 
ATOM     30  C   UNL     1      45.623   4.528   8.967  0.00  0.00    +0.000 A 
ATOM     31  O   UNL     1      46.242   5.562   8.742  0.00  0.00    +0.000 OA
ATOM     32  C   UNL     1      44.918   4.253  10.204  0.00  0.00    +0.000 A 
ATOM     33  H   UNL     1      46.005   3.712   7.146  0.00  0.00    +0.000 HD
ENDBRANCH  20  23
ENDBRANCH  18  19
ENDBRANCH   4  18
TORSDOF 7
ENDMDL
MODEL 6
REMARK VINA RESULT:    -7.400      3.366      8.163
REMARK INTER + INTRA:         -11.631
REMARK INTER:                  -9.938
REMARK INTRA:                  -1.693
REMARK UNBOUND:                -1.203
REMARK  Name = 
REMARK  8 active torsions:
REMARK  status: ('A' for Active; 'I' for Inactive)
REMARK    1  A    between atoms: C_1  and  C_2
REMARK    2  A    between atoms: C_2  and  N_3
REMARK    3  A    between atoms: C_2  and  C_25
REMARK    4  A    between atoms: N_3  and  C_4
REMARK    5  A    between atoms: C_4  and  C_5
REMARK    6  A    between atoms: C_8  and  C_9
REMARK    7  A    between atoms: C_9  and  N_10
REMARK    8  A    between atoms: C_11  and  C_13
REMARK                            x       y       z     vdW  Elec       q    Type
REMARK                         _______ _______ _______ _____ _____    ______ ____
ROOT
ATOM      1  C   UNL     1      48.691   8.130  16.128  0.00  0.00    +0.000 A 
ATOM      2  C   UNL     1      49.045   6.968  15.438  0.00  0.00    +0.000 A 
ATOM      3  C   UNL     1      48.971   6.936  14.050  0.00  0.00    +0.000 A 
ATOM      4  C   UNL     1      48.514   8.065  13.378  0.00  0.00    +0.000 A 
ATOM      5  N   UNL     1      48.175   9.212  14.024  0.00  0.00    +0.000 NA
ATOM      6  C   UNL     1      48.271   9.217  15.372  0.00  0.00    +0.000 A 
ENDROOT
BRANCH   1   7
ATOM      7  C   UNL     1      48.680   8.174  17.631  0.00  0.00    +0.000 C 
BRANCH   7   8
ATOM      8  N   UNL     1      47.710   7.240  18.198  0.00  0.00    +0.000 NA
ATOM      9  H   UNL     1      47.211   6.779  17.436  0.00  0.00    +0.000 HD
BRANCH   8  11
ATOM     10  C   UNL     1      47.541   5.980  20.352  0.00  0.00    +0.000 C 
ATOM     11  C   UNL     1      48.320   6.200  19.045  0.00  0.00    +0.000 C 
BRANCH  11  12
ATOM     12  C   UNL     1      48.404   4.856  18.323  0.00  0.00    +0.000 A 
ATOM     13  C   UNL     1      47.328   4.412  17.533  0.00  0.00    +0.000 A 
ATOM     14  C   UNL     1      47.447   3.268  16.739  0.00  0.00    +0.000 A 
ATOM     15  C   UNL     1      48.634   2.541  16.732  0.00  0.00    +0.000 A 
ATOM     16  C   UNL     1      49.696   2.943  17.537  0.00  0.00    +0.000 A 
ATOM     17  C   UNL     1      49.584   4.093  18.323  0.00  0.00    +0.000 A 
ENDBRANCH  11  12
ENDBRANCH   8  11
ENDBRANCH   7   8
ENDBRANCH   1   7
BRANCH   4  18
ATOM     18  C   UNL     1      48.392   8.054  11.876  0.00  0.00    +0.000 C 
BRANCH  18  19
ATOM     19  N   UNL     1      47.624   6.931  11.401  0.00  0.00    +0.000 N 
ATOM     20  C   UNL     1      46.257   6.910  11.403  0.00  0.00    +0.000 C 
ATOM     21  O   UNL     1      45.584   7.852  11.809  0.00  0.00    +0.000 OA
ATOM     22  H   UNL     1      48.142   6.063  11.304  0.00  0.00    +0.000 HD
BRANCH  20  23
ATOM     23  C   UNL     1      45.629   5.723  10.799  0.00  0.00    +0.000 A 
ATOM     24  C   UNL     1      45.776   5.479   9.444  0.00  0.00    +0.000 A 
ATOM     25  S   UNL     1      45.051   4.023   8.927  0.00  0.00    +0.000 S 
ATOM     26  C   UNL     1      44.467   3.695  10.491  0.00  0.00    +0.000 A 
ATOM     27  N   UNL     1      43.727   2.581  10.743  0.00  0.00    +0.000 NA
ATOM     28  C   UNL     1      43.325   2.472  11.965  0.00  0.00    +0.000 A 
ATOM     29  N   UNL     1      43.604   3.372  12.962  0.00  0.00    +0.000 N 
ATOM     30  C   UNL     1      44.383   4.486  12.764  0.00  0.00    +0.000 A 
ATOM     31  O   UNL     1      44.677   5.226  13.695  0.00  0.00    +0.000 OA
ATOM     32  C   UNL     1      44.839   4.671  11.399  0.00  0.00    +0.000 A 
ATOM     33  H   UNL     1      43.276   3.222  13.905  0.00  0.00    +0.000 HD
ENDBRANCH  20  23
ENDBRANCH  18  19
ENDBRANCH   4  18
TORSDOF 7
ENDMDL
MODEL 7
REMARK VINA RESULT:    -6.932      4.418      9.398
REMARK INTER + INTRA:         -10.972
REMARK INTER:                  -9.774
REMARK INTRA:                  -1.198
REMARK UNBOUND:                -1.203
REMARK  Name = 
REMARK  8 active torsions:
REMARK  status: ('A' for Active; 'I' for Inactive)
REMARK    1  A    between atoms: C_1  and  C_2
REMARK    2  A    between atoms: C_2  and  N_3
REMARK    3  A    between atoms: C_2  and  C_25
REMARK    4  A    between atoms: N_3  and  C_4
REMARK    5  A    between atoms: C_4  and  C_5
REMARK    6  A    between atoms: C_8  and  C_9
REMARK    7  A    between atoms: C_9  and  N_10
REMARK    8  A    between atoms: C_11  and  C_13
REMARK                            x       y       z     vdW  Elec       q    Type
REMARK                         _______ _______ _______ _____ _____    ______ ____
ROOT
ATOM      1  C   UNL     1      51.223   3.970  18.087  0.00  0.00    +0.000 A 
ATOM      2  C   UNL     1      50.850   2.753  17.511  0.00  0.00    +0.000 A 
ATOM      3  C   UNL     1      49.545   2.566  17.067  0.00  0.00    +0.000 A 
ATOM      4  C   UNL     1      48.627   3.598  17.236  0.00  0.00    +0.000 A 
ATOM      5  N   UNL     1      48.966   4.796  17.782  0.00  0.00    +0.000 NA
ATOM      6  C   UNL     1      50.245   4.951  18.191  0.00  0.00    +0.000 A 
ENDROOT
BRANCH   1   7
ATOM      7  C   UNL     1      52.601   4.178  18.651  0.00  0.00    +0.000 C 
BRANCH   7   8
ATOM      8  N   UNL     1      53.643   3.803  17.697  0.00  0.00    +0.000 NA
ATOM      9  H   UNL     1      54.103   4.649  17.361  0.00  0.00    +0.000 HD
BRANCH   8  11
ATOM     10  C   UNL     1      54.385   2.558  19.736  0.00  0.00    +0.000 C 
ATOM     11  C   UNL     1      54.670   2.914  18.268  0.00  0.00    +0.000 C 
BRANCH  11  12
ATOM     12  C   UNL     1      54.787   1.606  17.487  0.00  0.00    +0.000 A 
ATOM     13  C   UNL     1      55.522   1.565  16.289  0.00  0.00    +0.000 A 
ATOM     14  C   UNL     1      55.775   0.349  15.645  0.00  0.00    +0.000 A 
ATOM     15  C   UNL     1      55.286  -0.840  16.179  0.00  0.00    +0.000 A 
ATOM     16  C   UNL     1      54.524  -0.814  17.344  0.00  0.00    +0.000 A 
ATOM     17  C   UNL     1      54.280   0.398  17.995  0.00  0.00    +0.000 A 
ENDBRANCH  11  12
ENDBRANCH   8  11
ENDBRANCH   7   8
ENDBRANCH   1   7
BRANCH   4  18
ATOM     18  C   UNL     1      47.198   3.418  16.794  0.00  0.00    +0.000 C 
BRANCH  18  19
ATOM     19  N   UNL     1      46.804   4.400  15.815  0.00  0.00    +0.000 N 
ATOM     20  C   UNL     1      46.867   4.175  14.467  0.00  0.00    +0.000 C 
ATOM     21  O   UNL     1      47.264   3.115  13.995  0.00  0.00    +0.000 OA
ATOM     22  H   UNL     1      46.720   5.350  16.164  0.00  0.00    +0.000 HD
BRANCH  20  23
ATOM     23  C   UNL     1      46.342   5.249  13.608  0.00  0.00    +0.000 A 
ATOM     24  C   UNL     1      47.107   6.380  13.374  0.00  0.00    +0.000 A 
ATOM     25  S   UNL     1      46.379   7.486  12.296  0.00  0.00    +0.000 S 
ATOM     26  C   UNL     1      44.991   6.514  12.149  0.00  0.00    +0.000 A 
ATOM     27  N   UNL     1      43.944   6.901  11.370  0.00  0.00    +0.000 NA
ATOM     28  C   UNL     1      42.945   6.084  11.373  0.00  0.00    +0.000 A 
ATOM     29  N   UNL     1      42.900   4.908  12.077  0.00  0.00    +0.000 N 
ATOM     30  C   UNL     1      43.950   4.456  12.840  0.00  0.00    +0.000 A 
ATOM     31  O   UNL     1      43.906   3.363  13.392  0.00  0.00    +0.000 OA
ATOM     32  C   UNL     1      45.090   5.352  12.894  0.00  0.00    +0.000 A 
ATOM     33  H   UNL     1      42.096   4.300  12.024  0.00  0.00    +0.000 HD
ENDBRANCH  20  23
ENDBRANCH  18  19
ENDBRANCH   4  18
TORSDOF 7
ENDMDL
MODEL 8
REMARK VINA RESULT:    -6.883      2.938      8.670
REMARK INTER + INTRA:         -10.903
REMARK INTER:                  -9.495
REMARK INTRA:                  -1.408
REMARK UNBOUND:                -1.203
REMARK  Name = 
REMARK  8 active torsions:
REMARK  status: ('A' for Active; 'I' for Inactive)
REMARK    1  A    between atoms: C_1  and  C_2
REMARK    2  A    between atoms: C_2  and  N_3
REMARK    3  A    between atoms: C_2  and  C_25
REMARK    4  A    between atoms: N_3  and  C_4
REMARK    5  A    between atoms: C_4  and  C_5
REMARK    6  A    between atoms: C_8  and  C_9
REMARK    7  A    between atoms: C_9  and  N_10
REMARK    8  A    between atoms: C_11  and  C_13
REMARK                            x       y       z     vdW  Elec       q    Type
REMARK                         _______ _______ _______ _____ _____    ______ ____
ROOT
ATOM      1  C   UNL     1      50.187   7.298  15.706  0.00  0.00    +0.000 A 
ATOM      2  C   UNL     1      50.620   8.121  14.663  0.00  0.00    +0.000 A 
ATOM      3  C   UNL     1      49.856   8.234  13.506  0.00  0.00    +0.000 A 
ATOM      4  C   UNL     1      48.683   7.494  13.404  0.00  0.00    +0.000 A 
ATOM      5  N   UNL     1      48.233   6.696  14.408  0.00  0.00    +0.000 NA
ATOM      6  C   UNL     1      48.989   6.618  15.525  0.00  0.00    +0.000 A 
ENDROOT
BRANCH   1   7
ATOM      7  C   UNL     1      51.026   7.088  16.936  0.00  0.00    +0.000 C 
BRANCH   7   8
ATOM      8  N   UNL     1      50.206   6.812  18.114  0.00  0.00    +0.000 NA
ATOM      9  H   UNL     1      49.239   6.679  17.820  0.00  0.00    +0.000 HD
BRANCH   8  11
ATOM     10  C   UNL     1      50.195   5.655  20.332  0.00  0.00    +0.000 C 
ATOM     11  C   UNL     1      50.631   5.613  18.858  0.00  0.00    +0.000 C 
BRANCH  11  12
ATOM     12  C   UNL     1      50.066   4.333  18.242  0.00  0.00    +0.000 A 
ATOM     13  C   UNL     1      48.675   4.159  18.132  0.00  0.00    +0.000 A 
ATOM     14  C   UNL     1      48.142   3.074  17.430  0.00  0.00    +0.000 A 
ATOM     15  C   UNL     1      48.988   2.138  16.841  0.00  0.00    +0.000 A 
ATOM     16  C   UNL     1      50.368   2.273  16.973  0.00  0.00    +0.000 A 
ATOM     17  C   UNL     1      50.903   3.363  17.664  0.00  0.00    +0.000 A 
ENDBRANCH  11  12
ENDBRANCH   8  11
ENDBRANCH   7   8
ENDBRANCH   1   7
BRANCH   4  18
ATOM     18  C   UNL     1      47.847   7.571  12.152  0.00  0.00    +0.000 C 
BRANCH  18  19
ATOM     19  N   UNL     1      47.074   6.372  11.940  0.00  0.00    +0.000 N 
ATOM     20  C   UNL     1      45.708   6.346  12.007  0.00  0.00    +0.000 C 
ATOM     21  O   UNL     1      45.041   7.347  12.250  0.00  0.00    +0.000 OA
ATOM     22  H   UNL     1      47.599   5.505  11.993  0.00  0.00    +0.000 HD
BRANCH  20  23
ATOM     23  C   UNL     1      45.071   5.060  11.676  0.00  0.00    +0.000 A 
ATOM     24  C   UNL     1      44.356   4.377  12.644  0.00  0.00    +0.000 A 
ATOM     25  S   UNL     1      43.621   2.947  12.070  0.00  0.00    +0.000 S 
ATOM     26  C   UNL     1      44.281   3.167  10.517  0.00  0.00    +0.000 A 
ATOM     27  N   UNL     1      44.051   2.265   9.525  0.00  0.00    +0.000 NA
ATOM     28  C   UNL     1      44.634   2.540   8.406  0.00  0.00    +0.000 A 
ATOM     29  N   UNL     1      45.421   3.641   8.187  0.00  0.00    +0.000 N 
ATOM     30  C   UNL     1      45.644   4.600   9.146  0.00  0.00    +0.000 A 
ATOM     31  O   UNL     1      46.288   5.611   8.891  0.00  0.00    +0.000 OA
ATOM     32  C   UNL     1      45.033   4.326  10.432  0.00  0.00    +0.000 A 
ATOM     33  H   UNL     1      45.838   3.812   7.283  0.00  0.00    +0.000 HD
ENDBRANCH  20  23
ENDBRANCH  18  19
ENDBRANCH   4  18
TORSDOF 7
ENDMDL
MODEL 9
REMARK VINA RESULT:    -6.615      3.843      8.221
REMARK INTER + INTRA:         -10.525
REMARK INTER:                  -8.403
REMARK INTRA:                  -2.122
REMARK UNBOUND:                -1.203
REMARK  Name = 
REMARK  8 active torsions:
REMARK  status: ('A' for Active; 'I' for Inactive)
REMARK    1  A    between atoms: C_1  and  C_2
REMARK    2  A    between atoms: C_2  and  N_3
REMARK    3  A    between atoms: C_2  and  C_25
REMARK    4  A    between atoms: N_3  and  C_4
REMARK    5  A    between atoms: C_4  and  C_5
REMARK    6  A    between atoms: C_8  and  C_9
REMARK    7  A    between atoms: C_9  and  N_10
REMARK    8  A    between atoms: C_11  and  C_13
REMARK                            x       y       z     vdW  Elec       q    Type
REMARK                         _______ _______ _______ _____ _____    ______ ____
ROOT
ATOM      1  C   UNL     1      51.309   7.159  17.104  0.00  0.00    +0.000 A 
ATOM      2  C   UNL     1      51.264   7.181  15.708  0.00  0.00    +0.000 A 
ATOM      3  C   UNL     1      50.272   7.906  15.057  0.00  0.00    +0.000 A 
ATOM      4  C   UNL     1      49.322   8.575  15.822  0.00  0.00    +0.000 A 
ATOM      5  N   UNL     1      49.349   8.581  17.180  0.00  0.00    +0.000 NA
ATOM      6  C   UNL     1      50.333   7.878  17.783  0.00  0.00    +0.000 A 
ENDROOT
BRANCH   1   7
ATOM      7  C   UNL     1      52.317   6.321  17.841  0.00  0.00    +0.000 C 
BRANCH   7   8
ATOM      8  N   UNL     1      52.225   4.910  17.473  0.00  0.00    +0.000 NA
ATOM      9  H   UNL     1      53.167   4.543  17.336  0.00  0.00    +0.000 HD
BRANCH   8  11
ATOM     10  C   UNL     1      51.452   4.786  19.849  0.00  0.00    +0.000 C 
ATOM     11  C   UNL     1      51.550   4.080  18.487  0.00  0.00    +0.000 C 
BRANCH  11  12
ATOM     12  C   UNL     1      50.132   3.701  18.057  0.00  0.00    +0.000 A 
ATOM     13  C   UNL     1      49.045   4.513  18.424  0.00  0.00    +0.000 A 
ATOM     14  C   UNL     1      47.767   4.273  17.909  0.00  0.00    +0.000 A 
ATOM     15  C   UNL     1      47.552   3.213  17.033  0.00  0.00    +0.000 A 
ATOM     16  C   UNL     1      48.610   2.375  16.689  0.00  0.00    +0.000 A 
ATOM     17  C   UNL     1      49.890   2.619  17.193  0.00  0.00    +0.000 A 
ENDBRANCH  11  12
ENDBRANCH   8  11
ENDBRANCH   7   8
ENDBRANCH   1   7
BRANCH   4  18
ATOM     18  C   UNL     1      48.215   9.346  15.148  0.00  0.00    +0.000 C 
BRANCH  18  19
ATOM     19  N   UNL     1      47.257   8.477  14.512  0.00  0.00    +0.000 N 
ATOM     20  C   UNL     1      47.171   8.330  13.154  0.00  0.00    +0.000 C 
ATOM     21  O   UNL     1      47.910   8.930  12.379  0.00  0.00    +0.000 OA
ATOM     22  H   UNL     1      46.487   8.177  15.101  0.00  0.00    +0.000 HD
BRANCH  20  23
ATOM     23  C   UNL     1      46.198   7.335  12.673  0.00  0.00    +0.000 A 
ATOM     24  C   UNL     1      45.114   7.743  11.915  0.00  0.00    +0.000 A 
ATOM     25  S   UNL     1      44.132   6.454  11.376  0.00  0.00    +0.000 S 
ATOM     26  C   UNL     1      45.096   5.310  12.187  0.00  0.00    +0.000 A 
ATOM     27  N   UNL     1      44.789   3.985  12.150  0.00  0.00    +0.000 NA
ATOM     28  C   UNL     1      45.587   3.232  12.831  0.00  0.00    +0.000 A 
ATOM     29  N   UNL     1      46.671   3.684  13.539  0.00  0.00    +0.000 N 
ATOM     30  C   UNL     1      47.044   5.006  13.568  0.00  0.00    +0.000 A 
ATOM     31  O   UNL     1      48.063   5.363  14.146  0.00  0.00    +0.000 OA
ATOM     32  C   UNL     1      46.164   5.900  12.840  0.00  0.00    +0.000 A 
ATOM     33  H   UNL     1      47.270   3.043  14.039  0.00  0.00    +0.000 HD
ENDBRANCH  20  23
ENDBRANCH  18  19
ENDBRANCH   4  18
TORSDOF 7
ENDMDL
