MODEL 1
REMARK VINA RESULT:    -9.269      0.000      0.000
REMARK INTER + INTRA:         -13.736
REMARK INTER:                 -12.520
REMARK INTRA:                  -1.216
REMARK UNBOUND:                -1.216
REMARK  Name = 
REMARK  6 active torsions:
REMARK  status: ('A' for Active; 'I' for Inactive)
REMARK    1  A    between atoms: C_2  and  C_4
REMARK    2  A    between atoms: C_7  and  O_8
REMARK    3  A    between atoms: O_8  and  C_9
REMARK    4  A    between atoms: C_9  and  C_10
REMARK    5  A    between atoms: C_12  and  C_13
REMARK    6  A    between atoms: C_20  and  N_21
REMARK                            x       y       z     vdW  Elec       q    Type
REMARK                         _______ _______ _______ _____ _____    ______ ____
ROOT
ATOM      1  C   UNL     1      44.569   5.128  11.983  0.00  0.00    +0.000 A 
ATOM      2  C   UNL     1      44.873   6.478  11.743  0.00  0.00    +0.000 A 
ATOM      3  C   UNL     1      45.940   7.136  12.387  0.00  0.00    +0.000 A 
ATOM      4  C   UNL     1      46.738   6.379  13.263  0.00  0.00    +0.000 A 
ATOM      5  C   UNL     1      46.443   5.030  13.511  0.00  0.00    +0.000 A 
ATOM      6  C   UNL     1      45.363   4.403  12.875  0.00  0.00    +0.000 A 
ENDROOT
BRANCH   3   7
ATOM      7  C   UNL     1      46.195   8.573  12.170  0.00  0.00    +0.000 A 
ATOM      8  C   UNL     1      47.484   9.111  12.176  0.00  0.00    +0.000 A 
ATOM      9  C   UNL     1      47.658  10.475  11.961  0.00  0.00    +0.000 A 
ATOM     10  C   UNL     1      46.545  11.272  11.737  0.00  0.00    +0.000 A 
ATOM     11  C   UNL     1      45.301  10.667  11.735  0.00  0.00    +0.000 A 
ATOM     12  N   UNL     1      45.102   9.344  11.943  0.00  0.00    +0.000 NA
ENDBRANCH   3   7
BRANCH   5  13
ATOM     13  N   UNL     1      47.259   4.268  14.466  0.00  0.00    +0.000 N 
ATOM     14  O   UNL     1      47.809   4.889  15.386  0.00  0.00    +0.000 OA
ATOM     15  O   UNL     1      47.343   3.042  14.300  0.00  0.00    +0.000 OA
ENDBRANCH   5  13
BRANCH   1  16
ATOM     16  C   UNL     1      43.409   4.484  11.265  0.00  0.00    +0.000 C 
BRANCH  16  17
ATOM     17  O   UNL     1      43.575   4.665   9.857  0.00  0.00    +0.000 OA
BRANCH  17  21
ATOM     18  C   UNL     1      46.327   2.284   7.815  0.00  0.00    +0.000 A 
ATOM     19  C   UNL     1      45.446   1.671   8.710  0.00  0.00    +0.000 A 
ATOM     20  C   UNL     1      44.513   2.436   9.415  0.00  0.00    +0.000 A 
ATOM     21  C   UNL     1      44.454   3.820   9.236  0.00  0.00    +0.000 A 
ATOM     22  C   UNL     1      45.353   4.434   8.359  0.00  0.00    +0.000 A 
ATOM     23  C   UNL     1      46.293   3.672   7.654  0.00  0.00    +0.000 A 
BRANCH  18  25
ATOM     24  N   UNL     1      48.426   2.153   6.595  0.00  0.00    +0.000 N 
ATOM     25  C   UNL     1      47.314   1.492   7.039  0.00  0.00    +0.000 C 
ATOM     26  O   UNL     1      47.163   0.295   6.836  0.00  0.00    +0.000 OA
ATOM     27  H   UNL     1      49.144   1.584   6.167  0.00  0.00    +0.000 HD
ATOM     28  H   UNL     1      48.703   3.052   6.964  0.00  0.00    +0.000 HD
ENDBRANCH  18  25
ENDBRANCH  17  21
ENDBRANCH  16  17
ENDBRANCH   1  16
TORSDOF 6
ENDMDL
MODEL 2
REMARK VINA RESULT:    -8.831      1.276      1.837
REMARK INTER + INTRA:         -13.144
REMARK INTER:                 -12.153
REMARK INTRA:                  -0.991
REMARK UNBOUND:                -1.216
REMARK  Name = 
REMARK  6 active torsions:
REMARK  status: ('A' for Active; 'I' for Inactive)
REMARK    1  A    between atoms: C_2  and  C_4
REMARK    2  A    between atoms: C_7  and  O_8
REMARK    3  A    between atoms: O_8  and  C_9
REMARK    4  A    between atoms: C_9  and  C_10
REMARK    5  A    between atoms: C_12  and  C_13
REMARK    6  A    between atoms: C_20  and  N_21
REMARK                            x       y       z     vdW  Elec       q    Type
REMARK                         _______ _______ _______ _____ _____    ______ ____
ROOT
ATOM      1  C   UNL     1      44.978   5.323  11.864  0.00  0.00    +0.000 A 
ATOM      2  C   UNL     1      45.751   6.462  11.583  0.00  0.00    +0.000 A 
ATOM      3  C   UNL     1      46.906   6.789  12.320  0.00  0.00    +0.000 A 
ATOM      4  C   UNL     1      47.300   5.905  13.340  0.00  0.00    +0.000 A 
ATOM      5  C   UNL     1      46.535   4.766  13.630  0.00  0.00    +0.000 A 
ATOM      6  C   UNL     1      45.377   4.473  12.898  0.00  0.00    +0.000 A 
ENDROOT
BRANCH   3   7
ATOM      7  C   UNL     1      47.661   8.028  12.049  0.00  0.00    +0.000 A 
ATOM      8  C   UNL     1      47.069   9.292  12.116  0.00  0.00    +0.000 A 
ATOM      9  C   UNL     1      47.837  10.423  11.853  0.00  0.00    +0.000 A 
ATOM     10  C   UNL     1      49.178  10.270  11.536  0.00  0.00    +0.000 A 
ATOM     11  C   UNL     1      49.697   8.989  11.499  0.00  0.00    +0.000 A 
ATOM     12  N   UNL     1      48.974   7.872  11.748  0.00  0.00    +0.000 NA
ENDBRANCH   3   7
BRANCH   5  13
ATOM     13  N   UNL     1      46.935   3.880  14.732  0.00  0.00    +0.000 N 
ATOM     14  O   UNL     1      46.617   4.203  15.884  0.00  0.00    +0.000 OA
ATOM     15  O   UNL     1      47.564   2.851  14.441  0.00  0.00    +0.000 OA
ENDBRANCH   5  13
BRANCH   1  16
ATOM     16  C   UNL     1      43.748   5.033  11.040  0.00  0.00    +0.000 C 
BRANCH  16  17
ATOM     17  O   UNL     1      43.814   3.687  10.565  0.00  0.00    +0.000 OA
BRANCH  17  21
ATOM     18  C   UNL     1      46.493   2.718   7.516  0.00  0.00    +0.000 A 
ATOM     19  C   UNL     1      46.091   4.050   7.655  0.00  0.00    +0.000 A 
ATOM     20  C   UNL     1      45.192   4.411   8.662  0.00  0.00    +0.000 A 
ATOM     21  C   UNL     1      44.684   3.447   9.536  0.00  0.00    +0.000 A 
ATOM     22  C   UNL     1      45.067   2.113   9.378  0.00  0.00    +0.000 A 
ATOM     23  C   UNL     1      45.964   1.744   8.368  0.00  0.00    +0.000 A 
BRANCH  18  25
ATOM     24  N   UNL     1      47.464   3.041   5.311  0.00  0.00    +0.000 N 
ATOM     25  C   UNL     1      47.462   2.311   6.468  0.00  0.00    +0.000 C 
ATOM     26  O   UNL     1      48.250   1.392   6.640  0.00  0.00    +0.000 OA
ATOM     27  H   UNL     1      48.200   2.830   4.649  0.00  0.00    +0.000 HD
ATOM     28  H   UNL     1      47.023   3.947   5.243  0.00  0.00    +0.000 HD
ENDBRANCH  18  25
ENDBRANCH  17  21
ENDBRANCH  16  17
ENDBRANCH   1  16
TORSDOF 6
ENDMDL
MODEL 3
REMARK VINA RESULT:    -8.701      2.394      4.449
REMARK INTER + INTRA:         -12.969
REMARK INTER:                 -12.017
REMARK INTRA:                  -0.952
REMARK UNBOUND:                -1.216
REMARK  Name = 
REMARK  6 active torsions:
REMARK  status: ('A' for Active; 'I' for Inactive)
REMARK    1  A    between atoms: C_2  and  C_4
REMARK    2  A    between atoms: C_7  and  O_8
REMARK    3  A    between atoms: O_8  and  C_9
REMARK    4  A    between atoms: C_9  and  C_10
REMARK    5  A    between atoms: C_12  and  C_13
REMARK    6  A    between atoms: C_20  and  N_21
REMARK                            x       y       z     vdW  Elec       q    Type
REMARK                         _______ _______ _______ _____ _____    ______ ____
ROOT
ATOM      1  C   UNL     1      45.206   4.997  12.309  0.00  0.00    +0.000 A 
ATOM      2  C   UNL     1      45.686   4.413  13.493  0.00  0.00    +0.000 A 
ATOM      3  C   UNL     1      46.808   4.916  14.180  0.00  0.00    +0.000 A 
ATOM      4  C   UNL     1      47.425   6.069  13.664  0.00  0.00    +0.000 A 
ATOM      5  C   UNL     1      46.955   6.660  12.482  0.00  0.00    +0.000 A 
ATOM      6  C   UNL     1      45.850   6.128  11.803  0.00  0.00    +0.000 A 
ENDROOT
BRANCH   3   7
ATOM      7  C   UNL     1      47.333   4.242  15.384  0.00  0.00    +0.000 A 
ATOM      8  C   UNL     1      47.285   4.832  16.649  0.00  0.00    +0.000 A 
ATOM      9  C   UNL     1      47.794   4.142  17.746  0.00  0.00    +0.000 A 
ATOM     10  C   UNL     1      48.333   2.878  17.559  0.00  0.00    +0.000 A 
ATOM     11  C   UNL     1      48.337   2.355  16.279  0.00  0.00    +0.000 A 
ATOM     12  N   UNL     1      47.851   3.003  15.195  0.00  0.00    +0.000 NA
ENDBRANCH   3   7
BRANCH   5  13
ATOM     13  N   UNL     1      47.642   7.836  11.931  0.00  0.00    +0.000 N 
ATOM     14  O   UNL     1      47.091   8.939  12.046  0.00  0.00    +0.000 OA
ATOM     15  O   UNL     1      48.743   7.656  11.388  0.00  0.00    +0.000 OA
ENDBRANCH   5  13
BRANCH   1  16
ATOM     16  C   UNL     1      44.002   4.405  11.618  0.00  0.00    +0.000 C 
BRANCH  16  17
ATOM     17  O   UNL     1      44.059   4.728  10.228  0.00  0.00    +0.000 OA
BRANCH  17  21
ATOM     18  C   UNL     1      46.454   2.434   7.696  0.00  0.00    +0.000 A 
ATOM     19  C   UNL     1      45.668   1.779   8.649  0.00  0.00    +0.000 A 
ATOM     20  C   UNL     1      44.857   2.515   9.517  0.00  0.00    +0.000 A 
ATOM     21  C   UNL     1      44.824   3.909   9.444  0.00  0.00    +0.000 A 
ATOM     22  C   UNL     1      45.630   4.563   8.507  0.00  0.00    +0.000 A 
ATOM     23  C   UNL     1      46.449   3.831   7.638  0.00  0.00    +0.000 A 
BRANCH  18  25
ATOM     24  N   UNL     1      48.342   2.358   6.167  0.00  0.00    +0.000 N 
ATOM     25  C   UNL     1      47.310   1.676   6.749  0.00  0.00    +0.000 C 
ATOM     26  O   UNL     1      47.128   0.487   6.526  0.00  0.00    +0.000 OA
ATOM     27  H   UNL     1      48.986   1.808   5.612  0.00  0.00    +0.000 HD
ATOM     28  H   UNL     1      48.673   3.244   6.522  0.00  0.00    +0.000 HD
ENDBRANCH  18  25
ENDBRANCH  17  21
ENDBRANCH  16  17
ENDBRANCH   1  16
TORSDOF 6
ENDMDL
MODEL 4
REMARK VINA RESULT:    -7.210      2.316      4.258
REMARK INTER + INTRA:         -10.955
REMARK INTER:                 -10.044
REMARK INTRA:                  -0.911
REMARK UNBOUND:                -1.216
REMARK  Name = 
REMARK  6 active torsions:
REMARK  status: ('A' for Active; 'I' for Inactive)
REMARK    1  A    between atoms: C_2  and  C_4
REMARK    2  A    between atoms: C_7  and  O_8
REMARK    3  A    between atoms: O_8  and  C_9
REMARK    4  A    between atoms: C_9  and  C_10
REMARK    5  A    between atoms: C_12  and  C_13
REMARK    6  A    between atoms: C_20  and  N_21
REMARK                            x       y       z     vdW  Elec       q    Type
REMARK                         _______ _______ _______ _____ _____    ______ ____
ROOT
ATOM      1  C   UNL     1      44.564   6.139  11.556  0.00  0.00    +0.000 A 
ATOM      2  C   UNL     1      45.315   5.539  12.581  0.00  0.00    +0.000 A 
ATOM      3  C   UNL     1      46.161   6.281  13.428  0.00  0.00    +0.000 A 
ATOM      4  C   UNL     1      46.207   7.674  13.246  0.00  0.00    +0.000 A 
ATOM      5  C   UNL     1      45.463   8.284  12.225  0.00  0.00    +0.000 A 
ATOM      6  C   UNL     1      44.644   7.522  11.380  0.00  0.00    +0.000 A 
ENDROOT
BRANCH   3   7
ATOM      7  C   UNL     1      46.992   5.617  14.452  0.00  0.00    +0.000 A 
ATOM      8  C   UNL     1      46.762   4.302  14.861  0.00  0.00    +0.000 A 
ATOM      9  C   UNL     1      47.583   3.731  15.829  0.00  0.00    +0.000 A 
ATOM     10  C   UNL     1      48.620   4.481  16.362  0.00  0.00    +0.000 A 
ATOM     11  C   UNL     1      48.793   5.774  15.902  0.00  0.00    +0.000 A 
ATOM     12  N   UNL     1      48.009   6.355  14.964  0.00  0.00    +0.000 NA
ENDBRANCH   3   7
BRANCH   5  13
ATOM     13  N   UNL     1      45.559   9.735  12.018  0.00  0.00    +0.000 N 
ATOM     14  O   UNL     1      46.667  10.210  11.735  0.00  0.00    +0.000 OA
ATOM     15  O   UNL     1      44.519  10.402  12.132  0.00  0.00    +0.000 OA
ENDBRANCH   5  13
BRANCH   1  16
ATOM     16  C   UNL     1      43.681   5.286  10.680  0.00  0.00    +0.000 C 
BRANCH  16  17
ATOM     17  O   UNL     1      44.200   3.955  10.652  0.00  0.00    +0.000 OA
BRANCH  17  21
ATOM     18  C   UNL     1      46.602   2.730   7.467  0.00  0.00    +0.000 A 
ATOM     19  C   UNL     1      46.355   4.096   7.632  0.00  0.00    +0.000 A 
ATOM     20  C   UNL     1      45.552   4.544   8.685  0.00  0.00    +0.000 A 
ATOM     21  C   UNL     1      44.987   3.632   9.579  0.00  0.00    +0.000 A 
ATOM     22  C   UNL     1      45.213   2.265   9.396  0.00  0.00    +0.000 A 
ATOM     23  C   UNL     1      46.014   1.811   8.340  0.00  0.00    +0.000 A 
BRANCH  18  25
ATOM     24  N   UNL     1      47.724   3.096   5.341  0.00  0.00    +0.000 N 
ATOM     25  C   UNL     1      47.468   2.230   6.369  0.00  0.00    +0.000 C 
ATOM     26  O   UNL     1      47.962   1.112   6.396  0.00  0.00    +0.000 OA
ATOM     27  H   UNL     1      48.403   2.789   4.656  0.00  0.00    +0.000 HD
ATOM     28  H   UNL     1      47.555   4.089   5.416  0.00  0.00    +0.000 HD
ENDBRANCH  18  25
ENDBRANCH  17  21
ENDBRANCH  16  17
ENDBRANCH   1  16
TORSDOF 6
ENDMDL
MODEL 5
REMARK VINA RESULT:    -6.585      3.465      8.051
REMARK INTER + INTRA:         -10.111
REMARK INTER:                  -9.239
REMARK INTRA:                  -0.872
REMARK UNBOUND:                -1.216
REMARK  Name = 
REMARK  6 active torsions:
REMARK  status: ('A' for Active; 'I' for Inactive)
REMARK    1  A    between atoms: C_2  and  C_4
REMARK    2  A    between atoms: C_7  and  O_8
REMARK    3  A    between atoms: O_8  and  C_9
REMARK    4  A    between atoms: C_9  and  C_10
REMARK    5  A    between atoms: C_12  and  C_13
REMARK    6  A    between atoms: C_20  and  N_21
REMARK                            x       y       z     vdW  Elec       q    Type
REMARK                         _______ _______ _______ _____ _____    ______ ____
ROOT
ATOM      1  C   UNL     1      46.860   7.354  12.971  0.00  0.00    +0.000 A 
ATOM      2  C   UNL     1      46.552   6.227  12.192  0.00  0.00    +0.000 A 
ATOM      3  C   UNL     1      45.518   6.231  11.236  0.00  0.00    +0.000 A 
ATOM      4  C   UNL     1      44.811   7.432  11.046  0.00  0.00    +0.000 A 
ATOM      5  C   UNL     1      45.108   8.563  11.820  0.00  0.00    +0.000 A 
ATOM      6  C   UNL     1      46.128   8.529  12.781  0.00  0.00    +0.000 A 
ENDROOT
BRANCH   3   7
ATOM      7  C   UNL     1      45.170   5.012  10.479  0.00  0.00    +0.000 A 
ATOM      8  C   UNL     1      45.516   4.844   9.137  0.00  0.00    +0.000 A 
ATOM      9  C   UNL     1      45.163   3.669   8.480  0.00  0.00    +0.000 A 
ATOM     10  C   UNL     1      44.479   2.684   9.178  0.00  0.00    +0.000 A 
ATOM     11  C   UNL     1      44.180   2.917  10.508  0.00  0.00    +0.000 A 
ATOM     12  N   UNL     1      44.509   4.050  11.171  0.00  0.00    +0.000 NA
ENDBRANCH   3   7
BRANCH   5  13
ATOM     13  N   UNL     1      44.327   9.795  11.641  0.00  0.00    +0.000 N 
ATOM     14  O   UNL     1      44.759  10.837  12.151  0.00  0.00    +0.000 OA
ATOM     15  O   UNL     1      43.280   9.720  10.980  0.00  0.00    +0.000 OA
ENDBRANCH   5  13
BRANCH   1  16
ATOM     16  C   UNL     1      47.977   7.282  13.983  0.00  0.00    +0.000 C 
BRANCH  16  17
ATOM     17  O   UNL     1      48.298   5.910  14.223  0.00  0.00    +0.000 OA
BRANCH  17  21
ATOM     18  C   UNL     1      48.399   4.812  18.247  0.00  0.00    +0.000 A 
ATOM     19  C   UNL     1      47.565   4.100  17.380  0.00  0.00    +0.000 A 
ATOM     20  C   UNL     1      47.502   4.442  16.026  0.00  0.00    +0.000 A 
ATOM     21  C   UNL     1      48.267   5.498  15.528  0.00  0.00    +0.000 A 
ATOM     22  C   UNL     1      49.080   6.225  16.402  0.00  0.00    +0.000 A 
ATOM     23  C   UNL     1      49.143   5.890  17.760  0.00  0.00    +0.000 A 
BRANCH  18  25
ATOM     24  N   UNL     1      48.371   3.133  20.006  0.00  0.00    +0.000 N 
ATOM     25  C   UNL     1      48.500   4.457  19.685  0.00  0.00    +0.000 C 
ATOM     26  O   UNL     1      48.726   5.299  20.543  0.00  0.00    +0.000 OA
ATOM     27  H   UNL     1      48.552   2.886  20.970  0.00  0.00    +0.000 HD
ATOM     28  H   UNL     1      48.448   2.400  19.315  0.00  0.00    +0.000 HD
ENDBRANCH  18  25
ENDBRANCH  17  21
ENDBRANCH  16  17
ENDBRANCH   1  16
TORSDOF 6
ENDMDL
MODEL 6
REMARK VINA RESULT:    -6.502      3.428      7.097
REMARK INTER + INTRA:          -9.999
REMARK INTER:                  -9.048
REMARK INTRA:                  -0.950
REMARK UNBOUND:                -1.216
REMARK  Name = 
REMARK  6 active torsions:
REMARK  status: ('A' for Active; 'I' for Inactive)
REMARK    1  A    between atoms: C_2  and  C_4
REMARK    2  A    between atoms: C_7  and  O_8
REMARK    3  A    between atoms: O_8  and  C_9
REMARK    4  A    between atoms: C_9  and  C_10
REMARK    5  A    between atoms: C_12  and  C_13
REMARK    6  A    between atoms: C_20  and  N_21
REMARK                            x       y       z     vdW  Elec       q    Type
REMARK                         _______ _______ _______ _____ _____    ______ ____
ROOT
ATOM      1  C   UNL     1      46.355   4.599  13.219  0.00  0.00    +0.000 A 
ATOM      2  C   UNL     1      47.025   5.822  13.059  0.00  0.00    +0.000 A 
ATOM      3  C   UNL     1      46.505   6.869  12.273  0.00  0.00    +0.000 A 
ATOM      4  C   UNL     1      45.248   6.671  11.673  0.00  0.00    +0.000 A 
ATOM      5  C   UNL     1      44.570   5.453  11.826  0.00  0.00    +0.000 A 
ATOM      6  C   UNL     1      45.119   4.417  12.595  0.00  0.00    +0.000 A 
ENDROOT
BRANCH   3   7
ATOM      7  C   UNL     1      47.262   8.119  12.064  0.00  0.00    +0.000 A 
ATOM      8  C   UNL     1      48.619   8.122  11.735  0.00  0.00    +0.000 A 
ATOM      9  C   UNL     1      49.276   9.335  11.547  0.00  0.00    +0.000 A 
ATOM     10  C   UNL     1      48.564  10.517  11.685  0.00  0.00    +0.000 A 
ATOM     11  C   UNL     1      47.221  10.436  12.003  0.00  0.00    +0.000 A 
ATOM     12  N   UNL     1      46.557   9.271  12.192  0.00  0.00    +0.000 NA
ENDBRANCH   3   7
BRANCH   5  13
ATOM     13  N   UNL     1      43.281   5.246  11.153  0.00  0.00    +0.000 N 
ATOM     14  O   UNL     1      43.292   4.780  10.005  0.00  0.00    +0.000 OA
ATOM     15  O   UNL     1      42.252   5.543  11.779  0.00  0.00    +0.000 OA
ENDBRANCH   5  13
BRANCH   1  16
ATOM     16  C   UNL     1      46.970   3.516  14.070  0.00  0.00    +0.000 C 
BRANCH  16  17
ATOM     17  O   UNL     1      46.679   3.782  15.444  0.00  0.00    +0.000 OA
BRANCH  17  21
ATOM     18  C   UNL     1      49.946   4.244  17.998  0.00  0.00    +0.000 A 
ATOM     19  C   UNL     1      49.385   5.385  17.416  0.00  0.00    +0.000 A 
ATOM     20  C   UNL     1      48.293   5.268  16.552  0.00  0.00    +0.000 A 
ATOM     21  C   UNL     1      47.753   4.014  16.259  0.00  0.00    +0.000 A 
ATOM     22  C   UNL     1      48.332   2.873  16.821  0.00  0.00    +0.000 A 
ATOM     23  C   UNL     1      49.430   2.983  17.684  0.00  0.00    +0.000 A 
BRANCH  18  25
ATOM     24  N   UNL     1      52.085   3.408  18.796  0.00  0.00    +0.000 N 
ATOM     25  C   UNL     1      51.094   4.341  18.934  0.00  0.00    +0.000 C 
ATOM     26  O   UNL     1      51.174   5.234  19.765  0.00  0.00    +0.000 OA
ATOM     27  H   UNL     1      52.914   3.548  19.360  0.00  0.00    +0.000 HD
ATOM     28  H   UNL     1      52.176   2.835  17.969  0.00  0.00    +0.000 HD
ENDBRANCH  18  25
ENDBRANCH  17  21
ENDBRANCH  16  17
ENDBRANCH   1  16
TORSDOF 6
ENDMDL
MODEL 7
REMARK VINA RESULT:    -6.378      4.725      8.105
REMARK INTER + INTRA:          -9.831
REMARK INTER:                  -8.908
REMARK INTRA:                  -0.922
REMARK UNBOUND:                -1.216
REMARK  Name = 
REMARK  6 active torsions:
REMARK  status: ('A' for Active; 'I' for Inactive)
REMARK    1  A    between atoms: C_2  and  C_4
REMARK    2  A    between atoms: C_7  and  O_8
REMARK    3  A    between atoms: O_8  and  C_9
REMARK    4  A    between atoms: C_9  and  C_10
REMARK    5  A    between atoms: C_12  and  C_13
REMARK    6  A    between atoms: C_20  and  N_21
REMARK                            x       y       z     vdW  Elec       q    Type
REMARK                         _______ _______ _______ _____ _____    ______ ____
ROOT
ATOM      1  C   UNL     1      47.587   4.889  15.637  0.00  0.00    +0.000 A 
ATOM      2  C   UNL     1      46.685   4.408  14.674  0.00  0.00    +0.000 A 
ATOM      3  C   UNL     1      46.494   5.050  13.434  0.00  0.00    +0.000 A 
ATOM      4  C   UNL     1      47.275   6.186  13.161  0.00  0.00    +0.000 A 
ATOM      5  C   UNL     1      48.178   6.676  14.116  0.00  0.00    +0.000 A 
ATOM      6  C   UNL     1      48.336   6.034  15.352  0.00  0.00    +0.000 A 
ENDROOT
BRANCH   3   7
ATOM      7  C   UNL     1      45.490   4.562  12.468  0.00  0.00    +0.000 A 
ATOM      8  C   UNL     1      45.333   5.134  11.204  0.00  0.00    +0.000 A 
ATOM      9  C   UNL     1      44.370   4.626  10.336  0.00  0.00    +0.000 A 
ATOM     10  C   UNL     1      43.590   3.555  10.745  0.00  0.00    +0.000 A 
ATOM     11  C   UNL     1      43.809   3.035  12.008  0.00  0.00    +0.000 A 
ATOM     12  N   UNL     1      44.736   3.509  12.872  0.00  0.00    +0.000 NA
ENDBRANCH   3   7
BRANCH   5  13
ATOM     13  N   UNL     1      48.951   7.893  13.832  0.00  0.00    +0.000 N 
ATOM     14  O   UNL     1      49.436   8.023  12.700  0.00  0.00    +0.000 OA
ATOM     15  O   UNL     1      49.067   8.726  14.744  0.00  0.00    +0.000 OA
ENDBRANCH   5  13
BRANCH   1  16
ATOM     16  C   UNL     1      47.741   4.158  16.948  0.00  0.00    +0.000 C 
BRANCH  16  17
ATOM     17  O   UNL     1      48.897   4.656  17.625  0.00  0.00    +0.000 OA
BRANCH  17  21
ATOM     18  C   UNL     1      52.064   1.940  17.668  0.00  0.00    +0.000 A 
ATOM     19  C   UNL     1      52.317   3.269  18.020  0.00  0.00    +0.000 A 
ATOM     20  C   UNL     1      51.282   4.208  18.013  0.00  0.00    +0.000 A 
ATOM     21  C   UNL     1      49.987   3.829  17.652  0.00  0.00    +0.000 A 
ATOM     22  C   UNL     1      49.742   2.506  17.276  0.00  0.00    +0.000 A 
ATOM     23  C   UNL     1      50.777   1.562  17.277  0.00  0.00    +0.000 A 
BRANCH  18  25
ATOM     24  N   UNL     1      52.845  -0.282  18.271  0.00  0.00    +0.000 N 
ATOM     25  C   UNL     1      53.142   0.918  17.687  0.00  0.00    +0.000 C 
ATOM     26  O   UNL     1      54.231   1.122  17.171  0.00  0.00    +0.000 OA
ATOM     27  H   UNL     1      53.543  -1.009  18.180  0.00  0.00    +0.000 HD
ATOM     28  H   UNL     1      51.896  -0.570  18.464  0.00  0.00    +0.000 HD
ENDBRANCH  18  25
ENDBRANCH  17  21
ENDBRANCH  16  17
ENDBRANCH   1  16
TORSDOF 6
ENDMDL
MODEL 8
REMARK VINA RESULT:    -6.340      4.370      7.720
REMARK INTER + INTRA:          -9.780
REMARK INTER:                  -8.738
REMARK INTRA:                  -1.041
REMARK UNBOUND:                -1.216
REMARK  Name = 
REMARK  6 active torsions:
REMARK  status: ('A' for Active; 'I' for Inactive)
REMARK    1  A    between atoms: C_2  and  C_4
REMARK    2  A    between atoms: C_7  and  O_8
REMARK    3  A    between atoms: O_8  and  C_9
REMARK    4  A    between atoms: C_9  and  C_10
REMARK    5  A    between atoms: C_12  and  C_13
REMARK    6  A    between atoms: C_20  and  N_21
REMARK                            x       y       z     vdW  Elec       q    Type
REMARK                         _______ _______ _______ _____ _____    ______ ____
ROOT
ATOM      1  C   UNL     1      48.438   6.667  14.731  0.00  0.00    +0.000 A 
ATOM      2  C   UNL     1      47.319   5.976  14.239  0.00  0.00    +0.000 A 
ATOM      3  C   UNL     1      46.978   5.969  12.872  0.00  0.00    +0.000 A 
ATOM      4  C   UNL     1      47.829   6.652  11.985  0.00  0.00    +0.000 A 
ATOM      5  C   UNL     1      48.949   7.348  12.465  0.00  0.00    +0.000 A 
ATOM      6  C   UNL     1      49.255   7.358  13.833  0.00  0.00    +0.000 A 
ENDROOT
BRANCH   3   7
ATOM      7  C   UNL     1      45.758   5.292  12.391  0.00  0.00    +0.000 A 
ATOM      8  C   UNL     1      44.904   4.595  13.249  0.00  0.00    +0.000 A 
ATOM      9  C   UNL     1      43.766   3.981  12.734  0.00  0.00    +0.000 A 
ATOM     10  C   UNL     1      43.501   4.081  11.376  0.00  0.00    +0.000 A 
ATOM     11  C   UNL     1      44.387   4.795  10.590  0.00  0.00    +0.000 A 
ATOM     12  N   UNL     1      45.501   5.400  11.063  0.00  0.00    +0.000 NA
ENDBRANCH   3   7
BRANCH   5  13
ATOM     13  N   UNL     1      49.799   8.096  11.530  0.00  0.00    +0.000 N 
ATOM     14  O   UNL     1      49.552   9.297  11.352  0.00  0.00    +0.000 OA
ATOM     15  O   UNL     1      50.724   7.482  10.977  0.00  0.00    +0.000 OA
ENDBRANCH   5  13
BRANCH   1  16
ATOM     16  C   UNL     1      48.744   6.639  16.208  0.00  0.00    +0.000 C 
BRANCH  16  17
ATOM     17  O   UNL     1      48.170   5.462  16.779  0.00  0.00    +0.000 OA
BRANCH  17  21
ATOM     18  C   UNL     1      50.953   2.425  17.448  0.00  0.00    +0.000 A 
ATOM     19  C   UNL     1      49.668   2.073  17.023  0.00  0.00    +0.000 A 
ATOM     20  C   UNL     1      48.708   3.063  16.792  0.00  0.00    +0.000 A 
ATOM     21  C   UNL     1      49.021   4.410  16.988  0.00  0.00    +0.000 A 
ATOM     22  C   UNL     1      50.298   4.757  17.438  0.00  0.00    +0.000 A 
ATOM     23  C   UNL     1      51.262   3.769  17.675  0.00  0.00    +0.000 A 
BRANCH  18  25
ATOM     24  N   UNL     1      51.575   0.187  18.167  0.00  0.00    +0.000 N 
ATOM     25  C   UNL     1      51.996   1.395  17.681  0.00  0.00    +0.000 C 
ATOM     26  O   UNL     1      53.173   1.598  17.417  0.00  0.00    +0.000 OA
ATOM     27  H   UNL     1      52.274  -0.543  18.217  0.00  0.00    +0.000 HD
ATOM     28  H   UNL     1      50.606  -0.096  18.146  0.00  0.00    +0.000 HD
ENDBRANCH  18  25
ENDBRANCH  17  21
ENDBRANCH  16  17
ENDBRANCH   1  16
TORSDOF 6
ENDMDL
