MODEL 1
REMARK VINA RESULT:    -8.775      0.000      0.000
REMARK INTER + INTRA:         -13.990
REMARK INTER:                 -12.879
REMARK INTRA:                  -1.111
REMARK UNBOUND:                -1.111
REMARK  Name = 
REMARK  10 active torsions:
REMARK  status: ('A' for Active; 'I' for Inactive)
REMARK    1  A    between atoms: C_1  and  C_2
REMARK    2  A    between atoms: C_5  and  N_6
REMARK    3  A    between atoms: N_6  and  C_7
REMARK    4  A    between atoms: C_9  and  N_10
REMARK    5  A    between atoms: N_10  and  C_11
REMARK    6  A    between atoms: C_11  and  C_12
REMARK    7  A    between atoms: C_12  and  C_13
REMARK    8  A    between atoms: C_12  and  C_14
REMARK    9  A    between atoms: C_17  and  C_18
REMARK   10  A    between atoms: C_24  and  C_25
REMARK                            x       y       z     vdW  Elec       q    Type
REMARK                         _______ _______ _______ _____ _____    ______ ____
ROOT
ATOM      1  C   UNL     1      46.945   4.882  14.334  0.00  0.00    +0.000 A 
ATOM      2  C   UNL     1      45.607   4.857  13.903  0.00  0.00    +0.000 A 
ATOM      3  C   UNL     1      45.156   5.621  12.814  0.00  0.00    +0.000 A 
ATOM      4  C   UNL     1      46.070   6.487  12.215  0.00  0.00    +0.000 A 
ATOM      5  C   UNL     1      47.379   6.628  12.693  0.00  0.00    +0.000 A 
ATOM      6  C   UNL     1      47.815   5.800  13.738  0.00  0.00    +0.000 A 
ENDROOT
BRANCH   5   7
ATOM      7  C   UNL     1      48.276   7.690  12.109  0.00  0.00    +0.000 C 
ATOM      8  F   UNL     1      47.708   8.921  12.051  0.00  0.00    +0.000 F 
ATOM      9  F   UNL     1      49.421   7.841  12.833  0.00  0.00    +0.000 F 
ATOM     10  F   UNL     1      48.675   7.404  10.837  0.00  0.00    +0.000 F 
ENDBRANCH   5   7
BRANCH   1  11
ATOM     11  N   UNL     1      47.351   4.043  15.394  0.00  0.00    +0.000 N 
ATOM     12  H   UNL     1      47.664   3.125  15.082  0.00  0.00    +0.000 HD
BRANCH  11  17
ATOM     13  C   UNL     1      49.442   2.079  16.814  0.00  0.00    +0.000 C 
ATOM     14  C   UNL     1      48.838   3.353  17.377  0.00  0.00    +0.000 C 
ATOM     15  N   UNL     1      47.571   3.075  18.111  0.00  0.00    +0.000 NA
ATOM     16  C   UNL     1      47.143   4.464  17.835  0.00  0.00    +0.000 C 
ATOM     17  C   UNL     1      48.064   4.464  16.582  0.00  0.00    +0.000 C 
ATOM     18  H   UNL     1      47.704   2.845  19.094  0.00  0.00    +0.000 HD
ENDBRANCH  11  17
ENDBRANCH   1  11
BRANCH   3  19
ATOM     19  N   UNL     1      43.866   5.444  12.328  0.00  0.00    +0.000 N 
ATOM     20  H   UNL     1      43.125   5.858  12.884  0.00  0.00    +0.000 HD
BRANCH  19  21
ATOM     21  C   UNL     1      43.584   5.336  10.898  0.00  0.00    +0.000 C 
BRANCH  21  22
ATOM     22  C   UNL     1      43.481   3.865  10.431  0.00  0.00    +0.000 C 
ATOM     23  C   UNL     1      43.464   2.933  11.649  0.00  0.00    +0.000 C 
BRANCH  22  24
ATOM     24  C   UNL     1      44.549   3.464   9.433  0.00  0.00    +0.000 A 
ATOM     25  C   UNL     1      44.909   2.119   9.283  0.00  0.00    +0.000 A 
ATOM     26  C   UNL     1      45.886   1.753   8.364  0.00  0.00    +0.000 A 
ATOM     27  C   UNL     1      46.473   2.748   7.596  0.00  0.00    +0.000 A 
ATOM     28  N   UNL     1      46.153   4.071   7.699  0.00  0.00    +0.000 NA
ATOM     29  C   UNL     1      45.202   4.390   8.610  0.00  0.00    +0.000 A 
BRANCH  27  30
ATOM     30  C   UNL     1      47.517   2.373   6.586  0.00  0.00    +0.000 C 
ATOM     31  N   UNL     1      47.470   3.049   5.398  0.00  0.00    +0.000 N 
ATOM     32  O   UNL     1      48.362   1.512   6.801  0.00  0.00    +0.000 OA
ATOM     33  H   UNL     1      46.750   3.746   5.244  0.00  0.00    +0.000 HD
ATOM     34  H   UNL     1      48.139   2.829   4.676  0.00  0.00    +0.000 HD
ENDBRANCH  27  30
ENDBRANCH  22  24
ENDBRANCH  21  22
ENDBRANCH  19  21
ENDBRANCH   3  19
TORSDOF 8
ENDMDL
MODEL 2
REMARK VINA RESULT:    -8.097      2.597      4.429
REMARK INTER + INTRA:         -12.995
REMARK INTER:                 -11.816
REMARK INTRA:                  -1.179
REMARK UNBOUND:                -1.111
REMARK  Name = 
REMARK  10 active torsions:
REMARK  status: ('A' for Active; 'I' for Inactive)
REMARK    1  A    between atoms: C_1  and  C_2
REMARK    2  A    between atoms: C_5  and  N_6
REMARK    3  A    between atoms: N_6  and  C_7
REMARK    4  A    between atoms: C_9  and  N_10
REMARK    5  A    between atoms: N_10  and  C_11
REMARK    6  A    between atoms: C_11  and  C_12
REMARK    7  A    between atoms: C_12  and  C_13
REMARK    8  A    between atoms: C_12  and  C_14
REMARK    9  A    between atoms: C_17  and  C_18
REMARK   10  A    between atoms: C_24  and  C_25
REMARK                            x       y       z     vdW  Elec       q    Type
REMARK                         _______ _______ _______ _____ _____    ______ ____
ROOT
ATOM      1  C   UNL     1      47.428   6.696  12.841  0.00  0.00    +0.000 A 
ATOM      2  C   UNL     1      46.181   6.381  12.272  0.00  0.00    +0.000 A 
ATOM      3  C   UNL     1      45.294   5.469  12.868  0.00  0.00    +0.000 A 
ATOM      4  C   UNL     1      45.729   4.807  14.015  0.00  0.00    +0.000 A 
ATOM      5  C   UNL     1      47.011   5.005  14.544  0.00  0.00    +0.000 A 
ATOM      6  C   UNL     1      47.844   5.973  13.963  0.00  0.00    +0.000 A 
ENDROOT
BRANCH   5   7
ATOM      7  C   UNL     1      47.486   4.149  15.691  0.00  0.00    +0.000 C 
ATOM      8  F   UNL     1      47.806   2.880  15.336  0.00  0.00    +0.000 F 
ATOM      9  F   UNL     1      48.601   4.665  16.281  0.00  0.00    +0.000 F 
ATOM     10  F   UNL     1      46.558   4.035  16.683  0.00  0.00    +0.000 F 
ENDBRANCH   5   7
BRANCH   1  11
ATOM     11  N   UNL     1      48.247   7.669  12.230  0.00  0.00    +0.000 N 
ATOM     12  H   UNL     1      48.032   7.814  11.244  0.00  0.00    +0.000 HD
BRANCH  11  17
ATOM     13  C   UNL     1      46.621  10.401  11.861  0.00  0.00    +0.000 C 
ATOM     14  C   UNL     1      48.036  10.228  12.384  0.00  0.00    +0.000 C 
ATOM     15  N   UNL     1      49.035  10.285  11.279  0.00  0.00    +0.000 NA
ATOM     16  C   UNL     1      49.952   9.474  12.109  0.00  0.00    +0.000 C 
ATOM     17  C   UNL     1      48.715   8.891  12.849  0.00  0.00    +0.000 C 
ATOM     18  H   UNL     1      49.358  11.226  11.062  0.00  0.00    +0.000 HD
ENDBRANCH  11  17
ENDBRANCH   1  11
BRANCH   3  19
ATOM     19  N   UNL     1      44.013   5.310  12.355  0.00  0.00    +0.000 N 
ATOM     20  H   UNL     1      43.260   5.686  12.922  0.00  0.00    +0.000 HD
BRANCH  19  21
ATOM     21  C   UNL     1      43.752   5.279  10.917  0.00  0.00    +0.000 C 
BRANCH  21  22
ATOM     22  C   UNL     1      43.574   3.838  10.384  0.00  0.00    +0.000 C 
ATOM     23  C   UNL     1      43.519   2.853  11.558  0.00  0.00    +0.000 C 
BRANCH  22  24
ATOM     24  C   UNL     1      44.616   3.433   9.360  0.00  0.00    +0.000 A 
ATOM     25  C   UNL     1      45.035   2.100   9.267  0.00  0.00    +0.000 A 
ATOM     26  C   UNL     1      45.987   1.728   8.324  0.00  0.00    +0.000 A 
ATOM     27  C   UNL     1      46.491   2.705   7.477  0.00  0.00    +0.000 A 
ATOM     28  N   UNL     1      46.111   4.015   7.524  0.00  0.00    +0.000 NA
ATOM     29  C   UNL     1      45.186   4.340   8.459  0.00  0.00    +0.000 A 
BRANCH  27  30
ATOM     30  C   UNL     1      47.506   2.322   6.442  0.00  0.00    +0.000 C 
ATOM     31  N   UNL     1      47.530   3.095   5.314  0.00  0.00    +0.000 N 
ATOM     32  O   UNL     1      48.270   1.376   6.586  0.00  0.00    +0.000 OA
ATOM     33  H   UNL     1      46.876   3.864   5.216  0.00  0.00    +0.000 HD
ATOM     34  H   UNL     1      48.183   2.877   4.577  0.00  0.00    +0.000 HD
ENDBRANCH  27  30
ENDBRANCH  22  24
ENDBRANCH  21  22
ENDBRANCH  19  21
ENDBRANCH   3  19
TORSDOF 8
ENDMDL
MODEL 3
REMARK VINA RESULT:    -7.646      1.346      1.841
REMARK INTER + INTRA:         -12.334
REMARK INTER:                 -11.339
REMARK INTRA:                  -0.995
REMARK UNBOUND:                -1.111
REMARK  Name = 
REMARK  10 active torsions:
REMARK  status: ('A' for Active; 'I' for Inactive)
REMARK    1  A    between atoms: C_1  and  C_2
REMARK    2  A    between atoms: C_5  and  N_6
REMARK    3  A    between atoms: N_6  and  C_7
REMARK    4  A    between atoms: C_9  and  N_10
REMARK    5  A    between atoms: N_10  and  C_11
REMARK    6  A    between atoms: C_11  and  C_12
REMARK    7  A    between atoms: C_12  and  C_13
REMARK    8  A    between atoms: C_12  and  C_14
REMARK    9  A    between atoms: C_17  and  C_18
REMARK   10  A    between atoms: C_24  and  C_25
REMARK                            x       y       z     vdW  Elec       q    Type
REMARK                         _______ _______ _______ _____ _____    ______ ____
ROOT
ATOM      1  C   UNL     1      47.824   5.343  15.458  0.00  0.00    +0.000 A 
ATOM      2  C   UNL     1      46.956   4.414  14.857  0.00  0.00    +0.000 A 
ATOM      3  C   UNL     1      46.613   4.480  13.497  0.00  0.00    +0.000 A 
ATOM      4  C   UNL     1      47.097   5.563  12.765  0.00  0.00    +0.000 A 
ATOM      5  C   UNL     1      47.866   6.573  13.357  0.00  0.00    +0.000 A 
ATOM      6  C   UNL     1      48.247   6.439  14.700  0.00  0.00    +0.000 A 
ENDROOT
BRANCH   5   7
ATOM      7  C   UNL     1      48.231   7.799  12.558  0.00  0.00    +0.000 C 
ATOM      8  F   UNL     1      48.723   7.526  11.324  0.00  0.00    +0.000 F 
ATOM      9  F   UNL     1      47.156   8.614  12.360  0.00  0.00    +0.000 F 
ATOM     10  F   UNL     1      49.173   8.569  13.173  0.00  0.00    +0.000 F 
ENDBRANCH   5   7
BRANCH   1  11
ATOM     11  N   UNL     1      48.183   5.185  16.814  0.00  0.00    +0.000 N 
ATOM     12  H   UNL     1      47.489   4.672  17.356  0.00  0.00    +0.000 HD
BRANCH  11  17
ATOM     13  C   UNL     1      49.396   2.224  16.842  0.00  0.00    +0.000 C 
ATOM     14  C   UNL     1      49.926   3.449  17.565  0.00  0.00    +0.000 C 
ATOM     15  N   UNL     1      49.331   3.576  18.926  0.00  0.00    +0.000 NA
ATOM     16  C   UNL     1      49.581   5.033  18.864  0.00  0.00    +0.000 C 
ATOM     17  C   UNL     1      49.520   4.945  17.313  0.00  0.00    +0.000 C 
ATOM     18  H   UNL     1      49.843   3.074  19.649  0.00  0.00    +0.000 HD
ENDBRANCH  11  17
ENDBRANCH   1  11
BRANCH   3  19
ATOM     19  N   UNL     1      45.879   3.453  12.914  0.00  0.00    +0.000 N 
ATOM     20  H   UNL     1      46.101   2.516  13.235  0.00  0.00    +0.000 HD
BRANCH  19  21
ATOM     21  C   UNL     1      44.504   3.645  12.458  0.00  0.00    +0.000 C 
BRANCH  21  22
ATOM     22  C   UNL     1      44.422   4.558  11.213  0.00  0.00    +0.000 C 
ATOM     23  C   UNL     1      42.966   4.969  10.965  0.00  0.00    +0.000 C 
BRANCH  22  24
ATOM     24  C   UNL     1      45.054   3.957   9.973  0.00  0.00    +0.000 A 
ATOM     25  C   UNL     1      45.698   4.778   9.039  0.00  0.00    +0.000 A 
ATOM     26  C   UNL     1      46.281   4.225   7.903  0.00  0.00    +0.000 A 
ATOM     27  C   UNL     1      46.221   2.849   7.736  0.00  0.00    +0.000 A 
ATOM     28  N   UNL     1      45.611   2.006   8.620  0.00  0.00    +0.000 NA
ATOM     29  C   UNL     1      45.049   2.582   9.710  0.00  0.00    +0.000 A 
BRANCH  27  30
ATOM     30  C   UNL     1      46.858   2.231   6.528  0.00  0.00    +0.000 C 
ATOM     31  N   UNL     1      47.019   3.056   5.449  0.00  0.00    +0.000 N 
ATOM     32  O   UNL     1      47.215   1.059   6.497  0.00  0.00    +0.000 OA
ATOM     33  H   UNL     1      46.701   4.018   5.499  0.00  0.00    +0.000 HD
ATOM     34  H   UNL     1      47.430   2.691   4.603  0.00  0.00    +0.000 HD
ENDBRANCH  27  30
ENDBRANCH  22  24
ENDBRANCH  21  22
ENDBRANCH  19  21
ENDBRANCH   3  19
TORSDOF 8
ENDMDL
MODEL 4
REMARK VINA RESULT:    -7.414      2.317      2.862
REMARK INTER + INTRA:         -11.993
REMARK INTER:                 -11.009
REMARK INTRA:                  -0.984
REMARK UNBOUND:                -1.111
REMARK  Name = 
REMARK  10 active torsions:
REMARK  status: ('A' for Active; 'I' for Inactive)
REMARK    1  A    between atoms: C_1  and  C_2
REMARK    2  A    between atoms: C_5  and  N_6
REMARK    3  A    between atoms: N_6  and  C_7
REMARK    4  A    between atoms: C_9  and  N_10
REMARK    5  A    between atoms: N_10  and  C_11
REMARK    6  A    between atoms: C_11  and  C_12
REMARK    7  A    between atoms: C_12  and  C_13
REMARK    8  A    between atoms: C_12  and  C_14
REMARK    9  A    between atoms: C_17  and  C_18
REMARK   10  A    between atoms: C_24  and  C_25
REMARK                            x       y       z     vdW  Elec       q    Type
REMARK                         _______ _______ _______ _____ _____    ______ ____
ROOT
ATOM      1  C   UNL     1      47.708   8.538  14.122  0.00  0.00    +0.000 A 
ATOM      2  C   UNL     1      46.625   8.051  13.370  0.00  0.00    +0.000 A 
ATOM      3  C   UNL     1      46.791   7.490  12.093  0.00  0.00    +0.000 A 
ATOM      4  C   UNL     1      48.073   7.511  11.545  0.00  0.00    +0.000 A 
ATOM      5  C   UNL     1      49.155   8.097  12.214  0.00  0.00    +0.000 A 
ATOM      6  C   UNL     1      48.966   8.584  13.516  0.00  0.00    +0.000 A 
ENDROOT
BRANCH   5   7
ATOM      7  C   UNL     1      50.482   8.232  11.511  0.00  0.00    +0.000 C 
ATOM      8  F   UNL     1      51.554   8.163  12.340  0.00  0.00    +0.000 F 
ATOM      9  F   UNL     1      50.665   7.253  10.580  0.00  0.00    +0.000 F 
ATOM     10  F   UNL     1      50.606   9.412  10.840  0.00  0.00    +0.000 F 
ENDBRANCH   5   7
BRANCH   1  11
ATOM     11  N   UNL     1      47.485   9.029  15.427  0.00  0.00    +0.000 N 
ATOM     12  H   UNL     1      46.558   8.806  15.787  0.00  0.00    +0.000 HD
BRANCH  11  17
ATOM     13  C   UNL     1      48.763   6.329  16.576  0.00  0.00    +0.000 C 
ATOM     14  C   UNL     1      48.818   7.716  17.192  0.00  0.00    +0.000 C 
ATOM     15  N   UNL     1      47.664   7.951  18.105  0.00  0.00    +0.000 NA
ATOM     16  C   UNL     1      47.809   9.403  17.863  0.00  0.00    +0.000 C 
ATOM     17  C   UNL     1      48.465   9.076  16.491  0.00  0.00    +0.000 C 
ATOM     18  H   UNL     1      47.827   7.649  19.064  0.00  0.00    +0.000 HD
ENDBRANCH  11  17
ENDBRANCH   1  11
BRANCH   3  19
ATOM     19  N   UNL     1      45.717   6.881  11.456  0.00  0.00    +0.000 N 
ATOM     20  H   UNL     1      45.527   7.198  10.510  0.00  0.00    +0.000 HD
BRANCH  19  21
ATOM     21  C   UNL     1      45.330   5.500  11.738  0.00  0.00    +0.000 C 
BRANCH  21  22
ATOM     22  C   UNL     1      44.424   4.908  10.633  0.00  0.00    +0.000 C 
ATOM     23  C   UNL     1      43.365   3.995  11.263  0.00  0.00    +0.000 C 
BRANCH  22  24
ATOM     24  C   UNL     1      45.187   4.204   9.529  0.00  0.00    +0.000 A 
ATOM     25  C   UNL     1      45.145   2.809   9.418  0.00  0.00    +0.000 A 
ATOM     26  C   UNL     1      45.842   2.164   8.402  0.00  0.00    +0.000 A 
ATOM     27  C   UNL     1      46.559   2.940   7.502  0.00  0.00    +0.000 A 
ATOM     28  N   UNL     1      46.626   4.301   7.563  0.00  0.00    +0.000 NA
ATOM     29  C   UNL     1      45.940   4.893   8.570  0.00  0.00    +0.000 A 
BRANCH  27  30
ATOM     30  C   UNL     1      47.304   2.266   6.388  0.00  0.00    +0.000 C 
ATOM     31  N   UNL     1      47.370   2.957   5.209  0.00  0.00    +0.000 N 
ATOM     32  O   UNL     1      47.822   1.163   6.514  0.00  0.00    +0.000 OA
ATOM     33  H   UNL     1      46.920   3.862   5.131  0.00  0.00    +0.000 HD
ATOM     34  H   UNL     1      47.848   2.547   4.421  0.00  0.00    +0.000 HD
ENDBRANCH  27  30
ENDBRANCH  22  24
ENDBRANCH  21  22
ENDBRANCH  19  21
ENDBRANCH   3  19
TORSDOF 8
ENDMDL
MODEL 5
REMARK VINA RESULT:    -7.133      3.053      3.842
REMARK INTER + INTRA:         -11.581
REMARK INTER:                 -10.447
REMARK INTRA:                  -1.133
REMARK UNBOUND:                -1.111
REMARK  Name = 
REMARK  10 active torsions:
REMARK  status: ('A' for Active; 'I' for Inactive)
REMARK    1  A    between atoms: C_1  and  C_2
REMARK    2  A    between atoms: C_5  and  N_6
REMARK    3  A    between atoms: N_6  and  C_7
REMARK    4  A    between atoms: C_9  and  N_10
REMARK    5  A    between atoms: N_10  and  C_11
REMARK    6  A    between atoms: C_11  and  C_12
REMARK    7  A    between atoms: C_12  and  C_13
REMARK    8  A    between atoms: C_12  and  C_14
REMARK    9  A    between atoms: C_17  and  C_18
REMARK   10  A    between atoms: C_24  and  C_25
REMARK                            x       y       z     vdW  Elec       q    Type
REMARK                         _______ _______ _______ _____ _____    ______ ____
ROOT
ATOM      1  C   UNL     1      47.014   8.406  12.460  0.00  0.00    +0.000 A 
ATOM      2  C   UNL     1      46.425   7.194  12.860  0.00  0.00    +0.000 A 
ATOM      3  C   UNL     1      45.099   6.862  12.535  0.00  0.00    +0.000 A 
ATOM      4  C   UNL     1      44.342   7.824  11.868  0.00  0.00    +0.000 A 
ATOM      5  C   UNL     1      44.857   9.089  11.559  0.00  0.00    +0.000 A 
ATOM      6  C   UNL     1      46.206   9.360  11.836  0.00  0.00    +0.000 A 
ENDROOT
BRANCH   5   7
ATOM      7  C   UNL     1      43.949  10.143  10.978  0.00  0.00    +0.000 C 
ATOM      8  F   UNL     1      43.966  11.319  11.655  0.00  0.00    +0.000 F 
ATOM      9  F   UNL     1      44.281  10.447   9.692  0.00  0.00    +0.000 F 
ATOM     10  F   UNL     1      42.643   9.753  10.943  0.00  0.00    +0.000 F 
ENDBRANCH   5   7
BRANCH   1  11
ATOM     11  N   UNL     1      48.371   8.654  12.760  0.00  0.00    +0.000 N 
ATOM     12  H   UNL     1      48.508   9.464  13.362  0.00  0.00    +0.000 HD
BRANCH  11  17
ATOM     13  C   UNL     1      48.913   7.575  15.724  0.00  0.00    +0.000 C 
ATOM     14  C   UNL     1      49.786   7.388  14.496  0.00  0.00    +0.000 C 
ATOM     15  N   UNL     1      50.776   8.494  14.359  0.00  0.00    +0.000 NA
ATOM     16  C   UNL     1      50.817   8.234  12.904  0.00  0.00    +0.000 C 
ATOM     17  C   UNL     1      49.381   7.645  13.001  0.00  0.00    +0.000 C 
ATOM     18  H   UNL     1      51.649   8.331  14.858  0.00  0.00    +0.000 HD
ENDBRANCH  11  17
ENDBRANCH   1  11
BRANCH   3  19
ATOM     19  N   UNL     1      44.612   5.591  12.816  0.00  0.00    +0.000 N 
ATOM     20  H   UNL     1      43.634   5.542  13.082  0.00  0.00    +0.000 HD
BRANCH  19  21
ATOM     21  C   UNL     1      45.137   4.397  12.157  0.00  0.00    +0.000 C 
BRANCH  21  22
ATOM     22  C   UNL     1      44.260   3.953  10.963  0.00  0.00    +0.000 C 
ATOM     23  C   UNL     1      43.358   2.787  11.385  0.00  0.00    +0.000 C 
BRANCH  22  24
ATOM     24  C   UNL     1      45.051   3.626   9.712  0.00  0.00    +0.000 A 
ATOM     25  C   UNL     1      45.263   2.294   9.338  0.00  0.00    +0.000 A 
ATOM     26  C   UNL     1      45.986   1.995   8.187  0.00  0.00    +0.000 A 
ATOM     27  C   UNL     1      46.468   3.047   7.421  0.00  0.00    +0.000 A 
ATOM     28  N   UNL     1      46.282   4.361   7.740  0.00  0.00    +0.000 NA
ATOM     29  C   UNL     1      45.580   4.613   8.870  0.00  0.00    +0.000 A 
BRANCH  27  30
ATOM     30  C   UNL     1      47.234   2.747   6.168  0.00  0.00    +0.000 C 
ATOM     31  N   UNL     1      48.552   2.419   6.337  0.00  0.00    +0.000 N 
ATOM     32  O   UNL     1      46.723   2.793   5.055  0.00  0.00    +0.000 OA
ATOM     33  H   UNL     1      48.951   2.403   7.269  0.00  0.00    +0.000 HD
ATOM     34  H   UNL     1      49.121   2.220   5.528  0.00  0.00    +0.000 HD
ENDBRANCH  27  30
ENDBRANCH  22  24
ENDBRANCH  21  22
ENDBRANCH  19  21
ENDBRANCH   3  19
TORSDOF 8
ENDMDL
MODEL 6
REMARK VINA RESULT:    -7.070      3.428      7.408
REMARK INTER + INTRA:         -11.487
REMARK INTER:                 -10.232
REMARK INTRA:                  -1.255
REMARK UNBOUND:                -1.111
REMARK  Name = 
REMARK  10 active torsions:
REMARK  status: ('A' for Active; 'I' for Inactive)
REMARK    1  A    between atoms: C_1  and  C_2
REMARK    2  A    between atoms: C_5  and  N_6
REMARK    3  A    between atoms: N_6  and  C_7
REMARK    4  A    between atoms: C_9  and  N_10
REMARK    5  A    between atoms: N_10  and  C_11
REMARK    6  A    between atoms: C_11  and  C_12
REMARK    7  A    between atoms: C_12  and  C_13
REMARK    8  A    between atoms: C_12  and  C_14
REMARK    9  A    between atoms: C_17  and  C_18
REMARK   10  A    between atoms: C_24  and  C_25
REMARK                            x       y       z     vdW  Elec       q    Type
REMARK                         _______ _______ _______ _____ _____    ______ ____
ROOT
ATOM      1  C   UNL     1      44.332   7.035  11.754  0.00  0.00    +0.000 A 
ATOM      2  C   UNL     1      45.355   7.260  12.692  0.00  0.00    +0.000 A 
ATOM      3  C   UNL     1      45.828   8.549  12.990  0.00  0.00    +0.000 A 
ATOM      4  C   UNL     1      45.306   9.611  12.253  0.00  0.00    +0.000 A 
ATOM      5  C   UNL     1      44.373   9.413  11.228  0.00  0.00    +0.000 A 
ATOM      6  C   UNL     1      43.872   8.122  11.004  0.00  0.00    +0.000 A 
ENDROOT
BRANCH   5   7
ATOM      7  C   UNL     1      43.960  10.575  10.359  0.00  0.00    +0.000 C 
ATOM      8  F   UNL     1      43.167  10.228   9.315  0.00  0.00    +0.000 F 
ATOM      9  F   UNL     1      43.264  11.511  11.063  0.00  0.00    +0.000 F 
ATOM     10  F   UNL     1      45.024  11.233   9.817  0.00  0.00    +0.000 F 
ENDBRANCH   5   7
BRANCH   1  11
ATOM     11  N   UNL     1      43.854   5.724  11.546  0.00  0.00    +0.000 N 
ATOM     12  H   UNL     1      43.204   5.652  10.765  0.00  0.00    +0.000 HD
BRANCH  11  17
ATOM     13  C   UNL     1      44.515   3.890   9.007  0.00  0.00    +0.000 C 
ATOM     14  C   UNL     1      44.653   3.525  10.475  0.00  0.00    +0.000 C 
ATOM     15  N   UNL     1      43.399   2.919  11.005  0.00  0.00    +0.000 NA
ATOM     16  C   UNL     1      43.788   3.374  12.357  0.00  0.00    +0.000 C 
ATOM     17  C   UNL     1      44.625   4.508  11.699  0.00  0.00    +0.000 C 
ATOM     18  H   UNL     1      43.345   1.910  10.882  0.00  0.00    +0.000 HD
ENDBRANCH  11  17
ENDBRANCH   1  11
BRANCH   3  19
ATOM     19  N   UNL     1      46.727   8.735  14.034  0.00  0.00    +0.000 N 
ATOM     20  H   UNL     1      46.541   8.200  14.876  0.00  0.00    +0.000 HD
BRANCH  19  21
ATOM     21  C   UNL     1      48.134   9.054  13.798  0.00  0.00    +0.000 C 
BRANCH  21  22
ATOM     22  C   UNL     1      49.025   7.790  13.775  0.00  0.00    +0.000 C 
ATOM     23  C   UNL     1      49.081   7.218  12.353  0.00  0.00    +0.000 C 
BRANCH  22  24
ATOM     24  C   UNL     1      48.618   6.737  14.787  0.00  0.00    +0.000 A 
ATOM     25  C   UNL     1      48.953   6.888  16.138  0.00  0.00    +0.000 A 
ATOM     26  C   UNL     1      48.575   5.923  17.067  0.00  0.00    +0.000 A 
ATOM     27  C   UNL     1      47.848   4.829  16.619  0.00  0.00    +0.000 A 
ATOM     28  N   UNL     1      47.492   4.640  15.316  0.00  0.00    +0.000 NA
ATOM     29  C   UNL     1      47.883   5.596  14.440  0.00  0.00    +0.000 A 
BRANCH  27  30
ATOM     30  C   UNL     1      47.416   3.786  17.606  0.00  0.00    +0.000 C 
ATOM     31  N   UNL     1      48.052   3.809  18.817  0.00  0.00    +0.000 N 
ATOM     32  O   UNL     1      46.549   2.957  17.354  0.00  0.00    +0.000 OA
ATOM     33  H   UNL     1      48.775   4.498  18.993  0.00  0.00    +0.000 HD
ATOM     34  H   UNL     1      47.811   3.123  19.516  0.00  0.00    +0.000 HD
ENDBRANCH  27  30
ENDBRANCH  22  24
ENDBRANCH  21  22
ENDBRANCH  19  21
ENDBRANCH   3  19
TORSDOF 8
ENDMDL
MODEL 7
REMARK VINA RESULT:    -6.672      3.790      5.475
REMARK INTER + INTRA:         -10.903
REMARK INTER:                  -9.493
REMARK INTRA:                  -1.409
REMARK UNBOUND:                -1.111
REMARK  Name = 
REMARK  10 active torsions:
REMARK  status: ('A' for Active; 'I' for Inactive)
REMARK    1  A    between atoms: C_1  and  C_2
REMARK    2  A    between atoms: C_5  and  N_6
REMARK    3  A    between atoms: N_6  and  C_7
REMARK    4  A    between atoms: C_9  and  N_10
REMARK    5  A    between atoms: N_10  and  C_11
REMARK    6  A    between atoms: C_11  and  C_12
REMARK    7  A    between atoms: C_12  and  C_13
REMARK    8  A    between atoms: C_12  and  C_14
REMARK    9  A    between atoms: C_17  and  C_18
REMARK   10  A    between atoms: C_24  and  C_25
REMARK                            x       y       z     vdW  Elec       q    Type
REMARK                         _______ _______ _______ _____ _____    ______ ____
ROOT
ATOM      1  C   UNL     1      49.058   6.413  17.210  0.00  0.00    +0.000 A 
ATOM      2  C   UNL     1      49.103   6.825  15.867  0.00  0.00    +0.000 A 
ATOM      3  C   UNL     1      48.838   8.149  15.480  0.00  0.00    +0.000 A 
ATOM      4  C   UNL     1      48.436   9.040  16.474  0.00  0.00    +0.000 A 
ATOM      5  C   UNL     1      48.264   8.637  17.804  0.00  0.00    +0.000 A 
ATOM      6  C   UNL     1      48.604   7.325  18.167  0.00  0.00    +0.000 A 
ENDROOT
BRANCH   5   7
ATOM      7  C   UNL     1      47.678   9.600  18.806  0.00  0.00    +0.000 C 
ATOM      8  F   UNL     1      47.208  10.748  18.257  0.00  0.00    +0.000 F 
ATOM      9  F   UNL     1      46.630   9.052  19.483  0.00  0.00    +0.000 F 
ATOM     10  F   UNL     1      48.576   9.983  19.757  0.00  0.00    +0.000 F 
ENDBRANCH   5   7
BRANCH   1  11
ATOM     11  N   UNL     1      49.399   5.084  17.543  0.00  0.00    +0.000 N 
ATOM     12  H   UNL     1      50.186   5.020  18.186  0.00  0.00    +0.000 HD
BRANCH  11  17
ATOM     13  C   UNL     1      50.284   2.058  16.993  0.00  0.00    +0.000 C 
ATOM     14  C   UNL     1      48.875   2.591  17.181  0.00  0.00    +0.000 C 
ATOM     15  N   UNL     1      48.270   3.002  15.882  0.00  0.00    +0.000 NA
ATOM     16  C   UNL     1      47.395   3.937  16.621  0.00  0.00    +0.000 C 
ATOM     17  C   UNL     1      48.464   3.997  17.748  0.00  0.00    +0.000 C 
ATOM     18  H   UNL     1      47.792   2.248  15.392  0.00  0.00    +0.000 HD
ENDBRANCH  11  17
ENDBRANCH   1  11
BRANCH   3  19
ATOM     19  N   UNL     1      49.047   8.543  14.164  0.00  0.00    +0.000 N 
ATOM     20  H   UNL     1      49.532   9.426  14.039  0.00  0.00    +0.000 HD
BRANCH  19  21
ATOM     21  C   UNL     1      49.233   7.575  13.084  0.00  0.00    +0.000 C 
BRANCH  21  22
ATOM     22  C   UNL     1      48.129   7.681  12.007  0.00  0.00    +0.000 C 
ATOM     23  C   UNL     1      47.451   9.054  12.089  0.00  0.00    +0.000 C 
BRANCH  22  24
ATOM     24  C   UNL     1      47.118   6.553  12.056  0.00  0.00    +0.000 A 
ATOM     25  C   UNL     1      46.130   6.444  11.069  0.00  0.00    +0.000 A 
ATOM     26  C   UNL     1      45.205   5.406  11.113  0.00  0.00    +0.000 A 
ATOM     27  C   UNL     1      45.303   4.482  12.144  0.00  0.00    +0.000 A 
ATOM     28  N   UNL     1      46.250   4.540  13.124  0.00  0.00    +0.000 NA
ATOM     29  C   UNL     1      47.128   5.568  13.052  0.00  0.00    +0.000 A 
BRANCH  27  30
ATOM     30  C   UNL     1      44.326   3.345  12.200  0.00  0.00    +0.000 C 
ATOM     31  N   UNL     1      44.323   2.506  11.119  0.00  0.00    +0.000 N 
ATOM     32  O   UNL     1      43.571   3.170  13.149  0.00  0.00    +0.000 OA
ATOM     33  H   UNL     1      44.950   2.684  10.342  0.00  0.00    +0.000 HD
ATOM     34  H   UNL     1      43.678   1.731  11.095  0.00  0.00    +0.000 HD
ENDBRANCH  27  30
ENDBRANCH  22  24
ENDBRANCH  21  22
ENDBRANCH  19  21
ENDBRANCH   3  19
TORSDOF 8
ENDMDL
MODEL 8
REMARK VINA RESULT:    -6.581      4.050      7.201
REMARK INTER + INTRA:         -10.770
REMARK INTER:                  -9.813
REMARK INTRA:                  -0.957
REMARK UNBOUND:                -1.111
REMARK  Name = 
REMARK  10 active torsions:
REMARK  status: ('A' for Active; 'I' for Inactive)
REMARK    1  A    between atoms: C_1  and  C_2
REMARK    2  A    between atoms: C_5  and  N_6
REMARK    3  A    between atoms: N_6  and  C_7
REMARK    4  A    between atoms: C_9  and  N_10
REMARK    5  A    between atoms: N_10  and  C_11
REMARK    6  A    between atoms: C_11  and  C_12
REMARK    7  A    between atoms: C_12  and  C_13
REMARK    8  A    between atoms: C_12  and  C_14
REMARK    9  A    between atoms: C_17  and  C_18
REMARK   10  A    between atoms: C_24  and  C_25
REMARK                            x       y       z     vdW  Elec       q    Type
REMARK                         _______ _______ _______ _____ _____    ______ ____
ROOT
ATOM      1  C   UNL     1      46.273   5.104  13.091  0.00  0.00    +0.000 A 
ATOM      2  C   UNL     1      46.831   6.392  13.023  0.00  0.00    +0.000 A 
ATOM      3  C   UNL     1      47.786   6.846  13.948  0.00  0.00    +0.000 A 
ATOM      4  C   UNL     1      48.106   5.997  15.007  0.00  0.00    +0.000 A 
ATOM      5  C   UNL     1      47.483   4.754  15.175  0.00  0.00    +0.000 A 
ATOM      6  C   UNL     1      46.586   4.305  14.195  0.00  0.00    +0.000 A 
ENDROOT
BRANCH   5   7
ATOM      7  C   UNL     1      47.751   3.947  16.420  0.00  0.00    +0.000 C 
ATOM      8  F   UNL     1      46.762   4.015  17.346  0.00  0.00    +0.000 F 
ATOM      9  F   UNL     1      47.912   2.623  16.141  0.00  0.00    +0.000 F 
ATOM     10  F   UNL     1      48.890   4.332  17.064  0.00  0.00    +0.000 F 
ENDBRANCH   5   7
BRANCH   1  11
ATOM     11  N   UNL     1      45.368   4.683  12.093  0.00  0.00    +0.000 N 
ATOM     12  H   UNL     1      45.445   5.218  11.229  0.00  0.00    +0.000 HD
BRANCH  11  17
ATOM     13  C   UNL     1      44.385   3.810   9.175  0.00  0.00    +0.000 C 
ATOM     14  C   UNL     1      44.234   3.037  10.473  0.00  0.00    +0.000 C 
ATOM     15  N   UNL     1      42.958   3.379  11.164  0.00  0.00    +0.000 NA
ATOM     16  C   UNL     1      43.584   2.987  12.445  0.00  0.00    +0.000 C 
ATOM     17  C   UNL     1      44.974   3.315  11.830  0.00  0.00    +0.000 C 
ATOM     18  H   UNL     1      42.165   2.812  10.872  0.00  0.00    +0.000 HD
ENDBRANCH  11  17
ENDBRANCH   1  11
BRANCH   3  19
ATOM     19  N   UNL     1      48.422   8.065  13.750  0.00  0.00    +0.000 N 
ATOM     20  H   UNL     1      49.296   8.028  13.235  0.00  0.00    +0.000 HD
BRANCH  19  21
ATOM     21  C   UNL     1      47.678   9.316  13.620  0.00  0.00    +0.000 C 
BRANCH  21  22
ATOM     22  C   UNL     1      47.464   9.720  12.142  0.00  0.00    +0.000 C 
ATOM     23  C   UNL     1      48.278  10.980  11.825  0.00  0.00    +0.000 C 
BRANCH  22  24
ATOM     24  C   UNL     1      46.007   9.882  11.758  0.00  0.00    +0.000 A 
ATOM     25  C   UNL     1      45.441  11.158  11.653  0.00  0.00    +0.000 A 
ATOM     26  C   UNL     1      44.104  11.306  11.295  0.00  0.00    +0.000 A 
ATOM     27  C   UNL     1      43.364  10.162  11.033  0.00  0.00    +0.000 A 
ATOM     28  N   UNL     1      43.870   8.898  11.116  0.00  0.00    +0.000 NA
ATOM     29  C   UNL     1      45.173   8.794  11.473  0.00  0.00    +0.000 A 
BRANCH  27  30
ATOM     30  C   UNL     1      41.926  10.300  10.630  0.00  0.00    +0.000 C 
ATOM     31  N   UNL     1      41.044   9.470  11.267  0.00  0.00    +0.000 N 
ATOM     32  O   UNL     1      41.552  11.100   9.781  0.00  0.00    +0.000 OA
ATOM     33  H   UNL     1      41.385   8.808  11.956  0.00  0.00    +0.000 HD
ATOM     34  H   UNL     1      40.065   9.508  11.027  0.00  0.00    +0.000 HD
ENDBRANCH  27  30
ENDBRANCH  22  24
ENDBRANCH  21  22
ENDBRANCH  19  21
ENDBRANCH   3  19
TORSDOF 8
ENDMDL
MODEL 9
REMARK VINA RESULT:    -6.133      3.452      7.551
REMARK INTER + INTRA:         -10.112
REMARK INTER:                  -8.716
REMARK INTRA:                  -1.396
REMARK UNBOUND:                -1.111
REMARK  Name = 
REMARK  10 active torsions:
REMARK  status: ('A' for Active; 'I' for Inactive)
REMARK    1  A    between atoms: C_1  and  C_2
REMARK    2  A    between atoms: C_5  and  N_6
REMARK    3  A    between atoms: N_6  and  C_7
REMARK    4  A    between atoms: C_9  and  N_10
REMARK    5  A    between atoms: N_10  and  C_11
REMARK    6  A    between atoms: C_11  and  C_12
REMARK    7  A    between atoms: C_12  and  C_13
REMARK    8  A    between atoms: C_12  and  C_14
REMARK    9  A    between atoms: C_17  and  C_18
REMARK   10  A    between atoms: C_24  and  C_25
REMARK                            x       y       z     vdW  Elec       q    Type
REMARK                         _______ _______ _______ _____ _____    ______ ____
ROOT
ATOM      1  C   UNL     1      46.411   6.134  12.490  0.00  0.00    +0.000 A 
ATOM      2  C   UNL     1      47.652   6.338  13.119  0.00  0.00    +0.000 A 
ATOM      3  C   UNL     1      48.094   7.613  13.510  0.00  0.00    +0.000 A 
ATOM      4  C   UNL     1      47.292   8.701  13.171  0.00  0.00    +0.000 A 
ATOM      5  C   UNL     1      46.108   8.550  12.439  0.00  0.00    +0.000 A 
ATOM      6  C   UNL     1      45.662   7.257  12.126  0.00  0.00    +0.000 A 
ENDROOT
BRANCH   5   7
ATOM      7  C   UNL     1      45.362   9.772  11.965  0.00  0.00    +0.000 C 
ATOM      8  F   UNL     1      44.905   9.679  10.691  0.00  0.00    +0.000 F 
ATOM      9  F   UNL     1      44.268  10.029  12.737  0.00  0.00    +0.000 F 
ATOM     10  F   UNL     1      46.121  10.903  12.008  0.00  0.00    +0.000 F 
ENDBRANCH   5   7
BRANCH   1  11
ATOM     11  N   UNL     1      45.994   4.822  12.182  0.00  0.00    +0.000 N 
ATOM     12  H   UNL     1      46.058   4.183  12.973  0.00  0.00    +0.000 HD
BRANCH  11  17
ATOM     13  C   UNL     1      42.983   4.861  13.266  0.00  0.00    +0.000 C 
ATOM     14  C   UNL     1      43.499   4.227  11.986  0.00  0.00    +0.000 C 
ATOM     15  N   UNL     1      43.913   2.812  12.209  0.00  0.00    +0.000 NA
ATOM     16  C   UNL     1      44.832   2.934  11.056  0.00  0.00    +0.000 C 
ATOM     17  C   UNL     1      44.895   4.467  11.309  0.00  0.00    +0.000 C 
ATOM     18  H   UNL     1      43.158   2.138  12.098  0.00  0.00    +0.000 HD
ENDBRANCH  11  17
ENDBRANCH   1  11
BRANCH   3  19
ATOM     19  N   UNL     1      49.252   7.745  14.266  0.00  0.00    +0.000 N 
ATOM     20  H   UNL     1      50.122   7.762  13.743  0.00  0.00    +0.000 HD
BRANCH  19  21
ATOM     21  C   UNL     1      49.273   8.479  15.530  0.00  0.00    +0.000 C 
BRANCH  21  22
ATOM     22  C   UNL     1      48.594   7.692  16.675  0.00  0.00    +0.000 C 
ATOM     23  C   UNL     1      48.670   8.499  17.977  0.00  0.00    +0.000 C 
BRANCH  22  24
ATOM     24  C   UNL     1      49.133   6.287  16.854  0.00  0.00    +0.000 A 
ATOM     25  C   UNL     1      48.258   5.194  16.896  0.00  0.00    +0.000 A 
ATOM     26  C   UNL     1      48.755   3.904  17.056  0.00  0.00    +0.000 A 
ATOM     27  C   UNL     1      50.129   3.736  17.154  0.00  0.00    +0.000 A 
ATOM     28  N   UNL     1      51.022   4.767  17.113  0.00  0.00    +0.000 NA
ATOM     29  C   UNL     1      50.501   6.008  16.963  0.00  0.00    +0.000 A 
BRANCH  27  30
ATOM     30  C   UNL     1      50.686   2.352  17.310  0.00  0.00    +0.000 C 
ATOM     31  N   UNL     1      51.703   2.216  18.214  0.00  0.00    +0.000 N 
ATOM     32  O   UNL     1      50.265   1.396  16.670  0.00  0.00    +0.000 OA
ATOM     33  H   UNL     1      52.040   3.028  18.719  0.00  0.00    +0.000 HD
ATOM     34  H   UNL     1      52.126   1.310  18.351  0.00  0.00    +0.000 HD
ENDBRANCH  27  30
ENDBRANCH  22  24
ENDBRANCH  21  22
ENDBRANCH  19  21
ENDBRANCH   3  19
TORSDOF 8
ENDMDL
