MODEL 1
REMARK VINA RESULT:    -7.179      0.000      0.000
REMARK INTER + INTRA:          -9.342
REMARK INTER:                  -9.067
REMARK INTRA:                  -0.275
REMARK UNBOUND:                -0.275
REMARK  Name = 
REMARK  5 active torsions:
REMARK  status: ('A' for Active; 'I' for Inactive)
REMARK    1  A    between atoms: N_1  and  C_2
REMARK    2  A    between atoms: C_2  and  C_3
REMARK    3  A    between atoms: C_3  and  C_4
REMARK    4  A    between atoms: C_8  and  C_9
REMARK    5  A    between atoms: C_9  and  N_10
REMARK                            x       y       z     vdW  Elec       q    Type
REMARK                         _______ _______ _______ _____ _____    ______ ____
ROOT
ATOM      1  C   UNL     1      45.988   3.399   8.036  0.00  0.00    +0.000 A 
ATOM      2  C   UNL     1      45.430   2.159   8.329  0.00  0.00    +0.000 A 
ATOM      3  C   UNL     1      44.534   2.062   9.387  0.00  0.00    +0.000 A 
ATOM      4  C   UNL     1      44.230   3.197  10.131  0.00  0.00    +0.000 A 
ATOM      5  C   UNL     1      44.858   4.399   9.815  0.00  0.00    +0.000 A 
ATOM      6  N   UNL     1      45.732   4.506   8.779  0.00  0.00    +0.000 NA
ENDROOT
BRANCH   1   7
ATOM      7  C   UNL     1      46.909   3.560   6.853  0.00  0.00    +0.000 C 
BRANCH   7   8
ATOM      8  C   UNL     1      47.928   2.424   6.760  0.00  0.00    +0.000 C 
BRANCH   8   9
ATOM      9  N   UNL     1      48.382   2.239   5.380  0.00  0.00    +0.000 NA
ATOM     10  H   UNL     1      49.362   2.520   5.309  0.00  0.00    +0.000 HD
ATOM     11  H   UNL     1      47.866   2.871   4.768  0.00  0.00    +0.000 HD
ENDBRANCH   8   9
ENDBRANCH   7   8
ENDBRANCH   1   7
BRANCH   5  12
ATOM     12  C   UNL     1      44.653   5.617  10.681  0.00  0.00    +0.000 C 
BRANCH  12  13
ATOM     13  N   UNL     1      45.349   5.544  11.960  0.00  0.00    +0.000 N 
ATOM     14  C   UNL     1      45.047   4.638  12.951  0.00  0.00    +0.000 A 
ATOM     15  C   UNL     1      46.036   4.704  13.907  0.00  0.00    +0.000 A 
ATOM     16  C   UNL     1      46.982   5.677  13.486  0.00  0.00    +0.000 A 
ATOM     17  C   UNL     1      48.198   6.145  14.022  0.00  0.00    +0.000 A 
ATOM     18  C   UNL     1      48.920   7.129  13.338  0.00  0.00    +0.000 A 
ATOM     19  C   UNL     1      48.434   7.653  12.144  0.00  0.00    +0.000 A 
ATOM     20 CL   UNL     1      49.345   8.862  11.318  0.00  0.00    +0.000 Cl
ATOM     21  C   UNL     1      47.228   7.212  11.591  0.00  0.00    +0.000 A 
ATOM     22  C   UNL     1      46.521   6.207  12.275  0.00  0.00    +0.000 A 
ENDBRANCH  12  13
ENDBRANCH   5  12
TORSDOF 5
ENDMDL
MODEL 2
REMARK VINA RESULT:    -7.047      2.792      5.949
REMARK INTER + INTRA:          -9.176
REMARK INTER:                  -8.536
REMARK INTRA:                  -0.639
REMARK UNBOUND:                -0.275
REMARK  Name = 
REMARK  5 active torsions:
REMARK  status: ('A' for Active; 'I' for Inactive)
REMARK    1  A    between atoms: N_1  and  C_2
REMARK    2  A    between atoms: C_2  and  C_3
REMARK    3  A    between atoms: C_3  and  C_4
REMARK    4  A    between atoms: C_8  and  C_9
REMARK    5  A    between atoms: C_9  and  N_10
REMARK                            x       y       z     vdW  Elec       q    Type
REMARK                         _______ _______ _______ _____ _____    ______ ____
ROOT
ATOM      1  C   UNL     1      46.981   6.747  13.358  0.00  0.00    +0.000 A 
ATOM      2  C   UNL     1      47.324   8.091  13.252  0.00  0.00    +0.000 A 
ATOM      3  C   UNL     1      46.479   8.944  12.551  0.00  0.00    +0.000 A 
ATOM      4  C   UNL     1      45.326   8.433  11.965  0.00  0.00    +0.000 A 
ATOM      5  C   UNL     1      45.064   7.069  12.069  0.00  0.00    +0.000 A 
ATOM      6  N   UNL     1      45.880   6.228  12.756  0.00  0.00    +0.000 NA
ENDROOT
BRANCH   1   7
ATOM      7  C   UNL     1      47.834   5.804  14.169  0.00  0.00    +0.000 C 
BRANCH   7   8
ATOM      8  C   UNL     1      47.024   4.631  14.723  0.00  0.00    +0.000 C 
BRANCH   8   9
ATOM      9  N   UNL     1      47.159   3.452  13.865  0.00  0.00    +0.000 NA
ATOM     10  H   UNL     1      46.687   3.627  12.976  0.00  0.00    +0.000 HD
ATOM     11  H   UNL     1      46.667   2.666  14.291  0.00  0.00    +0.000 HD
ENDBRANCH   8   9
ENDBRANCH   7   8
ENDBRANCH   1   7
BRANCH   5  12
ATOM     12  C   UNL     1      43.894   6.460  11.336  0.00  0.00    +0.000 C 
BRANCH  12  13
ATOM     13  N   UNL     1      43.942   5.004  11.276  0.00  0.00    +0.000 N 
ATOM     14  C   UNL     1      43.239   4.174  12.119  0.00  0.00    +0.000 A 
ATOM     15  C   UNL     1      43.342   2.889  11.638  0.00  0.00    +0.000 A 
ATOM     16  C   UNL     1      44.127   2.930  10.454  0.00  0.00    +0.000 A 
ATOM     17  C   UNL     1      44.535   1.953   9.525  0.00  0.00    +0.000 A 
ATOM     18  C   UNL     1      45.315   2.329   8.426  0.00  0.00    +0.000 A 
ATOM     19  C   UNL     1      45.699   3.656   8.260  0.00  0.00    +0.000 A 
ATOM     20 CL   UNL     1      46.657   4.095   6.896  0.00  0.00    +0.000 Cl
ATOM     21  C   UNL     1      45.314   4.646   9.170  0.00  0.00    +0.000 A 
ATOM     22  C   UNL     1      44.512   4.261  10.258  0.00  0.00    +0.000 A 
ENDBRANCH  12  13
ENDBRANCH   5  12
TORSDOF 5
ENDMDL
MODEL 3
REMARK VINA RESULT:    -6.351      4.082      7.048
REMARK INTER + INTRA:          -8.297
REMARK INTER:                  -7.563
REMARK INTRA:                  -0.734
REMARK UNBOUND:                -0.275
REMARK  Name = 
REMARK  5 active torsions:
REMARK  status: ('A' for Active; 'I' for Inactive)
REMARK    1  A    between atoms: N_1  and  C_2
REMARK    2  A    between atoms: C_2  and  C_3
REMARK    3  A    between atoms: C_3  and  C_4
REMARK    4  A    between atoms: C_8  and  C_9
REMARK    5  A    between atoms: C_9  and  N_10
REMARK                            x       y       z     vdW  Elec       q    Type
REMARK                         _______ _______ _______ _____ _____    ______ ____
ROOT
ATOM      1  C   UNL     1      47.939   4.713  16.367  0.00  0.00    +0.000 A 
ATOM      2  C   UNL     1      48.588   5.736  17.052  0.00  0.00    +0.000 A 
ATOM      3  C   UNL     1      48.903   6.904  16.366  0.00  0.00    +0.000 A 
ATOM      4  C   UNL     1      48.577   7.014  15.019  0.00  0.00    +0.000 A 
ATOM      5  C   UNL     1      47.969   5.935  14.381  0.00  0.00    +0.000 A 
ATOM      6  N   UNL     1      47.652   4.791  15.043  0.00  0.00    +0.000 NA
ENDROOT
BRANCH   1   7
ATOM      7  C   UNL     1      47.517   3.460  17.092  0.00  0.00    +0.000 C 
BRANCH   7   8
ATOM      8  C   UNL     1      48.673   2.472  17.252  0.00  0.00    +0.000 C 
BRANCH   8   9
ATOM      9  N   UNL     1      49.150   2.010  15.946  0.00  0.00    +0.000 NA
ATOM     10  H   UNL     1      49.725   1.176  16.074  0.00  0.00    +0.000 HD
ATOM     11  H   UNL     1      49.768   2.715  15.544  0.00  0.00    +0.000 HD
ENDBRANCH   8   9
ENDBRANCH   7   8
ENDBRANCH   1   7
BRANCH   5  12
ATOM     12  C   UNL     1      47.722   5.971  12.893  0.00  0.00    +0.000 C 
BRANCH  12  13
ATOM     13  N   UNL     1      46.410   6.498  12.536  0.00  0.00    +0.000 N 
ATOM     14  C   UNL     1      46.171   7.811  12.203  0.00  0.00    +0.000 A 
ATOM     15  C   UNL     1      44.889   7.902  11.712  0.00  0.00    +0.000 A 
ATOM     16  C   UNL     1      44.322   6.599  11.734  0.00  0.00    +0.000 A 
ATOM     17  C   UNL     1      43.080   6.073  11.330  0.00  0.00    +0.000 A 
ATOM     18  C   UNL     1      42.828   4.705  11.478  0.00  0.00    +0.000 A 
ATOM     19  C   UNL     1      43.793   3.871  12.034  0.00  0.00    +0.000 A 
ATOM     20 CL   UNL     1      43.461   2.188  12.201  0.00  0.00    +0.000 Cl
ATOM     21  C   UNL     1      45.033   4.366  12.449  0.00  0.00    +0.000 A 
ATOM     22  C   UNL     1      45.284   5.738  12.276  0.00  0.00    +0.000 A 
ENDBRANCH  12  13
ENDBRANCH   5  12
TORSDOF 5
ENDMDL
MODEL 4
REMARK VINA RESULT:    -6.169      1.996      3.390
REMARK INTER + INTRA:          -8.067
REMARK INTER:                  -7.536
REMARK INTRA:                  -0.531
REMARK UNBOUND:                -0.275
REMARK  Name = 
REMARK  5 active torsions:
REMARK  status: ('A' for Active; 'I' for Inactive)
REMARK    1  A    between atoms: N_1  and  C_2
REMARK    2  A    between atoms: C_2  and  C_3
REMARK    3  A    between atoms: C_3  and  C_4
REMARK    4  A    between atoms: C_8  and  C_9
REMARK    5  A    between atoms: C_9  and  N_10
REMARK                            x       y       z     vdW  Elec       q    Type
REMARK                         _______ _______ _______ _____ _____    ______ ____
ROOT
ATOM      1  C   UNL     1      44.550   3.471  10.849  0.00  0.00    +0.000 A 
ATOM      2  C   UNL     1      43.417   3.202  11.610  0.00  0.00    +0.000 A 
ATOM      3  C   UNL     1      43.276   3.828  12.843  0.00  0.00    +0.000 A 
ATOM      4  C   UNL     1      44.271   4.690  13.289  0.00  0.00    +0.000 A 
ATOM      5  C   UNL     1      45.402   4.881  12.499  0.00  0.00    +0.000 A 
ATOM      6  N   UNL     1      45.548   4.279  11.290  0.00  0.00    +0.000 NA
ENDROOT
BRANCH   1   7
ATOM      7  C   UNL     1      44.707   2.868   9.475  0.00  0.00    +0.000 C 
BRANCH   7   8
ATOM      8  C   UNL     1      44.535   3.909   8.369  0.00  0.00    +0.000 C 
BRANCH   8   9
ATOM      9  N   UNL     1      45.594   4.918   8.431  0.00  0.00    +0.000 NA
ATOM     10  H   UNL     1      46.425   4.563   7.955  0.00  0.00    +0.000 HD
ATOM     11  H   UNL     1      45.869   5.060   9.402  0.00  0.00    +0.000 HD
ENDBRANCH   8   9
ENDBRANCH   7   8
ENDBRANCH   1   7
BRANCH   5  12
ATOM     12  C   UNL     1      46.558   5.705  13.011  0.00  0.00    +0.000 C 
BRANCH  12  13
ATOM     13  N   UNL     1      46.506   7.101  12.591  0.00  0.00    +0.000 N 
ATOM     14  C   UNL     1      45.404   7.911  12.744  0.00  0.00    +0.000 A 
ATOM     15  C   UNL     1      45.779   9.203  12.450  0.00  0.00    +0.000 A 
ATOM     16  C   UNL     1      47.160   9.189  12.115  0.00  0.00    +0.000 A 
ATOM     17  C   UNL     1      48.085  10.192  11.767  0.00  0.00    +0.000 A 
ATOM     18  C   UNL     1      49.413   9.843  11.499  0.00  0.00    +0.000 A 
ATOM     19  C   UNL     1      49.815   8.512  11.561  0.00  0.00    +0.000 A 
ATOM     20 CL   UNL     1      51.458   8.108  11.232  0.00  0.00    +0.000 Cl
ATOM     21  C   UNL     1      48.917   7.494  11.898  0.00  0.00    +0.000 A 
ATOM     22  C   UNL     1      47.590   7.858  12.186  0.00  0.00    +0.000 A 
ENDBRANCH  12  13
ENDBRANCH   5  12
TORSDOF 5
ENDMDL
MODEL 5
REMARK VINA RESULT:    -5.883      2.310      3.760
REMARK INTER + INTRA:          -7.706
REMARK INTER:                  -7.235
REMARK INTRA:                  -0.471
REMARK UNBOUND:                -0.275
REMARK  Name = 
REMARK  5 active torsions:
REMARK  status: ('A' for Active; 'I' for Inactive)
REMARK    1  A    between atoms: N_1  and  C_2
REMARK    2  A    between atoms: C_2  and  C_3
REMARK    3  A    between atoms: C_3  and  C_4
REMARK    4  A    between atoms: C_8  and  C_9
REMARK    5  A    between atoms: C_9  and  N_10
REMARK                            x       y       z     vdW  Elec       q    Type
REMARK                         _______ _______ _______ _____ _____    ______ ____
ROOT
ATOM      1  C   UNL     1      44.292   3.815  10.857  0.00  0.00    +0.000 A 
ATOM      2  C   UNL     1      43.038   4.361  11.110  0.00  0.00    +0.000 A 
ATOM      3  C   UNL     1      42.891   5.229  12.186  0.00  0.00    +0.000 A 
ATOM      4  C   UNL     1      43.991   5.515  12.987  0.00  0.00    +0.000 A 
ATOM      5  C   UNL     1      45.209   4.899  12.707  0.00  0.00    +0.000 A 
ATOM      6  N   UNL     1      45.365   4.054  11.655  0.00  0.00    +0.000 NA
ENDROOT
BRANCH   1   7
ATOM      7  C   UNL     1      44.509   2.926   9.658  0.00  0.00    +0.000 C 
BRANCH   7   8
ATOM      8  C   UNL     1      44.665   3.731   8.368  0.00  0.00    +0.000 C 
BRANCH   8   9
ATOM      9  N   UNL     1      45.507   4.910   8.585  0.00  0.00    +0.000 NA
ATOM     10  H   UNL     1      45.548   5.114   9.584  0.00  0.00    +0.000 HD
ATOM     11  H   UNL     1      45.068   5.722   8.152  0.00  0.00    +0.000 HD
ENDBRANCH   8   9
ENDBRANCH   7   8
ENDBRANCH   1   7
BRANCH   5  12
ATOM     12  C   UNL     1      46.387   5.085  13.632  0.00  0.00    +0.000 C 
BRANCH  12  13
ATOM     13  N   UNL     1      47.337   6.088  13.165  0.00  0.00    +0.000 N 
ATOM     14  C   UNL     1      47.251   6.724  11.948  0.00  0.00    +0.000 A 
ATOM     15  C   UNL     1      48.167   7.752  11.937  0.00  0.00    +0.000 A 
ATOM     16  C   UNL     1      48.833   7.754  13.192  0.00  0.00    +0.000 A 
ATOM     17  C   UNL     1      49.823   8.576  13.765  0.00  0.00    +0.000 A 
ATOM     18  C   UNL     1      50.270   8.314  15.065  0.00  0.00    +0.000 A 
ATOM     19  C   UNL     1      49.751   7.239  15.781  0.00  0.00    +0.000 A 
ATOM     20 CL   UNL     1      50.315   6.940  17.383  0.00  0.00    +0.000 Cl
ATOM     21  C   UNL     1      48.772   6.404  15.236  0.00  0.00    +0.000 A 
ATOM     22  C   UNL     1      48.314   6.689  13.938  0.00  0.00    +0.000 A 
ENDBRANCH  12  13
ENDBRANCH   5  12
TORSDOF 5
ENDMDL
MODEL 6
REMARK VINA RESULT:    -5.734      4.358      7.793
REMARK INTER + INTRA:          -7.517
REMARK INTER:                  -6.999
REMARK INTRA:                  -0.518
REMARK UNBOUND:                -0.275
REMARK  Name = 
REMARK  5 active torsions:
REMARK  status: ('A' for Active; 'I' for Inactive)
REMARK    1  A    between atoms: N_1  and  C_2
REMARK    2  A    between atoms: C_2  and  C_3
REMARK    3  A    between atoms: C_3  and  C_4
REMARK    4  A    between atoms: C_8  and  C_9
REMARK    5  A    between atoms: C_9  and  N_10
REMARK                            x       y       z     vdW  Elec       q    Type
REMARK                         _______ _______ _______ _____ _____    ______ ____
ROOT
ATOM      1  C   UNL     1      49.806   4.293  18.086  0.00  0.00    +0.000 A 
ATOM      2  C   UNL     1      49.069   5.000  19.031  0.00  0.00    +0.000 A 
ATOM      3  C   UNL     1      47.721   5.236  18.787  0.00  0.00    +0.000 A 
ATOM      4  C   UNL     1      47.149   4.776  17.606  0.00  0.00    +0.000 A 
ATOM      5  C   UNL     1      47.953   4.115  16.680  0.00  0.00    +0.000 A 
ATOM      6  N   UNL     1      49.271   3.874  16.911  0.00  0.00    +0.000 NA
ENDROOT
BRANCH   1   7
ATOM      7  C   UNL     1      51.252   3.954  18.345  0.00  0.00    +0.000 C 
BRANCH   7   8
ATOM      8  C   UNL     1      51.721   2.761  17.511  0.00  0.00    +0.000 C 
BRANCH   8   9
ATOM      9  N   UNL     1      50.946   1.561  17.835  0.00  0.00    +0.000 NA
ATOM     10  H   UNL     1      50.498   1.211  16.986  0.00  0.00    +0.000 HD
ATOM     11  H   UNL     1      50.187   1.809  18.469  0.00  0.00    +0.000 HD
ENDBRANCH   8   9
ENDBRANCH   7   8
ENDBRANCH   1   7
BRANCH   5  12
ATOM     12  C   UNL     1      47.398   3.719  15.334  0.00  0.00    +0.000 C 
BRANCH  12  13
ATOM     13  N   UNL     1      47.195   4.849  14.435  0.00  0.00    +0.000 N 
ATOM     14  C   UNL     1      47.917   6.019  14.493  0.00  0.00    +0.000 A 
ATOM     15  C   UNL     1      47.620   6.761  13.372  0.00  0.00    +0.000 A 
ATOM     16  C   UNL     1      46.691   6.018  12.594  0.00  0.00    +0.000 A 
ATOM     17  C   UNL     1      46.065   6.244  11.353  0.00  0.00    +0.000 A 
ATOM     18  C   UNL     1      45.185   5.285  10.839  0.00  0.00    +0.000 A 
ATOM     19  C   UNL     1      44.919   4.122  11.556  0.00  0.00    +0.000 A 
ATOM     20 CL   UNL     1      43.836   2.953  10.899  0.00  0.00    +0.000 Cl
ATOM     21  C   UNL     1      45.522   3.874  12.793  0.00  0.00    +0.000 A 
ATOM     22  C   UNL     1      46.420   4.834  13.290  0.00  0.00    +0.000 A 
ENDBRANCH  12  13
ENDBRANCH   5  12
TORSDOF 5
ENDMDL
MODEL 7
REMARK VINA RESULT:    -5.642      4.324      6.802
REMARK INTER + INTRA:          -7.401
REMARK INTER:                  -6.884
REMARK INTRA:                  -0.517
REMARK UNBOUND:                -0.275
REMARK  Name = 
REMARK  5 active torsions:
REMARK  status: ('A' for Active; 'I' for Inactive)
REMARK    1  A    between atoms: N_1  and  C_2
REMARK    2  A    between atoms: C_2  and  C_3
REMARK    3  A    between atoms: C_3  and  C_4
REMARK    4  A    between atoms: C_8  and  C_9
REMARK    5  A    between atoms: C_9  and  N_10
REMARK                            x       y       z     vdW  Elec       q    Type
REMARK                         _______ _______ _______ _____ _____    ______ ____
ROOT
ATOM      1  C   UNL     1      46.025   4.944  13.277  0.00  0.00    +0.000 A 
ATOM      2  C   UNL     1      46.906   5.956  12.909  0.00  0.00    +0.000 A 
ATOM      3  C   UNL     1      47.941   6.290  13.775  0.00  0.00    +0.000 A 
ATOM      4  C   UNL     1      48.061   5.617  14.987  0.00  0.00    +0.000 A 
ATOM      5  C   UNL     1      47.118   4.645  15.315  0.00  0.00    +0.000 A 
ATOM      6  N   UNL     1      46.106   4.308  14.473  0.00  0.00    +0.000 NA
ENDROOT
BRANCH   1   7
ATOM      7  C   UNL     1      44.932   4.505  12.334  0.00  0.00    +0.000 C 
BRANCH   7   8
ATOM      8  C   UNL     1      43.614   4.246  13.065  0.00  0.00    +0.000 C 
BRANCH   8   9
ATOM      9  N   UNL     1      42.867   5.492  13.254  0.00  0.00    +0.000 NA
ATOM     10  H   UNL     1      41.883   5.329  13.036  0.00  0.00    +0.000 HD
ATOM     11  H   UNL     1      43.191   6.185  12.579  0.00  0.00    +0.000 HD
ENDBRANCH   8   9
ENDBRANCH   7   8
ENDBRANCH   1   7
BRANCH   5  12
ATOM     12  C   UNL     1      47.142   3.989  16.674  0.00  0.00    +0.000 C 
BRANCH  12  13
ATOM     13  N   UNL     1      48.423   3.372  16.998  0.00  0.00    +0.000 N 
ATOM     14  C   UNL     1      48.852   2.171  16.480  0.00  0.00    +0.000 A 
ATOM     15  C   UNL     1      50.176   2.009  16.819  0.00  0.00    +0.000 A 
ATOM     16  C   UNL     1      50.578   3.151  17.562  0.00  0.00    +0.000 A 
ATOM     17  C   UNL     1      51.799   3.559  18.134  0.00  0.00    +0.000 A 
ATOM     18  C   UNL     1      51.871   4.781  18.810  0.00  0.00    +0.000 A 
ATOM     19  C   UNL     1      50.740   5.583  18.931  0.00  0.00    +0.000 A 
ATOM     20 CL   UNL     1      50.855   7.088  19.765  0.00  0.00    +0.000 Cl
ATOM     21  C   UNL     1      49.513   5.202  18.379  0.00  0.00    +0.000 A 
ATOM     22  C   UNL     1      49.457   3.982  17.683  0.00  0.00    +0.000 A 
ENDBRANCH  12  13
ENDBRANCH   5  12
TORSDOF 5
ENDMDL
MODEL 8
REMARK VINA RESULT:    -5.563      2.178      3.590
REMARK INTER + INTRA:          -7.301
REMARK INTER:                  -6.968
REMARK INTRA:                  -0.333
REMARK UNBOUND:                -0.275
REMARK  Name = 
REMARK  5 active torsions:
REMARK  status: ('A' for Active; 'I' for Inactive)
REMARK    1  A    between atoms: N_1  and  C_2
REMARK    2  A    between atoms: C_2  and  C_3
REMARK    3  A    between atoms: C_3  and  C_4
REMARK    4  A    between atoms: C_8  and  C_9
REMARK    5  A    between atoms: C_9  and  N_10
REMARK                            x       y       z     vdW  Elec       q    Type
REMARK                         _______ _______ _______ _____ _____    ______ ____
ROOT
ATOM      1  C   UNL     1      44.749   4.737  10.368  0.00  0.00    +0.000 A 
ATOM      2  C   UNL     1      43.380   4.698  10.607  0.00  0.00    +0.000 A 
ATOM      3  C   UNL     1      42.908   5.079  11.858  0.00  0.00    +0.000 A 
ATOM      4  C   UNL     1      43.813   5.474  12.837  0.00  0.00    +0.000 A 
ATOM      5  C   UNL     1      45.175   5.448  12.548  0.00  0.00    +0.000 A 
ATOM      6  N   UNL     1      45.646   5.082  11.326  0.00  0.00    +0.000 NA
ENDROOT
BRANCH   1   7
ATOM      7  C   UNL     1      45.294   4.400   9.002  0.00  0.00    +0.000 C 
BRANCH   7   8
ATOM      8  C   UNL     1      45.285   2.894   8.737  0.00  0.00    +0.000 C 
BRANCH   8   9
ATOM      9  N   UNL     1      46.234   2.543   7.678  0.00  0.00    +0.000 NA
ATOM     10  H   UNL     1      46.388   3.358   7.082  0.00  0.00    +0.000 HD
ATOM     11  H   UNL     1      45.820   1.832   7.076  0.00  0.00    +0.000 HD
ENDBRANCH   8   9
ENDBRANCH   7   8
ENDBRANCH   1   7
BRANCH   5  12
ATOM     12  C   UNL     1      46.189   5.744  13.625  0.00  0.00    +0.000 C 
BRANCH  12  13
ATOM     13  N   UNL     1      47.147   6.779  13.252  0.00  0.00    +0.000 N 
ATOM     14  C   UNL     1      48.502   6.572  13.141  0.00  0.00    +0.000 A 
ATOM     15  C   UNL     1      49.060   7.688  12.561  0.00  0.00    +0.000 A 
ATOM     16  C   UNL     1      48.011   8.611  12.297  0.00  0.00    +0.000 A 
ATOM     17  C   UNL     1      47.965   9.883  11.696  0.00  0.00    +0.000 A 
ATOM     18  C   UNL     1      46.738  10.544  11.572  0.00  0.00    +0.000 A 
ATOM     19  C   UNL     1      45.573   9.955  12.054  0.00  0.00    +0.000 A 
ATOM     20 CL   UNL     1      44.072  10.787  11.885  0.00  0.00    +0.000 Cl
ATOM     21  C   UNL     1      45.589   8.695  12.660  0.00  0.00    +0.000 A 
ATOM     22  C   UNL     1      46.824   8.031  12.760  0.00  0.00    +0.000 A 
ENDBRANCH  12  13
ENDBRANCH   5  12
TORSDOF 5
ENDMDL
MODEL 9
REMARK VINA RESULT:    -5.441      3.704      5.734
REMARK INTER + INTRA:          -7.147
REMARK INTER:                  -6.672
REMARK INTRA:                  -0.474
REMARK UNBOUND:                -0.275
REMARK  Name = 
REMARK  5 active torsions:
REMARK  status: ('A' for Active; 'I' for Inactive)
REMARK    1  A    between atoms: N_1  and  C_2
REMARK    2  A    between atoms: C_2  and  C_3
REMARK    3  A    between atoms: C_3  and  C_4
REMARK    4  A    between atoms: C_8  and  C_9
REMARK    5  A    between atoms: C_9  and  N_10
REMARK                            x       y       z     vdW  Elec       q    Type
REMARK                         _______ _______ _______ _____ _____    ______ ____
ROOT
ATOM      1  C   UNL     1      45.578   4.945  12.717  0.00  0.00    +0.000 A 
ATOM      2  C   UNL     1      44.664   5.987  12.598  0.00  0.00    +0.000 A 
ATOM      3  C   UNL     1      45.116   7.294  12.741  0.00  0.00    +0.000 A 
ATOM      4  C   UNL     1      46.460   7.525  13.012  0.00  0.00    +0.000 A 
ATOM      5  C   UNL     1      47.315   6.435  13.165  0.00  0.00    +0.000 A 
ATOM      6  N   UNL     1      46.884   5.155  13.022  0.00  0.00    +0.000 NA
ENDROOT
BRANCH   1   7
ATOM      7  C   UNL     1      45.140   3.519  12.498  0.00  0.00    +0.000 C 
BRANCH   7   8
ATOM      8  C   UNL     1      44.355   3.352  11.197  0.00  0.00    +0.000 C 
BRANCH   8   9
ATOM      9  N   UNL     1      42.999   2.869  11.462  0.00  0.00    +0.000 NA
ATOM     10  H   UNL     1      42.639   2.403  10.628  0.00  0.00    +0.000 HD
ATOM     11  H   UNL     1      42.382   3.665  11.624  0.00  0.00    +0.000 HD
ENDBRANCH   8   9
ENDBRANCH   7   8
ENDBRANCH   1   7
BRANCH   5  12
ATOM     12  C   UNL     1      48.748   6.645  13.589  0.00  0.00    +0.000 C 
BRANCH  12  13
ATOM     13  N   UNL     1      48.887   7.062  14.979  0.00  0.00    +0.000 N 
ATOM     14  C   UNL     1      49.201   8.343  15.372  0.00  0.00    +0.000 A 
ATOM     15  C   UNL     1      49.027   8.428  16.735  0.00  0.00    +0.000 A 
ATOM     16  C   UNL     1      48.582   7.159  17.195  0.00  0.00    +0.000 A 
ATOM     17  C   UNL     1      48.213   6.659  18.459  0.00  0.00    +0.000 A 
ATOM     18  C   UNL     1      47.796   5.329  18.581  0.00  0.00    +0.000 A 
ATOM     19  C   UNL     1      47.761   4.500  17.463  0.00  0.00    +0.000 A 
ATOM     20 CL   UNL     1      47.240   2.867  17.637  0.00  0.00    +0.000 Cl
ATOM     21  C   UNL     1      48.128   4.968  16.197  0.00  0.00    +0.000 A 
ATOM     22  C   UNL     1      48.523   6.311  16.082  0.00  0.00    +0.000 A 
ENDBRANCH  12  13
ENDBRANCH   5  12
TORSDOF 5
ENDMDL
