MODEL 1
REMARK VINA RESULT:    -8.431      0.000      0.000
REMARK INTER + INTRA:         -11.500
REMARK INTER:                 -10.896
REMARK INTRA:                  -0.604
REMARK UNBOUND:                -0.604
REMARK  Name = 
REMARK  6 active torsions:
REMARK  status: ('A' for Active; 'I' for Inactive)
REMARK    1  A    between atoms: C_1  and  C_2
REMARK    2  A    between atoms: C_2  and  C_3
REMARK    3  A    between atoms: C_7  and  C_8
REMARK    4  A    between atoms: C_8  and  C_9
REMARK    5  A    between atoms: C_9  and  N_10
REMARK    6  A    between atoms: C_14  and  C_15
REMARK                            x       y       z     vdW  Elec       q    Type
REMARK                         _______ _______ _______ _____ _____    ______ ____
ROOT
ATOM      1  C   UNL     1      43.037   4.458  11.020  0.00  0.00    +0.000 C 
ENDROOT
BRANCH   1   2
ATOM      2  N   UNL     1      43.831   4.989   9.904  0.00  0.00    +0.000 N 
ATOM      3  C   UNL     1      44.624   4.000   9.290  0.00  0.00    +0.000 A 
ATOM      4  C   UNL     1      45.435   4.347   8.213  0.00  0.00    +0.000 A 
ATOM      5  C   UNL     1      46.212   3.364   7.589  0.00  0.00    +0.000 A 
ATOM      6  C   UNL     1      46.166   2.048   8.049  0.00  0.00    +0.000 A 
ATOM      7  C   UNL     1      45.325   1.789   9.116  0.00  0.00    +0.000 A 
ATOM      8  N   UNL     1      44.564   2.726   9.731  0.00  0.00    +0.000 NA
ATOM      9  H   UNL     1      44.435   5.757  10.187  0.00  0.00    +0.000 HD
BRANCH   6  10
ATOM     10  C   UNL     1      46.993   1.006   7.394  0.00  0.00    +0.000 C 
ATOM     11  N   UNL     1      46.729  -0.313   7.656  0.00  0.00    +0.000 N 
ATOM     12  O   UNL     1      47.902   1.307   6.635  0.00  0.00    +0.000 OA
ATOM     13  H   UNL     1      46.009  -0.669   8.264  0.00  0.00    +0.000 HD
ATOM     14  H   UNL     1      47.318  -0.991   7.190  0.00  0.00    +0.000 HD
ENDBRANCH   6  10
ENDBRANCH   1   2
BRANCH   1  15
ATOM     15  C   UNL     1      43.238   5.280  12.299  0.00  0.00    +0.000 C 
BRANCH  15  20
ATOM     16  C   UNL     1      46.757   6.660  12.957  0.00  0.00    +0.000 A 
ATOM     17  C   UNL     1      47.353   5.524  13.540  0.00  0.00    +0.000 A 
ATOM     18  C   UNL     1      46.652   4.326  13.690  0.00  0.00    +0.000 A 
ATOM     19  C   UNL     1      45.329   4.234  13.268  0.00  0.00    +0.000 A 
ATOM     20  C   UNL     1      44.706   5.334  12.671  0.00  0.00    +0.000 A 
ATOM     21  C   UNL     1      45.432   6.530  12.505  0.00  0.00    +0.000 A 
BRANCH  16  23
ATOM     22  C   UNL     1      46.510   9.139  12.803  0.00  0.00    +0.000 C 
ATOM     23  C   UNL     1      47.529   7.992  12.927  0.00  0.00    +0.000 C 
ATOM     24  C   UNL     1      48.423   8.149  14.162  0.00  0.00    +0.000 C 
ATOM     25  C   UNL     1      49.791   7.651  13.718  0.00  0.00    +0.000 C 
ATOM     26  O   UNL     1      49.769   7.500  12.296  0.00  0.00    +0.000 OA
ATOM     27  C   UNL     1      48.583   8.146  11.819  0.00  0.00    +0.000 C 
ENDBRANCH  16  23
ENDBRANCH  15  20
ENDBRANCH   1  15
TORSDOF 5
ENDMDL
MODEL 2
REMARK VINA RESULT:    -7.352      1.247      2.005
REMARK INTER + INTRA:         -10.105
REMARK INTER:                  -9.792
REMARK INTRA:                  -0.313
REMARK UNBOUND:                -0.604
REMARK  Name = 
REMARK  6 active torsions:
REMARK  status: ('A' for Active; 'I' for Inactive)
REMARK    1  A    between atoms: C_1  and  C_2
REMARK    2  A    between atoms: C_2  and  C_3
REMARK    3  A    between atoms: C_7  and  C_8
REMARK    4  A    between atoms: C_8  and  C_9
REMARK    5  A    between atoms: C_9  and  N_10
REMARK    6  A    between atoms: C_14  and  C_15
REMARK                            x       y       z     vdW  Elec       q    Type
REMARK                         _______ _______ _______ _____ _____    ______ ____
ROOT
ATOM      1  C   UNL     1      43.481   4.772  11.032  0.00  0.00    +0.000 C 
ENDROOT
BRANCH   1   2
ATOM      2  N   UNL     1      44.225   5.245   9.857  0.00  0.00    +0.000 N 
ATOM      3  C   UNL     1      44.947   4.212   9.225  0.00  0.00    +0.000 A 
ATOM      4  C   UNL     1      45.704   4.502   8.094  0.00  0.00    +0.000 A 
ATOM      5  C   UNL     1      46.409   3.476   7.454  0.00  0.00    +0.000 A 
ATOM      6  C   UNL     1      46.345   2.175   7.953  0.00  0.00    +0.000 A 
ATOM      7  C   UNL     1      45.561   1.975   9.073  0.00  0.00    +0.000 A 
ATOM      8  N   UNL     1      44.869   2.953   9.705  0.00  0.00    +0.000 NA
ATOM      9  H   UNL     1      44.870   5.997  10.083  0.00  0.00    +0.000 HD
BRANCH   6  10
ATOM     10  C   UNL     1      47.097   1.088   7.280  0.00  0.00    +0.000 C 
ATOM     11  N   UNL     1      48.025   1.414   6.327  0.00  0.00    +0.000 N 
ATOM     12  O   UNL     1      46.895  -0.085   7.560  0.00  0.00    +0.000 OA
ATOM     13  H   UNL     1      48.267   2.342   6.021  0.00  0.00    +0.000 HD
ATOM     14  H   UNL     1      48.514   0.641   5.892  0.00  0.00    +0.000 HD
ENDBRANCH   6  10
ENDBRANCH   1   2
BRANCH   1  15
ATOM     15  C   UNL     1      44.209   5.112  12.337  0.00  0.00    +0.000 C 
BRANCH  15  20
ATOM     16  C   UNL     1      46.826   7.913  12.480  0.00  0.00    +0.000 A 
ATOM     17  C   UNL     1      46.078   8.967  11.921  0.00  0.00    +0.000 A 
ATOM     18  C   UNL     1      44.747   8.795  11.535  0.00  0.00    +0.000 A 
ATOM     19  C   UNL     1      44.130   7.558  11.690  0.00  0.00    +0.000 A 
ATOM     20  C   UNL     1      44.834   6.490  12.254  0.00  0.00    +0.000 A 
ATOM     21  C   UNL     1      46.169   6.683  12.660  0.00  0.00    +0.000 A 
BRANCH  16  23
ATOM     22  C   UNL     1      48.940   8.918  11.612  0.00  0.00    +0.000 C 
ATOM     23  C   UNL     1      48.324   8.116  12.773  0.00  0.00    +0.000 C 
ATOM     24  C   UNL     1      48.542   8.805  14.125  0.00  0.00    +0.000 C 
ATOM     25  C   UNL     1      48.775   7.667  15.109  0.00  0.00    +0.000 C 
ATOM     26  O   UNL     1      48.968   6.464  14.359  0.00  0.00    +0.000 OA
ATOM     27  C   UNL     1      49.157   6.843  12.990  0.00  0.00    +0.000 C 
ENDBRANCH  16  23
ENDBRANCH  15  20
ENDBRANCH   1  15
TORSDOF 5
ENDMDL
MODEL 3
REMARK VINA RESULT:    -6.856      4.081      7.317
REMARK INTER + INTRA:          -9.464
REMARK INTER:                  -8.464
REMARK INTRA:                  -1.000
REMARK UNBOUND:                -0.604
REMARK  Name = 
REMARK  6 active torsions:
REMARK  status: ('A' for Active; 'I' for Inactive)
REMARK    1  A    between atoms: C_1  and  C_2
REMARK    2  A    between atoms: C_2  and  C_3
REMARK    3  A    between atoms: C_7  and  C_8
REMARK    4  A    between atoms: C_8  and  C_9
REMARK    5  A    between atoms: C_9  and  N_10
REMARK    6  A    between atoms: C_14  and  C_15
REMARK                            x       y       z     vdW  Elec       q    Type
REMARK                         _______ _______ _______ _____ _____    ______ ____
ROOT
ATOM      1  C   UNL     1      49.152   7.507  13.059  0.00  0.00    +0.000 C 
ENDROOT
BRANCH   1   2
ATOM      2  N   UNL     1      49.671   7.548  14.433  0.00  0.00    +0.000 N 
ATOM      3  C   UNL     1      49.100   6.556  15.254  0.00  0.00    +0.000 A 
ATOM      4  C   UNL     1      49.491   6.465  16.587  0.00  0.00    +0.000 A 
ATOM      5  C   UNL     1      48.939   5.470  17.402  0.00  0.00    +0.000 A 
ATOM      6  C   UNL     1      48.004   4.580  16.872  0.00  0.00    +0.000 A 
ATOM      7  C   UNL     1      47.682   4.735  15.537  0.00  0.00    +0.000 A 
ATOM      8  N   UNL     1      48.207   5.689  14.732  0.00  0.00    +0.000 NA
ATOM      9  H   UNL     1      49.531   8.453  14.875  0.00  0.00    +0.000 HD
BRANCH   6  10
ATOM     10  C   UNL     1      47.412   3.529  17.735  0.00  0.00    +0.000 C 
ATOM     11  N   UNL     1      48.048   3.192  18.901  0.00  0.00    +0.000 N 
ATOM     12  O   UNL     1      46.377   2.963  17.419  0.00  0.00    +0.000 OA
ATOM     13  H   UNL     1      48.902   3.591  19.253  0.00  0.00    +0.000 HD
ATOM     14  H   UNL     1      47.611   2.468  19.459  0.00  0.00    +0.000 HD
ENDBRANCH   6  10
ENDBRANCH   1   2
BRANCH   1  15
ATOM     15  C   UNL     1      48.479   8.828  12.670  0.00  0.00    +0.000 C 
BRANCH  15  20
ATOM     16  C   UNL     1      45.368   6.982  11.395  0.00  0.00    +0.000 A 
ATOM     17  C   UNL     1      44.445   8.046  11.386  0.00  0.00    +0.000 A 
ATOM     18  C   UNL     1      44.820   9.342  11.750  0.00  0.00    +0.000 A 
ATOM     19  C   UNL     1      46.129   9.605  12.142  0.00  0.00    +0.000 A 
ATOM     20  C   UNL     1      47.078   8.579  12.151  0.00  0.00    +0.000 A 
ATOM     21  C   UNL     1      46.692   7.282  11.759  0.00  0.00    +0.000 A 
BRANCH  16  23
ATOM     22  C   UNL     1      45.443   5.112   9.743  0.00  0.00    +0.000 C 
ATOM     23  C   UNL     1      44.878   5.551  11.106  0.00  0.00    +0.000 C 
ATOM     24  C   UNL     1      45.274   4.586  12.229  0.00  0.00    +0.000 C 
ATOM     25  C   UNL     1      44.059   4.533  13.145  0.00  0.00    +0.000 C 
ATOM     26  O   UNL     1      42.967   5.166  12.470  0.00  0.00    +0.000 OA
ATOM     27  C   UNL     1      43.356   5.338  11.102  0.00  0.00    +0.000 C 
ENDBRANCH  16  23
ENDBRANCH  15  20
ENDBRANCH   1  15
TORSDOF 5
ENDMDL
MODEL 4
REMARK VINA RESULT:    -6.657      3.615      5.863
REMARK INTER + INTRA:          -9.207
REMARK INTER:                  -8.369
REMARK INTRA:                  -0.838
REMARK UNBOUND:                -0.604
REMARK  Name = 
REMARK  6 active torsions:
REMARK  status: ('A' for Active; 'I' for Inactive)
REMARK    1  A    between atoms: C_1  and  C_2
REMARK    2  A    between atoms: C_2  and  C_3
REMARK    3  A    between atoms: C_7  and  C_8
REMARK    4  A    between atoms: C_8  and  C_9
REMARK    5  A    between atoms: C_9  and  N_10
REMARK    6  A    between atoms: C_14  and  C_15
REMARK                            x       y       z     vdW  Elec       q    Type
REMARK                         _______ _______ _______ _____ _____    ______ ____
ROOT
ATOM      1  C   UNL     1      47.909   7.712  14.050  0.00  0.00    +0.000 C 
ENDROOT
BRANCH   1   2
ATOM      2  N   UNL     1      47.448   7.677  12.656  0.00  0.00    +0.000 N 
ATOM      3  C   UNL     1      46.629   6.563  12.388  0.00  0.00    +0.000 A 
ATOM      4  C   UNL     1      46.111   6.389  11.108  0.00  0.00    +0.000 A 
ATOM      5  C   UNL     1      45.283   5.292  10.842  0.00  0.00    +0.000 A 
ATOM      6  C   UNL     1      44.983   4.387  11.860  0.00  0.00    +0.000 A 
ATOM      7  C   UNL     1      45.530   4.642  13.103  0.00  0.00    +0.000 A 
ATOM      8  N   UNL     1      46.331   5.698  13.381  0.00  0.00    +0.000 NA
ATOM      9  H   UNL     1      48.218   7.679  11.992  0.00  0.00    +0.000 HD
BRANCH   6  10
ATOM     10  C   UNL     1      44.111   3.220  11.579  0.00  0.00    +0.000 C 
ATOM     11  N   UNL     1      43.757   2.392  12.611  0.00  0.00    +0.000 N 
ATOM     12  O   UNL     1      43.713   2.989  10.447  0.00  0.00    +0.000 OA
ATOM     13  H   UNL     1      44.029   2.489  13.576  0.00  0.00    +0.000 HD
ATOM     14  H   UNL     1      43.162   1.607  12.375  0.00  0.00    +0.000 HD
ENDBRANCH   6  10
ENDBRANCH   1   2
BRANCH   1  15
ATOM     15  C   UNL     1      49.413   7.996  14.142  0.00  0.00    +0.000 C 
BRANCH  15  20
ATOM     16  C   UNL     1      49.806   5.527  17.051  0.00  0.00    +0.000 A 
ATOM     17  C   UNL     1      51.178   5.692  17.321  0.00  0.00    +0.000 A 
ATOM     18  C   UNL     1      51.959   6.603  16.607  0.00  0.00    +0.000 A 
ATOM     19  C   UNL     1      51.389   7.369  15.595  0.00  0.00    +0.000 A 
ATOM     20  C   UNL     1      50.026   7.244  15.306  0.00  0.00    +0.000 A 
ATOM     21  C   UNL     1      49.245   6.338  16.049  0.00  0.00    +0.000 A 
BRANCH  16  23
ATOM     22  C   UNL     1      49.113   4.677  19.294  0.00  0.00    +0.000 C 
ATOM     23  C   UNL     1      49.017   4.423  17.779  0.00  0.00    +0.000 C 
ATOM     24  C   UNL     1      47.562   4.363  17.298  0.00  0.00    +0.000 C 
ATOM     25  C   UNL     1      47.552   3.291  16.218  0.00  0.00    +0.000 C 
ATOM     26  O   UNL     1      48.801   2.594  16.273  0.00  0.00    +0.000 OA
ATOM     27  C   UNL     1      49.446   2.974  17.493  0.00  0.00    +0.000 C 
ENDBRANCH  16  23
ENDBRANCH  15  20
ENDBRANCH   1  15
TORSDOF 5
ENDMDL
MODEL 5
REMARK VINA RESULT:    -6.416      4.893      8.073
REMARK INTER + INTRA:          -8.896
REMARK INTER:                  -8.166
REMARK INTRA:                  -0.731
REMARK UNBOUND:                -0.604
REMARK  Name = 
REMARK  6 active torsions:
REMARK  status: ('A' for Active; 'I' for Inactive)
REMARK    1  A    between atoms: C_1  and  C_2
REMARK    2  A    between atoms: C_2  and  C_3
REMARK    3  A    between atoms: C_7  and  C_8
REMARK    4  A    between atoms: C_8  and  C_9
REMARK    5  A    between atoms: C_9  and  N_10
REMARK    6  A    between atoms: C_14  and  C_15
REMARK                            x       y       z     vdW  Elec       q    Type
REMARK                         _______ _______ _______ _____ _____    ______ ____
ROOT
ATOM      1  C   UNL     1      48.545   7.563  14.769  0.00  0.00    +0.000 C 
ENDROOT
BRANCH   1   2
ATOM      2  N   UNL     1      48.002   6.418  15.511  0.00  0.00    +0.000 N 
ATOM      3  C   UNL     1      48.985   5.754  16.271  0.00  0.00    +0.000 A 
ATOM      4  C   UNL     1      48.627   4.646  17.033  0.00  0.00    +0.000 A 
ATOM      5  C   UNL     1      49.597   3.994  17.803  0.00  0.00    +0.000 A 
ATOM      6  C   UNL     1      50.911   4.461  17.801  0.00  0.00    +0.000 A 
ATOM      7  C   UNL     1      51.178   5.573  17.026  0.00  0.00    +0.000 A 
ATOM      8  N   UNL     1      50.252   6.219  16.277  0.00  0.00    +0.000 NA
ATOM      9  H   UNL     1      47.551   5.739  14.904  0.00  0.00    +0.000 HD
BRANCH   6  10
ATOM     10  C   UNL     1      51.943   3.768  18.611  0.00  0.00    +0.000 C 
ATOM     11  N   UNL     1      52.053   4.068  19.943  0.00  0.00    +0.000 N 
ATOM     12  O   UNL     1      52.692   2.945  18.107  0.00  0.00    +0.000 OA
ATOM     13  H   UNL     1      51.492   4.728  20.456  0.00  0.00    +0.000 HD
ATOM     14  H   UNL     1      52.772   3.573  20.458  0.00  0.00    +0.000 HD
ENDBRANCH   6  10
ENDBRANCH   1   2
BRANCH   1  15
ATOM     15  C   UNL     1      48.692   7.250  13.275  0.00  0.00    +0.000 C 
BRANCH  15  20
ATOM     16  C   UNL     1      45.459   6.287  11.449  0.00  0.00    +0.000 A 
ATOM     17  C   UNL     1      44.804   7.534  11.449  0.00  0.00    +0.000 A 
ATOM     18  C   UNL     1      45.400   8.673  11.994  0.00  0.00    +0.000 A 
ATOM     19  C   UNL     1      46.667   8.593  12.564  0.00  0.00    +0.000 A 
ATOM     20  C   UNL     1      47.356   7.376  12.571  0.00  0.00    +0.000 A 
ATOM     21  C   UNL     1      46.753   6.240  11.997  0.00  0.00    +0.000 A 
BRANCH  16  23
ATOM     22  C   UNL     1      45.224   4.696   9.539  0.00  0.00    +0.000 C 
ATOM     23  C   UNL     1      44.711   5.037  10.950  0.00  0.00    +0.000 C 
ATOM     24  C   UNL     1      44.875   3.861  11.920  0.00  0.00    +0.000 C 
ATOM     25  C   UNL     1      43.643   3.916  12.812  0.00  0.00    +0.000 C 
ATOM     26  O   UNL     1      42.718   4.842  12.234  0.00  0.00    +0.000 OA
ATOM     27  C   UNL     1      43.177   5.129  10.908  0.00  0.00    +0.000 C 
ENDBRANCH  16  23
ENDBRANCH  15  20
ENDBRANCH   1  15
TORSDOF 5
ENDMDL
MODEL 6
REMARK VINA RESULT:    -6.366      4.486      8.151
REMARK INTER + INTRA:          -8.831
REMARK INTER:                  -8.157
REMARK INTRA:                  -0.674
REMARK UNBOUND:                -0.604
REMARK  Name = 
REMARK  6 active torsions:
REMARK  status: ('A' for Active; 'I' for Inactive)
REMARK    1  A    between atoms: C_1  and  C_2
REMARK    2  A    between atoms: C_2  and  C_3
REMARK    3  A    between atoms: C_7  and  C_8
REMARK    4  A    between atoms: C_8  and  C_9
REMARK    5  A    between atoms: C_9  and  N_10
REMARK    6  A    between atoms: C_14  and  C_15
REMARK                            x       y       z     vdW  Elec       q    Type
REMARK                         _______ _______ _______ _____ _____    ______ ____
ROOT
ATOM      1  C   UNL     1      49.101   7.730  13.988  0.00  0.00    +0.000 C 
ENDROOT
BRANCH   1   2
ATOM      2  N   UNL     1      50.305   7.281  14.700  0.00  0.00    +0.000 N 
ATOM      3  C   UNL     1      50.000   6.575  15.881  0.00  0.00    +0.000 A 
ATOM      4  C   UNL     1      51.036   6.083  16.668  0.00  0.00    +0.000 A 
ATOM      5  C   UNL     1      50.738   5.366  17.833  0.00  0.00    +0.000 A 
ATOM      6  C   UNL     1      49.408   5.152  18.193  0.00  0.00    +0.000 A 
ATOM      7  C   UNL     1      48.442   5.666  17.349  0.00  0.00    +0.000 A 
ATOM      8  N   UNL     1      48.711   6.358  16.216  0.00  0.00    +0.000 NA
ATOM      9  H   UNL     1      50.926   8.050  14.935  0.00  0.00    +0.000 HD
BRANCH   6  10
ATOM     10  C   UNL     1      49.089   4.399  19.431  0.00  0.00    +0.000 C 
ATOM     11  N   UNL     1      48.384   3.228  19.332  0.00  0.00    +0.000 N 
ATOM     12  O   UNL     1      49.440   4.809  20.527  0.00  0.00    +0.000 OA
ATOM     13  H   UNL     1      48.047   2.803  18.484  0.00  0.00    +0.000 HD
ATOM     14  H   UNL     1      48.186   2.747  20.201  0.00  0.00    +0.000 HD
ENDBRANCH   6  10
ENDBRANCH   1   2
BRANCH   1  15
ATOM     15  C   UNL     1      48.808   6.854  12.764  0.00  0.00    +0.000 C 
BRANCH  15  20
ATOM     16  C   UNL     1      45.167   5.991  11.920  0.00  0.00    +0.000 A 
ATOM     17  C   UNL     1      44.652   7.288  11.731  0.00  0.00    +0.000 A 
ATOM     18  C   UNL     1      45.462   8.420  11.838  0.00  0.00    +0.000 A 
ATOM     19  C   UNL     1      46.812   8.284  12.148  0.00  0.00    +0.000 A 
ATOM     20  C   UNL     1      47.365   7.013  12.329  0.00  0.00    +0.000 A 
ATOM     21  C   UNL     1      46.541   5.879  12.196  0.00  0.00    +0.000 A 
BRANCH  16  23
ATOM     22  C   UNL     1      43.236   4.934  13.098  0.00  0.00    +0.000 C 
ATOM     23  C   UNL     1      44.209   4.785  11.915  0.00  0.00    +0.000 C 
ATOM     24  C   UNL     1      43.471   4.662  10.577  0.00  0.00    +0.000 C 
ATOM     25  C   UNL     1      44.297   3.673   9.766  0.00  0.00    +0.000 C 
ATOM     26  O   UNL     1      45.246   3.062  10.644  0.00  0.00    +0.000 OA
ATOM     27  C   UNL     1      44.861   3.395  11.983  0.00  0.00    +0.000 C 
ENDBRANCH  16  23
ENDBRANCH  15  20
ENDBRANCH   1  15
TORSDOF 5
ENDMDL
MODEL 7
REMARK VINA RESULT:    -6.244      3.922      6.056
REMARK INTER + INTRA:          -8.673
REMARK INTER:                  -7.610
REMARK INTRA:                  -1.063
REMARK UNBOUND:                -0.604
REMARK  Name = 
REMARK  6 active torsions:
REMARK  status: ('A' for Active; 'I' for Inactive)
REMARK    1  A    between atoms: C_1  and  C_2
REMARK    2  A    between atoms: C_2  and  C_3
REMARK    3  A    between atoms: C_7  and  C_8
REMARK    4  A    between atoms: C_8  and  C_9
REMARK    5  A    between atoms: C_9  and  N_10
REMARK    6  A    between atoms: C_14  and  C_15
REMARK                            x       y       z     vdW  Elec       q    Type
REMARK                         _______ _______ _______ _____ _____    ______ ____
ROOT
ATOM      1  C   UNL     1      49.417   7.058  12.636  0.00  0.00    +0.000 C 
ENDROOT
BRANCH   1   2
ATOM      2  N   UNL     1      48.183   7.563  12.019  0.00  0.00    +0.000 N 
ATOM      3  C   UNL     1      47.083   6.711  12.240  0.00  0.00    +0.000 A 
ATOM      4  C   UNL     1      45.839   7.053  11.719  0.00  0.00    +0.000 A 
ATOM      5  C   UNL     1      44.740   6.217  11.950  0.00  0.00    +0.000 A 
ATOM      6  C   UNL     1      44.901   5.053  12.701  0.00  0.00    +0.000 A 
ATOM      7  C   UNL     1      46.167   4.796  13.190  0.00  0.00    +0.000 A 
ATOM      8  N   UNL     1      47.242   5.593  12.980  0.00  0.00    +0.000 NA
ATOM      9  H   UNL     1      48.281   7.711  11.019  0.00  0.00    +0.000 HD
BRANCH   6  10
ATOM     10  C   UNL     1      43.739   4.162  12.942  0.00  0.00    +0.000 C 
ATOM     11  N   UNL     1      43.866   2.823  12.687  0.00  0.00    +0.000 N 
ATOM     12  O   UNL     1      42.679   4.607  13.356  0.00  0.00    +0.000 OA
ATOM     13  H   UNL     1      44.689   2.354  12.345  0.00  0.00    +0.000 HD
ATOM     14  H   UNL     1      43.049   2.251  12.864  0.00  0.00    +0.000 HD
ENDBRANCH   6  10
ENDBRANCH   1   2
BRANCH   1  15
ATOM     15  C   UNL     1      50.048   8.095  13.571  0.00  0.00    +0.000 C 
BRANCH  15  20
ATOM     16  C   UNL     1      48.783   6.900  16.990  0.00  0.00    +0.000 A 
ATOM     17  C   UNL     1      48.253   8.108  17.484  0.00  0.00    +0.000 A 
ATOM     18  C   UNL     1      48.270   9.279  16.724  0.00  0.00    +0.000 A 
ATOM     19  C   UNL     1      48.827   9.275  15.448  0.00  0.00    +0.000 A 
ATOM     20  C   UNL     1      49.350   8.093  14.916  0.00  0.00    +0.000 A 
ATOM     21  C   UNL     1      49.306   6.914  15.685  0.00  0.00    +0.000 A 
BRANCH  16  23
ATOM     22  C   UNL     1      49.585   6.073  19.205  0.00  0.00    +0.000 C 
ATOM     23  C   UNL     1      48.854   5.669  17.912  0.00  0.00    +0.000 C 
ATOM     24  C   UNL     1      47.459   5.099  18.195  0.00  0.00    +0.000 C 
ATOM     25  C   UNL     1      47.275   3.990  17.169  0.00  0.00    +0.000 C 
ATOM     26  O   UNL     1      48.541   3.744  16.550  0.00  0.00    +0.000 OA
ATOM     27  C   UNL     1      49.534   4.418  17.330  0.00  0.00    +0.000 C 
ENDBRANCH  16  23
ENDBRANCH  15  20
ENDBRANCH   1  15
TORSDOF 5
ENDMDL
MODEL 8
REMARK VINA RESULT:    -6.214      4.162      6.487
REMARK INTER + INTRA:          -8.634
REMARK INTER:                  -7.695
REMARK INTRA:                  -0.939
REMARK UNBOUND:                -0.604
REMARK  Name = 
REMARK  6 active torsions:
REMARK  status: ('A' for Active; 'I' for Inactive)
REMARK    1  A    between atoms: C_1  and  C_2
REMARK    2  A    between atoms: C_2  and  C_3
REMARK    3  A    between atoms: C_7  and  C_8
REMARK    4  A    between atoms: C_8  and  C_9
REMARK    5  A    between atoms: C_9  and  N_10
REMARK    6  A    between atoms: C_14  and  C_15
REMARK                            x       y       z     vdW  Elec       q    Type
REMARK                         _______ _______ _______ _____ _____    ______ ____
ROOT
ATOM      1  C   UNL     1      49.379   7.393  13.098  0.00  0.00    +0.000 C 
ENDROOT
BRANCH   1   2
ATOM      2  N   UNL     1      48.134   7.960  12.564  0.00  0.00    +0.000 N 
ATOM      3  C   UNL     1      47.048   7.068  12.666  0.00  0.00    +0.000 A 
ATOM      4  C   UNL     1      45.796   7.460  12.203  0.00  0.00    +0.000 A 
ATOM      5  C   UNL     1      44.712   6.583  12.317  0.00  0.00    +0.000 A 
ATOM      6  C   UNL     1      44.895   5.326  12.895  0.00  0.00    +0.000 A 
ATOM      7  C   UNL     1      46.168   5.023  13.338  0.00  0.00    +0.000 A 
ATOM      8  N   UNL     1      47.229   5.859  13.239  0.00  0.00    +0.000 NA
ATOM      9  H   UNL     1      48.223   8.250  11.594  0.00  0.00    +0.000 HD
BRANCH   6  10
ATOM     10  C   UNL     1      43.748   4.392  13.011  0.00  0.00    +0.000 C 
ATOM     11  N   UNL     1      43.960   3.054  12.805  0.00  0.00    +0.000 N 
ATOM     12  O   UNL     1      42.628   4.799  13.281  0.00  0.00    +0.000 OA
ATOM     13  H   UNL     1      44.836   2.615  12.577  0.00  0.00    +0.000 HD
ATOM     14  H   UNL     1      43.149   2.452  12.893  0.00  0.00    +0.000 HD
ENDBRANCH   6  10
ENDBRANCH   1   2
BRANCH   1  15
ATOM     15  C   UNL     1      49.882   8.177  14.315  0.00  0.00    +0.000 C 
BRANCH  15  20
ATOM     16  C   UNL     1      49.431   5.552  17.076  0.00  0.00    +0.000 A 
ATOM     17  C   UNL     1      50.779   5.344  17.430  0.00  0.00    +0.000 A 
ATOM     18  C   UNL     1      51.813   6.056  16.819  0.00  0.00    +0.000 A 
ATOM     19  C   UNL     1      51.528   6.991  15.829  0.00  0.00    +0.000 A 
ATOM     20  C   UNL     1      50.202   7.237  15.460  0.00  0.00    +0.000 A 
ATOM     21  C   UNL     1      49.166   6.528  16.100  0.00  0.00    +0.000 A 
BRANCH  16  23
ATOM     22  C   UNL     1      47.687   3.844  16.554  0.00  0.00    +0.000 C 
ATOM     23  C   UNL     1      48.339   4.656  17.688  0.00  0.00    +0.000 C 
ATOM     24  C   UNL     1      48.906   3.752  18.788  0.00  0.00    +0.000 C 
ATOM     25  C   UNL     1      48.643   4.505  20.085  0.00  0.00    +0.000 C 
ATOM     26  O   UNL     1      47.755   5.589  19.797  0.00  0.00    +0.000 OA
ATOM     27  C   UNL     1      47.233   5.372  18.481  0.00  0.00    +0.000 C 
ENDBRANCH  16  23
ENDBRANCH  15  20
ENDBRANCH   1  15
TORSDOF 5
ENDMDL
MODEL 9
REMARK VINA RESULT:    -5.887      4.168      8.370
REMARK INTER + INTRA:          -8.212
REMARK INTER:                  -7.543
REMARK INTRA:                  -0.669
REMARK UNBOUND:                -0.604
REMARK  Name = 
REMARK  6 active torsions:
REMARK  status: ('A' for Active; 'I' for Inactive)
REMARK    1  A    between atoms: C_1  and  C_2
REMARK    2  A    between atoms: C_2  and  C_3
REMARK    3  A    between atoms: C_7  and  C_8
REMARK    4  A    between atoms: C_8  and  C_9
REMARK    5  A    between atoms: C_9  and  N_10
REMARK    6  A    between atoms: C_14  and  C_15
REMARK                            x       y       z     vdW  Elec       q    Type
REMARK                         _______ _______ _______ _____ _____    ______ ____
ROOT
ATOM      1  C   UNL     1      49.039   7.775  12.858  0.00  0.00    +0.000 C 
ENDROOT
BRANCH   1   2
ATOM      2  N   UNL     1      48.664   8.933  13.680  0.00  0.00    +0.000 N 
ATOM      3  C   UNL     1      48.621   8.626  15.055  0.00  0.00    +0.000 A 
ATOM      4  C   UNL     1      48.280   9.622  15.966  0.00  0.00    +0.000 A 
ATOM      5  C   UNL     1      48.252   9.325  17.334  0.00  0.00    +0.000 A 
ATOM      6  C   UNL     1      48.567   8.038  17.770  0.00  0.00    +0.000 A 
ATOM      7  C   UNL     1      48.904   7.115  16.799  0.00  0.00    +0.000 A 
ATOM      8  N   UNL     1      48.940   7.383  15.472  0.00  0.00    +0.000 NA
ATOM      9  H   UNL     1      47.767   9.328  13.410  0.00  0.00    +0.000 HD
BRANCH   6  10
ATOM     10  C   UNL     1      48.532   7.720  19.219  0.00  0.00    +0.000 C 
ATOM     11  N   UNL     1      49.488   6.888  19.738  0.00  0.00    +0.000 N 
ATOM     12  O   UNL     1      47.665   8.182  19.945  0.00  0.00    +0.000 OA
ATOM     13  H   UNL     1      50.242   6.454  19.232  0.00  0.00    +0.000 HD
ATOM     14  H   UNL     1      49.426   6.696  20.731  0.00  0.00    +0.000 HD
ENDBRANCH   6  10
ENDBRANCH   1   2
BRANCH   1  15
ATOM     15  C   UNL     1      47.973   7.462  11.802  0.00  0.00    +0.000 C 
BRANCH  15  20
ATOM     16  C   UNL     1      45.054   4.977  11.924  0.00  0.00    +0.000 A 
ATOM     17  C   UNL     1      45.471   4.171  13.002  0.00  0.00    +0.000 A 
ATOM     18  C   UNL     1      46.650   4.438  13.701  0.00  0.00    +0.000 A 
ATOM     19  C   UNL     1      47.451   5.516  13.333  0.00  0.00    +0.000 A 
ATOM     20  C   UNL     1      47.064   6.347  12.278  0.00  0.00    +0.000 A 
ATOM     21  C   UNL     1      45.861   6.080  11.596  0.00  0.00    +0.000 A 
BRANCH  16  23
ATOM     22  C   UNL     1      42.671   5.547  11.441  0.00  0.00    +0.000 C 
ATOM     23  C   UNL     1      43.813   4.570  11.108  0.00  0.00    +0.000 C 
ATOM     24  C   UNL     1      44.118   4.533   9.606  0.00  0.00    +0.000 C 
ATOM     25  C   UNL     1      44.461   3.079   9.313  0.00  0.00    +0.000 C 
ATOM     26  O   UNL     1      44.105   2.300  10.459  0.00  0.00    +0.000 OA
ATOM     27  C   UNL     1      43.306   3.132  11.307  0.00  0.00    +0.000 C 
ENDBRANCH  16  23
ENDBRANCH  15  20
ENDBRANCH   1  15
TORSDOF 5
ENDMDL
