MODEL 1
REMARK VINA RESULT:    -8.760      0.000      0.000
REMARK INTER + INTRA:         -12.911
REMARK INTER:                 -11.832
REMARK INTRA:                  -1.078
REMARK UNBOUND:                -1.078
REMARK  Name = 
REMARK  7 active torsions:
REMARK  status: ('A' for Active; 'I' for Inactive)
REMARK    1  A    between atoms: C_1  and  C_2
REMARK    2  A    between atoms: C_2  and  N_3
REMARK    3  A    between atoms: C_2  and  C_16
REMARK    4  A    between atoms: C_4  and  C_6
REMARK    5  A    between atoms: C_19  and  O_20
REMARK    6  A    between atoms: O_20  and  C_21
REMARK    7  A    between atoms: C_21  and  C_22
REMARK                            x       y       z     vdW  Elec       q    Type
REMARK                         _______ _______ _______ _____ _____    ______ ____
ROOT
ATOM      1  C   UNL     1      45.895   8.507  12.863  0.00  0.00    +0.000 C 
ATOM      2  C   UNL     1      46.835   7.295  12.844  0.00  0.00    +0.000 C 
ENDROOT
BRANCH   2   3
ATOM      3  C   UNL     1      46.196   6.176  12.037  0.00  0.00    +0.000 A 
ATOM      4  C   UNL     1      45.674   5.015  12.622  0.00  0.00    +0.000 A 
ATOM      5  C   UNL     1      45.105   4.023  11.821  0.00  0.00    +0.000 A 
ATOM      6  C   UNL     1      45.026   4.242  10.457  0.00  0.00    +0.000 A 
ATOM      7  N   UNL     1      45.491   5.359   9.857  0.00  0.00    +0.000 NA
ATOM      8  C   UNL     1      46.066   6.290  10.656  0.00  0.00    +0.000 A 
BRANCH   6   9
ATOM      9  O   UNL     1      44.479   3.232   9.687  0.00  0.00    +0.000 OA
BRANCH   9  10
ATOM     10  C   UNL     1      44.589   3.510   8.289  0.00  0.00    +0.000 C 
BRANCH  10  11
ATOM     11  C   UNL     1      45.745   2.734   7.699  0.00  0.00    +0.000 A 
ATOM     12  C   UNL     1      46.602   3.312   6.759  0.00  0.00    +0.000 A 
ATOM     13  C   UNL     1      47.683   2.572   6.299  0.00  0.00    +0.000 A 
ATOM     14  N   UNL     1      47.963   1.316   6.705  0.00  0.00    +0.000 NA
ATOM     15  C   UNL     1      47.122   0.773   7.611  0.00  0.00    +0.000 A 
ATOM     16  C   UNL     1      46.017   1.431   8.129  0.00  0.00    +0.000 A 
ENDBRANCH  10  11
ENDBRANCH   9  10
ENDBRANCH   6   9
ENDBRANCH   2   3
BRANCH   2  17
ATOM     17  N   UNL     1      47.179   6.840  14.186  0.00  0.00    +0.000 N 
ATOM     18  C   UNL     1      48.475   6.645  14.600  0.00  0.00    +0.000 C 
ATOM     19  O   UNL     1      49.442   6.864  13.877  0.00  0.00    +0.000 OA
ATOM     20  H   UNL     1      46.461   6.315  14.678  0.00  0.00    +0.000 HD
BRANCH  18  21
ATOM     21  C   UNL     1      48.656   6.221  15.993  0.00  0.00    +0.000 A 
ATOM     22  C   UNL     1      49.255   7.084  16.900  0.00  0.00    +0.000 A 
ATOM     23  S   UNL     1      49.382   6.441  18.474  0.00  0.00    +0.000 S 
ATOM     24  C   UNL     1      48.677   4.969  17.989  0.00  0.00    +0.000 A 
ATOM     25  N   UNL     1      48.526   3.944  18.866  0.00  0.00    +0.000 NA
ATOM     26  C   UNL     1      48.010   2.877  18.355  0.00  0.00    +0.000 A 
ATOM     27  N   UNL     1      47.615   2.749  17.045  0.00  0.00    +0.000 N 
ATOM     28  C   UNL     1      47.707   3.776  16.138  0.00  0.00    +0.000 A 
ATOM     29  O   UNL     1      47.274   3.664  14.996  0.00  0.00    +0.000 OA
ATOM     30  C   UNL     1      48.318   4.983  16.652  0.00  0.00    +0.000 A 
ATOM     31  H   UNL     1      47.199   1.892  16.715  0.00  0.00    +0.000 HD
ENDBRANCH  18  21
ENDBRANCH   2  17
TORSDOF 6
ENDMDL
MODEL 2
REMARK VINA RESULT:    -8.232      1.711      2.380
REMARK INTER + INTRA:         -12.197
REMARK INTER:                 -11.178
REMARK INTRA:                  -1.019
REMARK UNBOUND:                -1.078
REMARK  Name = 
REMARK  7 active torsions:
REMARK  status: ('A' for Active; 'I' for Inactive)
REMARK    1  A    between atoms: C_1  and  C_2
REMARK    2  A    between atoms: C_2  and  N_3
REMARK    3  A    between atoms: C_2  and  C_16
REMARK    4  A    between atoms: C_4  and  C_6
REMARK    5  A    between atoms: C_19  and  O_20
REMARK    6  A    between atoms: O_20  and  C_21
REMARK    7  A    between atoms: C_21  and  C_22
REMARK                            x       y       z     vdW  Elec       q    Type
REMARK                         _______ _______ _______ _____ _____    ______ ____
ROOT
ATOM      1  C   UNL     1      46.827   8.231  13.473  0.00  0.00    +0.000 C 
ATOM      2  C   UNL     1      47.427   6.820  13.439  0.00  0.00    +0.000 C 
ENDROOT
BRANCH   2   3
ATOM      3  C   UNL     1      46.632   5.959  12.471  0.00  0.00    +0.000 A 
ATOM      4  C   UNL     1      46.355   6.347  11.153  0.00  0.00    +0.000 A 
ATOM      5  C   UNL     1      45.613   5.511  10.318  0.00  0.00    +0.000 A 
ATOM      6  C   UNL     1      45.210   4.281  10.807  0.00  0.00    +0.000 A 
ATOM      7  N   UNL     1      45.479   3.857  12.060  0.00  0.00    +0.000 NA
ATOM      8  C   UNL     1      46.174   4.702  12.858  0.00  0.00    +0.000 A 
BRANCH   6   9
ATOM      9  O   UNL     1      44.456   3.483   9.965  0.00  0.00    +0.000 OA
BRANCH   9  10
ATOM     10  C   UNL     1      44.665   3.814   8.591  0.00  0.00    +0.000 C 
BRANCH  10  11
ATOM     11  C   UNL     1      45.737   2.925   8.003  0.00  0.00    +0.000 A 
ATOM     12  C   UNL     1      46.750   3.446   7.194  0.00  0.00    +0.000 A 
ATOM     13  C   UNL     1      47.742   2.592   6.733  0.00  0.00    +0.000 A 
ATOM     14  N   UNL     1      47.794   1.274   7.020  0.00  0.00    +0.000 NA
ATOM     15  C   UNL     1      46.806   0.788   7.801  0.00  0.00    +0.000 A 
ATOM     16  C   UNL     1      45.771   1.560   8.308  0.00  0.00    +0.000 A 
ENDBRANCH  10  11
ENDBRANCH   9  10
ENDBRANCH   6   9
ENDBRANCH   2   3
BRANCH   2  17
ATOM     17  N   UNL     1      47.480   6.207  14.761  0.00  0.00    +0.000 N 
ATOM     18  C   UNL     1      48.623   6.171  15.523  0.00  0.00    +0.000 C 
ATOM     19  O   UNL     1      49.680   6.674  15.156  0.00  0.00    +0.000 OA
ATOM     20  H   UNL     1      46.785   5.490  14.949  0.00  0.00    +0.000 HD
BRANCH  18  21
ATOM     21  C   UNL     1      48.503   5.551  16.847  0.00  0.00    +0.000 A 
ATOM     22  C   UNL     1      48.628   4.175  16.975  0.00  0.00    +0.000 A 
ATOM     23  S   UNL     1      48.470   3.619  18.579  0.00  0.00    +0.000 S 
ATOM     24  C   UNL     1      48.188   5.197  19.155  0.00  0.00    +0.000 A 
ATOM     25  N   UNL     1      47.932   5.426  20.469  0.00  0.00    +0.000 NA
ATOM     26  C   UNL     1      47.702   6.661  20.760  0.00  0.00    +0.000 A 
ATOM     27  N   UNL     1      47.723   7.695  19.855  0.00  0.00    +0.000 N 
ATOM     28  C   UNL     1      48.025   7.514  18.527  0.00  0.00    +0.000 A 
ATOM     29  O   UNL     1      48.116   8.461  17.754  0.00  0.00    +0.000 OA
ATOM     30  C   UNL     1      48.249   6.137  18.141  0.00  0.00    +0.000 A 
ATOM     31  H   UNL     1      47.555   8.644  20.153  0.00  0.00    +0.000 HD
ENDBRANCH  18  21
ENDBRANCH   2  17
TORSDOF 6
ENDMDL
MODEL 3
REMARK VINA RESULT:    -7.865      2.770      4.118
REMARK INTER + INTRA:         -11.701
REMARK INTER:                 -10.594
REMARK INTRA:                  -1.108
REMARK UNBOUND:                -1.078
REMARK  Name = 
REMARK  7 active torsions:
REMARK  status: ('A' for Active; 'I' for Inactive)
REMARK    1  A    between atoms: C_1  and  C_2
REMARK    2  A    between atoms: C_2  and  N_3
REMARK    3  A    between atoms: C_2  and  C_16
REMARK    4  A    between atoms: C_4  and  C_6
REMARK    5  A    between atoms: C_19  and  O_20
REMARK    6  A    between atoms: O_20  and  C_21
REMARK    7  A    between atoms: C_21  and  C_22
REMARK                            x       y       z     vdW  Elec       q    Type
REMARK                         _______ _______ _______ _____ _____    ______ ____
ROOT
ATOM      1  C   UNL     1      47.017   4.409  15.009  0.00  0.00    +0.000 C 
ATOM      2  C   UNL     1      46.711   5.526  14.003  0.00  0.00    +0.000 C 
ENDROOT
BRANCH   2   3
ATOM      3  C   UNL     1      46.028   4.929  12.783  0.00  0.00    +0.000 A 
ATOM      4  C   UNL     1      45.728   5.675  11.635  0.00  0.00    +0.000 A 
ATOM      5  C   UNL     1      45.094   5.065  10.550  0.00  0.00    +0.000 A 
ATOM      6  C   UNL     1      44.823   3.710  10.622  0.00  0.00    +0.000 A 
ATOM      7  N   UNL     1      45.121   2.951  11.698  0.00  0.00    +0.000 NA
ATOM      8  C   UNL     1      45.707   3.575  12.747  0.00  0.00    +0.000 A 
BRANCH   6   9
ATOM      9  O   UNL     1      44.173   3.139   9.543  0.00  0.00    +0.000 OA
BRANCH   9  10
ATOM     10  C   UNL     1      44.640   3.669   8.300  0.00  0.00    +0.000 C 
BRANCH  10  11
ATOM     11  C   UNL     1      45.803   2.847   7.794  0.00  0.00    +0.000 A 
ATOM     12  C   UNL     1      45.972   1.514   8.179  0.00  0.00    +0.000 A 
ATOM     13  C   UNL     1      47.023   0.790   7.633  0.00  0.00    +0.000 A 
ATOM     14  N   UNL     1      47.905   1.296   6.744  0.00  0.00    +0.000 NA
ATOM     15  C   UNL     1      47.727   2.585   6.387  0.00  0.00    +0.000 A 
ATOM     16  C   UNL     1      46.709   3.389   6.876  0.00  0.00    +0.000 A 
ENDBRANCH  10  11
ENDBRANCH   9  10
ENDBRANCH   6   9
ENDBRANCH   2   3
BRANCH   2  17
ATOM     17  N   UNL     1      47.905   6.271  13.621  0.00  0.00    +0.000 N 
ATOM     18  C   UNL     1      47.911   7.635  13.448  0.00  0.00    +0.000 C 
ATOM     19  O   UNL     1      46.916   8.330  13.626  0.00  0.00    +0.000 OA
ATOM     20  H   UNL     1      48.619   5.746  13.125  0.00  0.00    +0.000 HD
BRANCH  18  21
ATOM     21  C   UNL     1      49.201   8.240  13.100  0.00  0.00    +0.000 A 
ATOM     22  C   UNL     1      49.293   9.068  11.990  0.00  0.00    +0.000 A 
ATOM     23  S   UNL     1      50.858   9.694  11.731  0.00  0.00    +0.000 S 
ATOM     24  C   UNL     1      51.478   8.848  13.073  0.00  0.00    +0.000 A 
ATOM     25  N   UNL     1      52.795   8.915  13.394  0.00  0.00    +0.000 NA
ATOM     26  C   UNL     1      53.133   8.198  14.411  0.00  0.00    +0.000 A 
ATOM     27  N   UNL     1      52.265   7.429  15.149  0.00  0.00    +0.000 N 
ATOM     28  C   UNL     1      50.918   7.370  14.888  0.00  0.00    +0.000 A 
ATOM     29  O   UNL     1      50.151   6.742  15.608  0.00  0.00    +0.000 OA
ATOM     30  C   UNL     1      50.494   8.126  13.728  0.00  0.00    +0.000 A 
ATOM     31  H   UNL     1      52.592   6.907  15.948  0.00  0.00    +0.000 HD
ENDBRANCH  18  21
ENDBRANCH   2  17
TORSDOF 6
ENDMDL
MODEL 4
REMARK VINA RESULT:    -7.715      1.771      2.297
REMARK INTER + INTRA:         -11.499
REMARK INTER:                 -10.589
REMARK INTRA:                  -0.910
REMARK UNBOUND:                -1.078
REMARK  Name = 
REMARK  7 active torsions:
REMARK  status: ('A' for Active; 'I' for Inactive)
REMARK    1  A    between atoms: C_1  and  C_2
REMARK    2  A    between atoms: C_2  and  N_3
REMARK    3  A    between atoms: C_2  and  C_16
REMARK    4  A    between atoms: C_4  and  C_6
REMARK    5  A    between atoms: C_19  and  O_20
REMARK    6  A    between atoms: O_20  and  C_21
REMARK    7  A    between atoms: C_21  and  C_22
REMARK                            x       y       z     vdW  Elec       q    Type
REMARK                         _______ _______ _______ _____ _____    ______ ____
ROOT
ATOM      1  C   UNL     1      48.673   7.875  13.158  0.00  0.00    +0.000 C 
ATOM      2  C   UNL     1      48.399   6.520  13.822  0.00  0.00    +0.000 C 
ENDROOT
BRANCH   2   3
ATOM      3  C   UNL     1      47.226   5.848  13.128  0.00  0.00    +0.000 A 
ATOM      4  C   UNL     1      46.588   6.394  12.006  0.00  0.00    +0.000 A 
ATOM      5  C   UNL     1      45.511   5.728  11.419  0.00  0.00    +0.000 A 
ATOM      6  C   UNL     1      45.131   4.503  11.940  0.00  0.00    +0.000 A 
ATOM      7  N   UNL     1      45.737   3.929  13.001  0.00  0.00    +0.000 NA
ATOM      8  C   UNL     1      46.759   4.613  13.569  0.00  0.00    +0.000 A 
BRANCH   6   9
ATOM      9  O   UNL     1      44.047   3.877  11.353  0.00  0.00    +0.000 OA
BRANCH   9  10
ATOM     10  C   UNL     1      43.877   4.272   9.990  0.00  0.00    +0.000 C 
BRANCH  10  11
ATOM     11  C   UNL     1      44.810   3.478   9.104  0.00  0.00    +0.000 A 
ATOM     12  C   UNL     1      45.607   4.105   8.143  0.00  0.00    +0.000 A 
ATOM     13  C   UNL     1      46.489   3.331   7.401  0.00  0.00    +0.000 A 
ATOM     14  N   UNL     1      46.630   1.997   7.549  0.00  0.00    +0.000 NA
ATOM     15  C   UNL     1      45.850   1.409   8.480  0.00  0.00    +0.000 A 
ATOM     16  C   UNL     1      44.939   2.095   9.270  0.00  0.00    +0.000 A 
ENDBRANCH  10  11
ENDBRANCH   9  10
ENDBRANCH   6   9
ENDBRANCH   2   3
BRANCH   2  17
ATOM     17  N   UNL     1      48.158   6.643  15.255  0.00  0.00    +0.000 N 
ATOM     18  C   UNL     1      49.165   6.596  16.189  0.00  0.00    +0.000 C 
ATOM     19  O   UNL     1      50.346   6.471  15.884  0.00  0.00    +0.000 OA
ATOM     20  H   UNL     1      47.228   6.387  15.575  0.00  0.00    +0.000 HD
BRANCH  18  21
ATOM     21  C   UNL     1      48.762   6.773  17.589  0.00  0.00    +0.000 A 
ATOM     22  C   UNL     1      48.456   8.043  18.059  0.00  0.00    +0.000 A 
ATOM     23  S   UNL     1      48.000   8.073  19.701  0.00  0.00    +0.000 S 
ATOM     24  C   UNL     1      48.234   6.393  19.854  0.00  0.00    +0.000 A 
ATOM     25  N   UNL     1      48.051   5.766  21.044  0.00  0.00    +0.000 NA
ATOM     26  C   UNL     1      48.297   4.500  21.024  0.00  0.00    +0.000 A 
ATOM     27  N   UNL     1      48.695   3.799  19.911  0.00  0.00    +0.000 N 
ATOM     28  C   UNL     1      48.845   4.384  18.678  0.00  0.00    +0.000 A 
ATOM     29  O   UNL     1      49.122   3.724  17.683  0.00  0.00    +0.000 OA
ATOM     30  C   UNL     1      48.621   5.814  18.656  0.00  0.00    +0.000 A 
ATOM     31  H   UNL     1      48.850   2.803  19.958  0.00  0.00    +0.000 HD
ENDBRANCH  18  21
ENDBRANCH   2  17
TORSDOF 6
ENDMDL
MODEL 5
REMARK VINA RESULT:    -7.289      3.495      8.038
REMARK INTER + INTRA:         -10.924
REMARK INTER:                  -9.816
REMARK INTRA:                  -1.108
REMARK UNBOUND:                -1.078
REMARK  Name = 
REMARK  7 active torsions:
REMARK  status: ('A' for Active; 'I' for Inactive)
REMARK    1  A    between atoms: C_1  and  C_2
REMARK    2  A    between atoms: C_2  and  N_3
REMARK    3  A    between atoms: C_2  and  C_16
REMARK    4  A    between atoms: C_4  and  C_6
REMARK    5  A    between atoms: C_19  and  O_20
REMARK    6  A    between atoms: O_20  and  C_21
REMARK    7  A    between atoms: C_21  and  C_22
REMARK                            x       y       z     vdW  Elec       q    Type
REMARK                         _______ _______ _______ _____ _____    ______ ____
ROOT
ATOM      1  C   UNL     1      49.669   8.131  11.485  0.00  0.00    +0.000 C 
ATOM      2  C   UNL     1      48.480   7.706  12.357  0.00  0.00    +0.000 C 
ENDROOT
BRANCH   2   3
ATOM      3  C   UNL     1      48.989   7.270  13.721  0.00  0.00    +0.000 A 
ATOM      4  C   UNL     1      50.152   7.790  14.304  0.00  0.00    +0.000 A 
ATOM      5  C   UNL     1      50.567   7.341  15.559  0.00  0.00    +0.000 A 
ATOM      6  C   UNL     1      49.778   6.420  16.223  0.00  0.00    +0.000 A 
ATOM      7  N   UNL     1      48.635   5.915  15.710  0.00  0.00    +0.000 NA
ATOM      8  C   UNL     1      48.274   6.345  14.477  0.00  0.00    +0.000 A 
BRANCH   6   9
ATOM      9  O   UNL     1      50.226   5.976  17.454  0.00  0.00    +0.000 OA
BRANCH   9  10
ATOM     10  C   UNL     1      49.635   4.726  17.817  0.00  0.00    +0.000 C 
BRANCH  10  11
ATOM     11  C   UNL     1      50.670   3.627  17.746  0.00  0.00    +0.000 A 
ATOM     12  C   UNL     1      51.989   3.845  18.153  0.00  0.00    +0.000 A 
ATOM     13  C   UNL     1      52.881   2.781  18.123  0.00  0.00    +0.000 A 
ATOM     14  N   UNL     1      52.553   1.535  17.721  0.00  0.00    +0.000 NA
ATOM     15  C   UNL     1      51.276   1.344  17.329  0.00  0.00    +0.000 A 
ATOM     16  C   UNL     1      50.313   2.343  17.322  0.00  0.00    +0.000 A 
ENDBRANCH  10  11
ENDBRANCH   9  10
ENDBRANCH   6   9
ENDBRANCH   2   3
BRANCH   2  17
ATOM     17  N   UNL     1      47.684   6.654  11.735  0.00  0.00    +0.000 N 
ATOM     18  C   UNL     1      46.340   6.784  11.483  0.00  0.00    +0.000 C 
ATOM     19  O   UNL     1      45.713   7.807  11.740  0.00  0.00    +0.000 OA
ATOM     20  H   UNL     1      48.039   5.707  11.838  0.00  0.00    +0.000 HD
BRANCH  18  21
ATOM     21  C   UNL     1      45.690   5.649  10.818  0.00  0.00    +0.000 A 
ATOM     22  C   UNL     1      45.765   5.528   9.437  0.00  0.00    +0.000 A 
ATOM     23  S   UNL     1      44.965   4.152   8.827  0.00  0.00    +0.000 S 
ATOM     24  C   UNL     1      44.455   3.690  10.384  0.00  0.00    +0.000 A 
ATOM     25  N   UNL     1      43.678   2.592  10.568  0.00  0.00    +0.000 NA
ATOM     26  C   UNL     1      43.336   2.380  11.794  0.00  0.00    +0.000 A 
ATOM     27  N   UNL     1      43.718   3.160  12.859  0.00  0.00    +0.000 N 
ATOM     28  C   UNL     1      44.542   4.251  12.723  0.00  0.00    +0.000 A 
ATOM     29  O   UNL     1      44.935   4.884  13.696  0.00  0.00    +0.000 OA
ATOM     30  C   UNL     1      44.920   4.556  11.359  0.00  0.00    +0.000 A 
ATOM     31  H   UNL     1      43.433   2.926  13.797  0.00  0.00    +0.000 HD
ENDBRANCH  18  21
ENDBRANCH   2  17
TORSDOF 6
ENDMDL
MODEL 6
REMARK VINA RESULT:    -7.215      3.230      4.897
REMARK INTER + INTRA:         -10.824
REMARK INTER:                  -9.544
REMARK INTRA:                  -1.280
REMARK UNBOUND:                -1.078
REMARK  Name = 
REMARK  7 active torsions:
REMARK  status: ('A' for Active; 'I' for Inactive)
REMARK    1  A    between atoms: C_1  and  C_2
REMARK    2  A    between atoms: C_2  and  N_3
REMARK    3  A    between atoms: C_2  and  C_16
REMARK    4  A    between atoms: C_4  and  C_6
REMARK    5  A    between atoms: C_19  and  O_20
REMARK    6  A    between atoms: O_20  and  C_21
REMARK    7  A    between atoms: C_21  and  C_22
REMARK                            x       y       z     vdW  Elec       q    Type
REMARK                         _______ _______ _______ _____ _____    ______ ____
ROOT
ATOM      1  C   UNL     1      48.310   6.685  18.593  0.00  0.00    +0.000 C 
ATOM      2  C   UNL     1      49.195   6.217  17.430  0.00  0.00    +0.000 C 
ENDROOT
BRANCH   2   3
ATOM      3  C   UNL     1      48.320   5.601  16.351  0.00  0.00    +0.000 A 
ATOM      4  C   UNL     1      48.226   6.122  15.053  0.00  0.00    +0.000 A 
ATOM      5  C   UNL     1      47.398   5.509  14.111  0.00  0.00    +0.000 A 
ATOM      6  C   UNL     1      46.725   4.357  14.476  0.00  0.00    +0.000 A 
ATOM      7  N   UNL     1      46.810   3.807  15.706  0.00  0.00    +0.000 NA
ATOM      8  C   UNL     1      47.595   4.440  16.609  0.00  0.00    +0.000 A 
BRANCH   6   9
ATOM      9  O   UNL     1      45.894   3.786  13.529  0.00  0.00    +0.000 OA
BRANCH   9  10
ATOM     10  C   UNL     1      45.153   4.771  12.807  0.00  0.00    +0.000 C 
BRANCH  10  11
ATOM     11  C   UNL     1      45.167   4.447  11.331  0.00  0.00    +0.000 A 
ATOM     12  C   UNL     1      44.668   3.234  10.848  0.00  0.00    +0.000 A 
ATOM     13  C   UNL     1      44.650   3.018   9.477  0.00  0.00    +0.000 A 
ATOM     14  N   UNL     1      45.090   3.913   8.568  0.00  0.00    +0.000 NA
ATOM     15  C   UNL     1      45.571   5.078   9.052  0.00  0.00    +0.000 A 
ATOM     16  C   UNL     1      45.631   5.386  10.403  0.00  0.00    +0.000 A 
ENDBRANCH  10  11
ENDBRANCH   9  10
ENDBRANCH   6   9
ENDBRANCH   2   3
BRANCH   2  17
ATOM     17  N   UNL     1      50.229   5.284  17.860  0.00  0.00    +0.000 N 
ATOM     18  C   UNL     1      51.507   5.300  17.354  0.00  0.00    +0.000 C 
ATOM     19  O   UNL     1      51.879   6.117  16.519  0.00  0.00    +0.000 OA
ATOM     20  H   UNL     1      49.903   4.402  18.246  0.00  0.00    +0.000 HD
BRANCH  18  21
ATOM     21  C   UNL     1      52.442   4.319  17.918  0.00  0.00    +0.000 A 
ATOM     22  C   UNL     1      53.579   4.759  18.583  0.00  0.00    +0.000 A 
ATOM     23  S   UNL     1      54.552   3.494  19.182  0.00  0.00    +0.000 S 
ATOM     24  C   UNL     1      53.508   2.312  18.539  0.00  0.00    +0.000 A 
ATOM     25  N   UNL     1      53.788   0.990  18.665  0.00  0.00    +0.000 NA
ATOM     26  C   UNL     1      52.931   0.207  18.101  0.00  0.00    +0.000 A 
ATOM     27  N   UNL     1      51.807   0.630  17.434  0.00  0.00    +0.000 N 
ATOM     28  C   UNL     1      51.461   1.955  17.325  0.00  0.00    +0.000 A 
ATOM     29  O   UNL     1      50.412   2.304  16.796  0.00  0.00    +0.000 OA
ATOM     30  C   UNL     1      52.414   2.877  17.907  0.00  0.00    +0.000 A 
ATOM     31  H   UNL     1      51.165  -0.036  17.033  0.00  0.00    +0.000 HD
ENDBRANCH  18  21
ENDBRANCH   2  17
TORSDOF 6
ENDMDL
MODEL 7
REMARK VINA RESULT:    -7.086      3.199      8.420
REMARK INTER + INTRA:         -10.649
REMARK INTER:                  -9.503
REMARK INTRA:                  -1.147
REMARK UNBOUND:                -1.078
REMARK  Name = 
REMARK  7 active torsions:
REMARK  status: ('A' for Active; 'I' for Inactive)
REMARK    1  A    between atoms: C_1  and  C_2
REMARK    2  A    between atoms: C_2  and  N_3
REMARK    3  A    between atoms: C_2  and  C_16
REMARK    4  A    between atoms: C_4  and  C_6
REMARK    5  A    between atoms: C_19  and  O_20
REMARK    6  A    between atoms: O_20  and  C_21
REMARK    7  A    between atoms: C_21  and  C_22
REMARK                            x       y       z     vdW  Elec       q    Type
REMARK                         _______ _______ _______ _____ _____    ______ ____
ROOT
ATOM      1  C   UNL     1      48.752   7.795  11.696  0.00  0.00    +0.000 C 
ATOM      2  C   UNL     1      47.767   7.285  12.756  0.00  0.00    +0.000 C 
ENDROOT
BRANCH   2   3
ATOM      3  C   UNL     1      48.534   6.907  14.013  0.00  0.00    +0.000 A 
ATOM      4  C   UNL     1      49.750   7.504  14.374  0.00  0.00    +0.000 A 
ATOM      5  C   UNL     1      50.405   7.106  15.540  0.00  0.00    +0.000 A 
ATOM      6  C   UNL     1      49.801   6.157  16.345  0.00  0.00    +0.000 A 
ATOM      7  N   UNL     1      48.618   5.578  16.048  0.00  0.00    +0.000 NA
ATOM      8  C   UNL     1      48.020   5.960  14.894  0.00  0.00    +0.000 A 
BRANCH   6   9
ATOM      9  O   UNL     1      50.485   5.765  17.481  0.00  0.00    +0.000 OA
BRANCH   9  10
ATOM     10  C   UNL     1      50.011   4.514  17.984  0.00  0.00    +0.000 C 
BRANCH  10  11
ATOM     11  C   UNL     1      51.083   3.460  17.835  0.00  0.00    +0.000 A 
ATOM     12  C   UNL     1      52.425   3.745  18.103  0.00  0.00    +0.000 A 
ATOM     13  C   UNL     1      53.357   2.721  18.009  0.00  0.00    +0.000 A 
ATOM     14  N   UNL     1      53.048   1.451  17.671  0.00  0.00    +0.000 NA
ATOM     15  C   UNL     1      51.748   1.194  17.413  0.00  0.00    +0.000 A 
ATOM     16  C   UNL     1      50.745   2.150  17.479  0.00  0.00    +0.000 A 
ENDBRANCH  10  11
ENDBRANCH   9  10
ENDBRANCH   6   9
ENDBRANCH   2   3
BRANCH   2  17
ATOM     17  N   UNL     1      46.968   6.164  12.275  0.00  0.00    +0.000 N 
ATOM     18  C   UNL     1      45.593   6.169  12.284  0.00  0.00    +0.000 C 
ATOM     19  O   UNL     1      44.936   7.129  12.673  0.00  0.00    +0.000 OA
ATOM     20  H   UNL     1      47.419   5.254  12.291  0.00  0.00    +0.000 HD
BRANCH  18  21
ATOM     21  C   UNL     1      44.935   4.979  11.732  0.00  0.00    +0.000 A 
ATOM     22  C   UNL     1      44.130   4.199  12.550  0.00  0.00    +0.000 A 
ATOM     23  S   UNL     1      43.436   2.862  11.753  0.00  0.00    +0.000 S 
ATOM     24  C   UNL     1      44.221   3.255  10.293  0.00  0.00    +0.000 A 
ATOM     25  N   UNL     1      44.083   2.473   9.192  0.00  0.00    +0.000 NA
ATOM     26  C   UNL     1      44.760   2.869   8.168  0.00  0.00    +0.000 A 
ATOM     27  N   UNL     1      45.552   3.992   8.141  0.00  0.00    +0.000 N 
ATOM     28  C   UNL     1      45.681   4.837   9.217  0.00  0.00    +0.000 A 
ATOM     29  O   UNL     1      46.329   5.875   9.144  0.00  0.00    +0.000 OA
ATOM     30  C   UNL     1      44.973   4.412  10.406  0.00  0.00    +0.000 A 
ATOM     31  H   UNL     1      46.039   4.259   7.299  0.00  0.00    +0.000 HD
ENDBRANCH  18  21
ENDBRANCH   2  17
TORSDOF 6
ENDMDL
MODEL 8
REMARK VINA RESULT:    -6.968      2.370      4.136
REMARK INTER + INTRA:         -10.490
REMARK INTER:                 -10.102
REMARK INTRA:                  -0.388
REMARK UNBOUND:                -1.078
REMARK  Name = 
REMARK  7 active torsions:
REMARK  status: ('A' for Active; 'I' for Inactive)
REMARK    1  A    between atoms: C_1  and  C_2
REMARK    2  A    between atoms: C_2  and  N_3
REMARK    3  A    between atoms: C_2  and  C_16
REMARK    4  A    between atoms: C_4  and  C_6
REMARK    5  A    between atoms: C_19  and  O_20
REMARK    6  A    between atoms: O_20  and  C_21
REMARK    7  A    between atoms: C_21  and  C_22
REMARK                            x       y       z     vdW  Elec       q    Type
REMARK                         _______ _______ _______ _____ _____    ______ ____
ROOT
ATOM      1  C   UNL     1      47.279   3.980  14.731  0.00  0.00    +0.000 C 
ATOM      2  C   UNL     1      46.434   5.139  14.188  0.00  0.00    +0.000 C 
ENDROOT
BRANCH   2   3
ATOM      3  C   UNL     1      45.858   4.749  12.836  0.00  0.00    +0.000 A 
ATOM      4  C   UNL     1      45.791   5.633  11.750  0.00  0.00    +0.000 A 
ATOM      5  C   UNL     1      45.244   5.211  10.537  0.00  0.00    +0.000 A 
ATOM      6  C   UNL     1      44.824   3.898  10.425  0.00  0.00    +0.000 A 
ATOM      7  N   UNL     1      44.896   3.007  11.437  0.00  0.00    +0.000 NA
ATOM      8  C   UNL     1      45.403   3.453  12.612  0.00  0.00    +0.000 A 
BRANCH   6   9
ATOM      9  O   UNL     1      44.265   3.515   9.219  0.00  0.00    +0.000 OA
BRANCH   9  10
ATOM     10  C   UNL     1      44.990   4.041   8.106  0.00  0.00    +0.000 C 
BRANCH  10  11
ATOM     11  C   UNL     1      46.017   3.035   7.639  0.00  0.00    +0.000 A 
ATOM     12  C   UNL     1      47.113   3.423   6.864  0.00  0.00    +0.000 A 
ATOM     13  C   UNL     1      48.057   2.466   6.516  0.00  0.00    +0.000 A 
ATOM     14  N   UNL     1      47.983   1.168   6.882  0.00  0.00    +0.000 NA
ATOM     15  C   UNL     1      46.917   0.812   7.627  0.00  0.00    +0.000 A 
ATOM     16  C   UNL     1      45.922   1.693   8.024  0.00  0.00    +0.000 A 
ENDBRANCH  10  11
ENDBRANCH   9  10
ENDBRANCH   6   9
ENDBRANCH   2   3
BRANCH   2  17
ATOM     17  N   UNL     1      47.191   6.382  14.094  0.00  0.00    +0.000 N 
ATOM     18  C   UNL     1      48.259   6.669  14.910  0.00  0.00    +0.000 C 
ATOM     19  O   UNL     1      48.670   5.890  15.763  0.00  0.00    +0.000 OA
ATOM     20  H   UNL     1      46.700   7.175  13.690  0.00  0.00    +0.000 HD
BRANCH  18  21
ATOM     21  C   UNL     1      48.940   7.946  14.664  0.00  0.00    +0.000 A 
ATOM     22  C   UNL     1      49.008   8.893  15.678  0.00  0.00    +0.000 A 
ATOM     23  S   UNL     1      49.839  10.313  15.231  0.00  0.00    +0.000 S 
ATOM     24  C   UNL     1      50.102   9.729  13.653  0.00  0.00    +0.000 A 
ATOM     25  N   UNL     1      50.737  10.487  12.723  0.00  0.00    +0.000 NA
ATOM     26  C   UNL     1      50.837   9.935  11.562  0.00  0.00    +0.000 A 
ATOM     27  N   UNL     1      50.372   8.680  11.250  0.00  0.00    +0.000 N 
ATOM     28  C   UNL     1      49.767   7.861  12.172  0.00  0.00    +0.000 A 
ATOM     29  O   UNL     1      49.433   6.716  11.893  0.00  0.00    +0.000 OA
ATOM     30  C   UNL     1      49.593   8.452  13.483  0.00  0.00    +0.000 A 
ATOM     31  H   UNL     1      50.502   8.298  10.326  0.00  0.00    +0.000 HD
ENDBRANCH  18  21
ENDBRANCH   2  17
TORSDOF 6
ENDMDL
MODEL 9
REMARK VINA RESULT:    -6.959      4.071      6.493
REMARK INTER + INTRA:         -10.479
REMARK INTER:                  -9.302
REMARK INTRA:                  -1.177
REMARK UNBOUND:                -1.078
REMARK  Name = 
REMARK  7 active torsions:
REMARK  status: ('A' for Active; 'I' for Inactive)
REMARK    1  A    between atoms: C_1  and  C_2
REMARK    2  A    between atoms: C_2  and  N_3
REMARK    3  A    between atoms: C_2  and  C_16
REMARK    4  A    between atoms: C_4  and  C_6
REMARK    5  A    between atoms: C_19  and  O_20
REMARK    6  A    between atoms: O_20  and  C_21
REMARK    7  A    between atoms: C_21  and  C_22
REMARK                            x       y       z     vdW  Elec       q    Type
REMARK                         _______ _______ _______ _____ _____    ______ ____
ROOT
ATOM      1  C   UNL     1      48.940   4.773  20.408  0.00  0.00    +0.000 C 
ATOM      2  C   UNL     1      49.807   4.864  19.146  0.00  0.00    +0.000 C 
ENDROOT
BRANCH   2   3
ATOM      3  C   UNL     1      48.965   4.505  17.932  0.00  0.00    +0.000 A 
ATOM      4  C   UNL     1      48.211   3.327  17.846  0.00  0.00    +0.000 A 
ATOM      5  C   UNL     1      47.464   3.056  16.698  0.00  0.00    +0.000 A 
ATOM      6  C   UNL     1      47.448   3.998  15.685  0.00  0.00    +0.000 A 
ATOM      7  N   UNL     1      48.137   5.158  15.739  0.00  0.00    +0.000 NA
ATOM      8  C   UNL     1      48.879   5.380  16.851  0.00  0.00    +0.000 A 
BRANCH   6   9
ATOM      9  O   UNL     1      46.718   3.692  14.551  0.00  0.00    +0.000 OA
BRANCH   9  10
ATOM     10  C   UNL     1      46.258   4.867  13.881  0.00  0.00    +0.000 C 
BRANCH  10  11
ATOM     11  C   UNL     1      45.067   4.532  13.012  0.00  0.00    +0.000 A 
ATOM     12  C   UNL     1      43.952   5.373  12.953  0.00  0.00    +0.000 A 
ATOM     13  C   UNL     1      42.915   5.045  12.090  0.00  0.00    +0.000 A 
ATOM     14  N   UNL     1      42.912   3.954  11.296  0.00  0.00    +0.000 NA
ATOM     15  C   UNL     1      43.995   3.153  11.369  0.00  0.00    +0.000 A 
ATOM     16  C   UNL     1      45.080   3.394  12.199  0.00  0.00    +0.000 A 
ENDBRANCH  10  11
ENDBRANCH   9  10
ENDBRANCH   6   9
ENDBRANCH   2   3
BRANCH   2  17
ATOM     17  N   UNL     1      50.994   4.020  19.226  0.00  0.00    +0.000 N 
ATOM     18  C   UNL     1      52.175   4.330  18.596  0.00  0.00    +0.000 C 
ATOM     19  O   UNL     1      52.326   5.354  17.938  0.00  0.00    +0.000 OA
ATOM     20  H   UNL     1      50.830   3.038  19.429  0.00  0.00    +0.000 HD
BRANCH  18  21
ATOM     21  C   UNL     1      53.288   3.397  18.805  0.00  0.00    +0.000 A 
ATOM     22  C   UNL     1      54.436   3.834  19.452  0.00  0.00    +0.000 A 
ATOM     23  S   UNL     1      55.627   2.626  19.621  0.00  0.00    +0.000 S 
ATOM     24  C   UNL     1      54.666   1.486  18.799  0.00  0.00    +0.000 A 
ATOM     25  N   UNL     1      55.121   0.229  18.560  0.00  0.00    +0.000 NA
ATOM     26  C   UNL     1      54.304  -0.517  17.898  0.00  0.00    +0.000 A 
ATOM     27  N   UNL     1      53.060  -0.124  17.466  0.00  0.00    +0.000 N 
ATOM     28  C   UNL     1      52.542   1.121  17.727  0.00  0.00    +0.000 A 
ATOM     29  O   UNL     1      51.399   1.422  17.402  0.00  0.00    +0.000 OA
ATOM     30  C   UNL     1      53.438   2.012  18.433  0.00  0.00    +0.000 A 
ATOM     31  H   UNL     1      52.461  -0.766  16.970  0.00  0.00    +0.000 HD
ENDBRANCH  18  21
ENDBRANCH   2  17
TORSDOF 6
ENDMDL
