MODEL 1
REMARK VINA RESULT:    -7.674      0.000      0.000
REMARK INTER + INTRA:         -11.148
REMARK INTER:                 -10.366
REMARK INTRA:                  -0.782
REMARK UNBOUND:                -0.782
REMARK  Name = 
REMARK  6 active torsions:
REMARK  status: ('A' for Active; 'I' for Inactive)
REMARK    1  A    between atoms: C_2  and  C_3
REMARK    2  A    between atoms: C_7  and  O_8
REMARK    3  A    between atoms: O_8  and  C_9
REMARK    4  A    between atoms: C_12  and  C_13
REMARK    5  A    between atoms: C_13  and  N_14
REMARK    6  A    between atoms: C_15  and  C_17
REMARK                            x       y       z     vdW  Elec       q    Type
REMARK                         _______ _______ _______ _____ _____    ______ ____
ROOT
ATOM      1  C   UNL     1      47.422   8.387  13.671  0.00  0.00    +0.000 C 
ENDROOT
BRANCH   1   5
ATOM      2  C   UNL     1      44.751   6.278  11.148  0.00  0.00    +0.000 A 
ATOM      3  C   UNL     1      45.912   5.626  11.532  0.00  0.00    +0.000 A 
ATOM      4  C   UNL     1      46.814   6.307  12.346  0.00  0.00    +0.000 A 
ATOM      5  C   UNL     1      46.525   7.614  12.752  0.00  0.00    +0.000 A 
ATOM      6  C   UNL     1      45.372   8.201  12.245  0.00  0.00    +0.000 A 
ATOM      7  N   UNL     1      44.486   7.570  11.452  0.00  0.00    +0.000 NA
BRANCH   2   8
ATOM      8  O   UNL     1      43.829   5.548  10.408  0.00  0.00    +0.000 OA
BRANCH   8  13
ATOM      9  C   UNL     1      45.463   3.219   8.119  0.00  0.00    +0.000 A 
ATOM     10  C   UNL     1      45.184   1.982   8.712  0.00  0.00    +0.000 A 
ATOM     11  C   UNL     1      44.451   1.927   9.897  0.00  0.00    +0.000 A 
ATOM     12  C   UNL     1      43.996   3.104  10.489  0.00  0.00    +0.000 A 
ATOM     13  C   UNL     1      44.238   4.342   9.881  0.00  0.00    +0.000 A 
ATOM     14  C   UNL     1      44.996   4.400   8.709  0.00  0.00    +0.000 A 
BRANCH   9  16
ATOM     15  N   UNL     1      46.838   3.321   5.921  0.00  0.00    +0.000 NA
ATOM     16  C   UNL     1      46.224   3.275   6.907  0.00  0.00    +0.000 C 
ENDBRANCH   9  16
ENDBRANCH   8  13
ENDBRANCH   2   8
ENDBRANCH   1   5
BRANCH   1  17
ATOM     17  N   UNL     1      47.776   7.612  14.828  0.00  0.00    +0.000 N 
ATOM     18  C   UNL     1      48.997   6.993  14.920  0.00  0.00    +0.000 C 
ATOM     19  O   UNL     1      49.849   7.107  14.043  0.00  0.00    +0.000 OA
ATOM     20  H   UNL     1      47.022   7.305  15.436  0.00  0.00    +0.000 HD
BRANCH  18  21
ATOM     21  C   UNL     1      49.254   6.247  16.155  0.00  0.00    +0.000 A 
ATOM     22  C   UNL     1      50.283   6.647  16.998  0.00  0.00    +0.000 A 
ATOM     23  S   UNL     1      50.388   5.724  18.428  0.00  0.00    +0.000 S 
ATOM     24  C   UNL     1      49.102   4.721  17.943  0.00  0.00    +0.000 A 
ATOM     25  N   UNL     1      48.684   3.689  18.723  0.00  0.00    +0.000 NA
ATOM     26  C   UNL     1      47.727   2.986  18.214  0.00  0.00    +0.000 A 
ATOM     27  N   UNL     1      47.148   3.226  16.994  0.00  0.00    +0.000 N 
ATOM     28  C   UNL     1      47.512   4.277  16.188  0.00  0.00    +0.000 A 
ATOM     29  O   UNL     1      46.941   4.497  15.125  0.00  0.00    +0.000 OA
ATOM     30  C   UNL     1      48.592   5.091  16.711  0.00  0.00    +0.000 A 
ATOM     31  H   UNL     1      46.398   2.639  16.655  0.00  0.00    +0.000 HD
ENDBRANCH  18  21
ENDBRANCH   1  17
TORSDOF 6
ENDMDL
MODEL 2
REMARK VINA RESULT:    -7.611      1.393      2.011
REMARK INTER + INTRA:         -11.062
REMARK INTER:                 -10.333
REMARK INTRA:                  -0.729
REMARK UNBOUND:                -0.782
REMARK  Name = 
REMARK  6 active torsions:
REMARK  status: ('A' for Active; 'I' for Inactive)
REMARK    1  A    between atoms: C_2  and  C_3
REMARK    2  A    between atoms: C_7  and  O_8
REMARK    3  A    between atoms: O_8  and  C_9
REMARK    4  A    between atoms: C_12  and  C_13
REMARK    5  A    between atoms: C_13  and  N_14
REMARK    6  A    between atoms: C_15  and  C_17
REMARK                            x       y       z     vdW  Elec       q    Type
REMARK                         _______ _______ _______ _____ _____    ______ ____
ROOT
ATOM      1  C   UNL     1      46.653   7.879  13.269  0.00  0.00    +0.000 C 
ENDROOT
BRANCH   1   5
ATOM      2  C   UNL     1      44.959   4.906  10.771  0.00  0.00    +0.000 A 
ATOM      3  C   UNL     1      44.443   6.188  10.674  0.00  0.00    +0.000 A 
ATOM      4  C   UNL     1      44.972   7.178  11.499  0.00  0.00    +0.000 A 
ATOM      5  C   UNL     1      46.000   6.854  12.390  0.00  0.00    +0.000 A 
ATOM      6  C   UNL     1      46.389   5.522  12.464  0.00  0.00    +0.000 A 
ATOM      7  N   UNL     1      45.891   4.544  11.684  0.00  0.00    +0.000 NA
BRANCH   2   8
ATOM      8  O   UNL     1      44.476   3.957   9.877  0.00  0.00    +0.000 OA
BRANCH   8  13
ATOM      9  C   UNL     1      46.360   1.622   7.797  0.00  0.00    +0.000 A 
ATOM     10  C   UNL     1      46.980   2.480   6.881  0.00  0.00    +0.000 A 
ATOM     11  C   UNL     1      46.756   3.855   6.953  0.00  0.00    +0.000 A 
ATOM     12  C   UNL     1      45.916   4.372   7.938  0.00  0.00    +0.000 A 
ATOM     13  C   UNL     1      45.324   3.523   8.880  0.00  0.00    +0.000 A 
ATOM     14  C   UNL     1      45.526   2.144   8.792  0.00  0.00    +0.000 A 
BRANCH   9  16
ATOM     15  N   UNL     1      46.763  -0.937   7.648  0.00  0.00    +0.000 NA
ATOM     16  C   UNL     1      46.584   0.209   7.716  0.00  0.00    +0.000 C 
ENDBRANCH   9  16
ENDBRANCH   8  13
ENDBRANCH   2   8
ENDBRANCH   1   5
BRANCH   1  17
ATOM     17  N   UNL     1      47.206   7.276  14.450  0.00  0.00    +0.000 N 
ATOM     18  C   UNL     1      48.540   6.969  14.530  0.00  0.00    +0.000 C 
ATOM     19  O   UNL     1      49.322   7.231  13.620  0.00  0.00    +0.000 OA
ATOM     20  H   UNL     1      46.560   6.835  15.099  0.00  0.00    +0.000 HD
BRANCH  18  21
ATOM     21  C   UNL     1      48.995   6.376  15.792  0.00  0.00    +0.000 A 
ATOM     22  C   UNL     1      50.066   6.942  16.470  0.00  0.00    +0.000 A 
ATOM     23  S   UNL     1      50.407   6.181  17.958  0.00  0.00    +0.000 S 
ATOM     24  C   UNL     1      49.174   5.034  17.718  0.00  0.00    +0.000 A 
ATOM     25  N   UNL     1      48.937   4.056  18.634  0.00  0.00    +0.000 NA
ATOM     26  C   UNL     1      48.000   3.230  18.305  0.00  0.00    +0.000 A 
ATOM     27  N   UNL     1      47.275   3.296  17.142  0.00  0.00    +0.000 N 
ATOM     28  C   UNL     1      47.454   4.285  16.206  0.00  0.00    +0.000 A 
ATOM     29  O   UNL     1      46.755   4.349  15.200  0.00  0.00    +0.000 OA
ATOM     30  C   UNL     1      48.505   5.233  16.524  0.00  0.00    +0.000 A 
ATOM     31  H   UNL     1      46.551   2.620  16.947  0.00  0.00    +0.000 HD
ENDBRANCH  18  21
ENDBRANCH   1  17
TORSDOF 6
ENDMDL
MODEL 3
REMARK VINA RESULT:    -7.409      2.551      4.328
REMARK INTER + INTRA:         -10.790
REMARK INTER:                  -9.739
REMARK INTRA:                  -1.050
REMARK UNBOUND:                -0.782
REMARK  Name = 
REMARK  6 active torsions:
REMARK  status: ('A' for Active; 'I' for Inactive)
REMARK    1  A    between atoms: C_2  and  C_3
REMARK    2  A    between atoms: C_7  and  O_8
REMARK    3  A    between atoms: O_8  and  C_9
REMARK    4  A    between atoms: C_12  and  C_13
REMARK    5  A    between atoms: C_13  and  N_14
REMARK    6  A    between atoms: C_15  and  C_17
REMARK                            x       y       z     vdW  Elec       q    Type
REMARK                         _______ _______ _______ _____ _____    ______ ____
ROOT
ATOM      1  C   UNL     1      46.960   4.966  14.757  0.00  0.00    +0.000 C 
ENDROOT
BRANCH   1   5
ATOM      2  C   UNL     1      45.019   4.205  11.069  0.00  0.00    +0.000 A 
ATOM      3  C   UNL     1      45.330   5.523  11.364  0.00  0.00    +0.000 A 
ATOM      4  C   UNL     1      45.951   5.799  12.580  0.00  0.00    +0.000 A 
ATOM      5  C   UNL     1      46.244   4.750  13.457  0.00  0.00    +0.000 A 
ATOM      6  C   UNL     1      45.819   3.477  13.098  0.00  0.00    +0.000 A 
ATOM      7  N   UNL     1      45.210   3.182  11.934  0.00  0.00    +0.000 NA
BRANCH   2   8
ATOM      8  O   UNL     1      44.479   3.947   9.815  0.00  0.00    +0.000 OA
BRANCH   8  13
ATOM      9  C   UNL     1      46.386   1.618   7.747  0.00  0.00    +0.000 A 
ATOM     10  C   UNL     1      47.009   2.479   6.835  0.00  0.00    +0.000 A 
ATOM     11  C   UNL     1      46.778   3.853   6.904  0.00  0.00    +0.000 A 
ATOM     12  C   UNL     1      45.930   4.366   7.884  0.00  0.00    +0.000 A 
ATOM     13  C   UNL     1      45.335   3.516   8.823  0.00  0.00    +0.000 A 
ATOM     14  C   UNL     1      45.543   2.137   8.736  0.00  0.00    +0.000 A 
BRANCH   9  16
ATOM     15  N   UNL     1      46.802  -0.938   7.600  0.00  0.00    +0.000 NA
ATOM     16  C   UNL     1      46.617   0.207   7.668  0.00  0.00    +0.000 C 
ENDBRANCH   9  16
ENDBRANCH   8  13
ENDBRANCH   2   8
ENDBRANCH   1   5
BRANCH   1  17
ATOM     17  N   UNL     1      47.648   6.228  14.770  0.00  0.00    +0.000 N 
ATOM     18  C   UNL     1      48.767   6.416  15.541  0.00  0.00    +0.000 C 
ATOM     19  O   UNL     1      49.250   5.510  16.215  0.00  0.00    +0.000 OA
ATOM     20  H   UNL     1      47.144   7.041  14.427  0.00  0.00    +0.000 HD
BRANCH  18  21
ATOM     21  C   UNL     1      49.396   7.737  15.458  0.00  0.00    +0.000 A 
ATOM     22  C   UNL     1      49.586   8.482  16.614  0.00  0.00    +0.000 A 
ATOM     23  S   UNL     1      50.406   9.953  16.349  0.00  0.00    +0.000 S 
ATOM     24  C   UNL     1      50.484   9.673  14.673  0.00  0.00    +0.000 A 
ATOM     25  N   UNL     1      51.060  10.577  13.836  0.00  0.00    +0.000 NA
ATOM     26  C   UNL     1      51.012  10.256  12.585  0.00  0.00    +0.000 A 
ATOM     27  N   UNL     1      50.442   9.108  12.097  0.00  0.00    +0.000 N 
ATOM     28  C   UNL     1      49.882   8.150  12.905  0.00  0.00    +0.000 A 
ATOM     29  O   UNL     1      49.425   7.108  12.445  0.00  0.00    +0.000 OA
ATOM     30  C   UNL     1      49.900   8.470  14.320  0.00  0.00    +0.000 A 
ATOM     31  H   UNL     1      50.443   8.913  11.105  0.00  0.00    +0.000 HD
ENDBRANCH  18  21
ENDBRANCH   1  17
TORSDOF 6
ENDMDL
MODEL 4
REMARK VINA RESULT:    -7.153      3.096      4.404
REMARK INTER + INTRA:         -10.444
REMARK INTER:                  -9.367
REMARK INTRA:                  -1.077
REMARK UNBOUND:                -0.782
REMARK  Name = 
REMARK  6 active torsions:
REMARK  status: ('A' for Active; 'I' for Inactive)
REMARK    1  A    between atoms: C_2  and  C_3
REMARK    2  A    between atoms: C_7  and  O_8
REMARK    3  A    between atoms: O_8  and  C_9
REMARK    4  A    between atoms: C_12  and  C_13
REMARK    5  A    between atoms: C_13  and  N_14
REMARK    6  A    between atoms: C_15  and  C_17
REMARK                            x       y       z     vdW  Elec       q    Type
REMARK                         _______ _______ _______ _____ _____    ______ ____
ROOT
ATOM      1  C   UNL     1      49.076   6.124  17.491  0.00  0.00    +0.000 C 
ENDROOT
BRANCH   1   5
ATOM      2  C   UNL     1      46.830   4.118  14.511  0.00  0.00    +0.000 A 
ATOM      3  C   UNL     1      47.483   5.283  14.140  0.00  0.00    +0.000 A 
ATOM      4  C   UNL     1      48.212   5.969  15.108  0.00  0.00    +0.000 A 
ATOM      5  C   UNL     1      48.268   5.468  16.412  0.00  0.00    +0.000 A 
ATOM      6  C   UNL     1      47.513   4.337  16.697  0.00  0.00    +0.000 A 
ATOM      7  N   UNL     1      46.794   3.657  15.784  0.00  0.00    +0.000 NA
BRANCH   2   8
ATOM      8  O   UNL     1      46.183   3.406  13.509  0.00  0.00    +0.000 OA
BRANCH   8  13
ATOM      9  C   UNL     1      44.460   4.489  10.476  0.00  0.00    +0.000 A 
ATOM     10  C   UNL     1      43.486   5.355  10.987  0.00  0.00    +0.000 A 
ATOM     11  C   UNL     1      43.395   5.569  12.362  0.00  0.00    +0.000 A 
ATOM     12  C   UNL     1      44.277   4.922  13.226  0.00  0.00    +0.000 A 
ATOM     13  C   UNL     1      45.280   4.086  12.719  0.00  0.00    +0.000 A 
ATOM     14  C   UNL     1      45.353   3.849  11.345  0.00  0.00    +0.000 A 
BRANCH   9  16
ATOM     15  N   UNL     1      44.619   4.080   7.920  0.00  0.00    +0.000 NA
ATOM     16  C   UNL     1      44.546   4.263   9.065  0.00  0.00    +0.000 C 
ENDBRANCH   9  16
ENDBRANCH   8  13
ENDBRANCH   2   8
ENDBRANCH   1   5
BRANCH   1  17
ATOM     17  N   UNL     1      50.130   5.262  17.950  0.00  0.00    +0.000 N 
ATOM     18  C   UNL     1      51.371   5.289  17.366  0.00  0.00    +0.000 C 
ATOM     19  O   UNL     1      51.646   6.072  16.461  0.00  0.00    +0.000 OA
ATOM     20  H   UNL     1      49.868   4.457  18.511  0.00  0.00    +0.000 HD
BRANCH  18  21
ATOM     21  C   UNL     1      52.373   4.380  17.931  0.00  0.00    +0.000 A 
ATOM     22  C   UNL     1      53.486   4.900  18.578  0.00  0.00    +0.000 A 
ATOM     23  S   UNL     1      54.503   3.706  19.248  0.00  0.00    +0.000 S 
ATOM     24  C   UNL     1      53.524   2.453  18.645  0.00  0.00    +0.000 A 
ATOM     25  N   UNL     1      53.846   1.148  18.853  0.00  0.00    +0.000 NA
ATOM     26  C   UNL     1      53.038   0.303  18.304  0.00  0.00    +0.000 A 
ATOM     27  N   UNL     1      51.933   0.646  17.568  0.00  0.00    +0.000 N 
ATOM     28  C   UNL     1      51.547   1.948  17.362  0.00  0.00    +0.000 A 
ATOM     29  O   UNL     1      50.525   2.224  16.743  0.00  0.00    +0.000 OA
ATOM     30  C   UNL     1      52.431   2.938  17.950  0.00  0.00    +0.000 A 
ATOM     31  H   UNL     1      51.337  -0.067  17.169  0.00  0.00    +0.000 HD
ENDBRANCH  18  21
ENDBRANCH   1  17
TORSDOF 6
ENDMDL
MODEL 5
REMARK VINA RESULT:    -7.130      2.567      8.124
REMARK INTER + INTRA:         -10.413
REMARK INTER:                  -9.382
REMARK INTRA:                  -1.031
REMARK UNBOUND:                -0.782
REMARK  Name = 
REMARK  6 active torsions:
REMARK  status: ('A' for Active; 'I' for Inactive)
REMARK    1  A    between atoms: C_2  and  C_3
REMARK    2  A    between atoms: C_7  and  O_8
REMARK    3  A    between atoms: O_8  and  C_9
REMARK    4  A    between atoms: C_12  and  C_13
REMARK    5  A    between atoms: C_13  and  N_14
REMARK    6  A    between atoms: C_15  and  C_17
REMARK                            x       y       z     vdW  Elec       q    Type
REMARK                         _______ _______ _______ _____ _____    ______ ____
ROOT
ATOM      1  C   UNL     1      47.119   7.936  11.728  0.00  0.00    +0.000 C 
ENDROOT
BRANCH   1   5
ATOM      2  C   UNL     1      49.472   7.661  15.239  0.00  0.00    +0.000 A 
ATOM      3  C   UNL     1      48.395   8.532  15.262  0.00  0.00    +0.000 A 
ATOM      4  C   UNL     1      47.618   8.653  14.112  0.00  0.00    +0.000 A 
ATOM      5  C   UNL     1      47.941   7.898  12.981  0.00  0.00    +0.000 A 
ATOM      6  C   UNL     1      49.087   7.115  13.039  0.00  0.00    +0.000 A 
ATOM      7  N   UNL     1      49.861   6.984  14.133  0.00  0.00    +0.000 NA
BRANCH   2   8
ATOM      8  O   UNL     1      50.178   7.494  16.424  0.00  0.00    +0.000 OA
BRANCH   8  13
ATOM      9  C   UNL     1      49.067   4.178  17.477  0.00  0.00    +0.000 A 
ATOM     10  C   UNL     1      50.254   3.609  17.951  0.00  0.00    +0.000 A 
ATOM     11  C   UNL     1      51.443   4.337  17.907  0.00  0.00    +0.000 A 
ATOM     12  C   UNL     1      51.445   5.632  17.393  0.00  0.00    +0.000 A 
ATOM     13  C   UNL     1      50.254   6.222  16.953  0.00  0.00    +0.000 A 
ATOM     14  C   UNL     1      49.069   5.483  16.970  0.00  0.00    +0.000 A 
BRANCH   9  16
ATOM     15  N   UNL     1      46.863   2.811  17.543  0.00  0.00    +0.000 NA
ATOM     16  C   UNL     1      47.849   3.425  17.513  0.00  0.00    +0.000 C 
ENDBRANCH   9  16
ENDBRANCH   8  13
ENDBRANCH   2   8
ENDBRANCH   1   5
BRANCH   1  17
ATOM     17  N   UNL     1      46.529   6.655  11.452  0.00  0.00    +0.000 N 
ATOM     18  C   UNL     1      45.224   6.390  11.783  0.00  0.00    +0.000 C 
ATOM     19  O   UNL     1      44.497   7.242  12.288  0.00  0.00    +0.000 OA
ATOM     20  H   UNL     1      47.157   5.878  11.269  0.00  0.00    +0.000 HD
BRANCH  18  21
ATOM     21  C   UNL     1      44.725   5.056  11.434  0.00  0.00    +0.000 A 
ATOM     22  C   UNL     1      43.988   4.334  12.363  0.00  0.00    +0.000 A 
ATOM     23  S   UNL     1      43.414   2.843  11.765  0.00  0.00    +0.000 S 
ATOM     24  C   UNL     1      44.182   3.085  10.266  0.00  0.00    +0.000 A 
ATOM     25  N   UNL     1      44.103   2.153   9.279  0.00  0.00    +0.000 NA
ATOM     26  C   UNL     1      44.766   2.447   8.210  0.00  0.00    +0.000 A 
ATOM     27  N   UNL     1      45.499   3.594   8.039  0.00  0.00    +0.000 N 
ATOM     28  C   UNL     1      45.578   4.579   8.992  0.00  0.00    +0.000 A 
ATOM     29  O   UNL     1      46.199   5.618   8.791  0.00  0.00    +0.000 OA
ATOM     30  C   UNL     1      44.858   4.290  10.218  0.00  0.00    +0.000 A 
ATOM     31  H   UNL     1      45.992   3.766   7.174  0.00  0.00    +0.000 HD
ENDBRANCH  18  21
ENDBRANCH   1  17
TORSDOF 6
ENDMDL
MODEL 6
REMARK VINA RESULT:    -6.951      3.430      8.668
REMARK INTER + INTRA:         -10.171
REMARK INTER:                  -9.181
REMARK INTRA:                  -0.990
REMARK UNBOUND:                -0.782
REMARK  Name = 
REMARK  6 active torsions:
REMARK  status: ('A' for Active; 'I' for Inactive)
REMARK    1  A    between atoms: C_2  and  C_3
REMARK    2  A    between atoms: C_7  and  O_8
REMARK    3  A    between atoms: O_8  and  C_9
REMARK    4  A    between atoms: C_12  and  C_13
REMARK    5  A    between atoms: C_13  and  N_14
REMARK    6  A    between atoms: C_15  and  C_17
REMARK                            x       y       z     vdW  Elec       q    Type
REMARK                         _______ _______ _______ _____ _____    ______ ____
ROOT
ATOM      1  C   UNL     1      47.332   3.437  16.574  0.00  0.00    +0.000 C 
ENDROOT
BRANCH   1   5
ATOM      2  C   UNL     1      51.074   4.811  18.005  0.00  0.00    +0.000 A 
ATOM      3  C   UNL     1      50.963   3.462  17.708  0.00  0.00    +0.000 A 
ATOM      4  C   UNL     1      49.736   2.984  17.254  0.00  0.00    +0.000 A 
ATOM      5  C   UNL     1      48.664   3.870  17.108  0.00  0.00    +0.000 A 
ATOM      6  C   UNL     1      48.860   5.186  17.509  0.00  0.00    +0.000 A 
ATOM      7  N   UNL     1      50.032   5.674  17.958  0.00  0.00    +0.000 NA
BRANCH   2   8
ATOM      8  O   UNL     1      52.330   5.279  18.373  0.00  0.00    +0.000 OA
BRANCH   8  13
ATOM      9  C   UNL     1      53.932   6.716  15.423  0.00  0.00    +0.000 A 
ATOM     10  C   UNL     1      55.101   5.954  15.325  0.00  0.00    +0.000 A 
ATOM     11  C   UNL     1      55.364   4.956  16.263  0.00  0.00    +0.000 A 
ATOM     12  C   UNL     1      54.459   4.718  17.296  0.00  0.00    +0.000 A 
ATOM     13  C   UNL     1      53.269   5.450  17.378  0.00  0.00    +0.000 A 
ATOM     14  C   UNL     1      53.019   6.468  16.455  0.00  0.00    +0.000 A 
BRANCH   9  16
ATOM     15  N   UNL     1      53.453   8.581  13.685  0.00  0.00    +0.000 NA
ATOM     16  C   UNL     1      53.668   7.747  14.464  0.00  0.00    +0.000 C 
ENDBRANCH   9  16
ENDBRANCH   8  13
ENDBRANCH   2   8
ENDBRANCH   1   5
BRANCH   1  17
ATOM     17  N   UNL     1      46.784   4.419  15.679  0.00  0.00    +0.000 N 
ATOM     18  C   UNL     1      46.783   4.217  14.322  0.00  0.00    +0.000 C 
ATOM     19  O   UNL     1      47.207   3.180  13.820  0.00  0.00    +0.000 OA
ATOM     20  H   UNL     1      46.659   5.361  16.036  0.00  0.00    +0.000 HD
BRANCH  18  21
ATOM     21  C   UNL     1      46.180   5.278  13.510  0.00  0.00    +0.000 A 
ATOM     22  C   UNL     1      46.873   6.463  13.302  0.00  0.00    +0.000 A 
ATOM     23  S   UNL     1      46.065   7.551  12.267  0.00  0.00    +0.000 S 
ATOM     24  C   UNL     1      44.735   6.503  12.110  0.00  0.00    +0.000 A 
ATOM     25  N   UNL     1      43.657   6.845  11.355  0.00  0.00    +0.000 NA
ATOM     26  C   UNL     1      42.703   5.974  11.357  0.00  0.00    +0.000 A 
ATOM     27  N   UNL     1      42.732   4.788  12.045  0.00  0.00    +0.000 N 
ATOM     28  C   UNL     1      43.813   4.383  12.791  0.00  0.00    +0.000 A 
ATOM     29  O   UNL     1      43.832   3.294  13.354  0.00  0.00    +0.000 OA
ATOM     30  C   UNL     1      44.908   5.334  12.829  0.00  0.00    +0.000 A 
ATOM     31  H   UNL     1      41.953   4.147  12.001  0.00  0.00    +0.000 HD
ENDBRANCH  18  21
ENDBRANCH   1  17
TORSDOF 6
ENDMDL
MODEL 7
REMARK VINA RESULT:    -6.911      2.948      7.739
REMARK INTER + INTRA:         -10.117
REMARK INTER:                  -9.158
REMARK INTRA:                  -0.960
REMARK UNBOUND:                -0.782
REMARK  Name = 
REMARK  6 active torsions:
REMARK  status: ('A' for Active; 'I' for Inactive)
REMARK    1  A    between atoms: C_2  and  C_3
REMARK    2  A    between atoms: C_7  and  O_8
REMARK    3  A    between atoms: O_8  and  C_9
REMARK    4  A    between atoms: C_12  and  C_13
REMARK    5  A    between atoms: C_13  and  N_14
REMARK    6  A    between atoms: C_15  and  C_17
REMARK                            x       y       z     vdW  Elec       q    Type
REMARK                         _______ _______ _______ _____ _____    ______ ____
ROOT
ATOM      1  C   UNL     1      47.714   8.750  12.181  0.00  0.00    +0.000 C 
ENDROOT
BRANCH   1   5
ATOM      2  C   UNL     1      49.794   7.619  15.694  0.00  0.00    +0.000 A 
ATOM      3  C   UNL     1      48.894   8.668  15.797  0.00  0.00    +0.000 A 
ATOM      4  C   UNL     1      48.212   9.069  14.650  0.00  0.00    +0.000 A 
ATOM      5  C   UNL     1      48.450   8.408  13.441  0.00  0.00    +0.000 A 
ATOM      6  C   UNL     1      49.430   7.423  13.431  0.00  0.00    +0.000 A 
ATOM      7  N   UNL     1      50.109   7.020  14.522  0.00  0.00    +0.000 NA
BRANCH   2   8
ATOM      8  O   UNL     1      50.396   7.182  16.867  0.00  0.00    +0.000 OA
BRANCH   8  13
ATOM      9  C   UNL     1      48.879   3.914  17.461  0.00  0.00    +0.000 A 
ATOM     10  C   UNL     1      49.999   3.112  17.710  0.00  0.00    +0.000 A 
ATOM     11  C   UNL     1      51.278   3.668  17.667  0.00  0.00    +0.000 A 
ATOM     12  C   UNL     1      51.437   5.022  17.377  0.00  0.00    +0.000 A 
ATOM     13  C   UNL     1      50.319   5.838  17.166  0.00  0.00    +0.000 A 
ATOM     14  C   UNL     1      49.041   5.276  17.182  0.00  0.00    +0.000 A 
BRANCH   9  16
ATOM     15  N   UNL     1      46.503   2.875  17.523  0.00  0.00    +0.000 NA
ATOM     16  C   UNL     1      47.567   3.339  17.497  0.00  0.00    +0.000 C 
ENDBRANCH   9  16
ENDBRANCH   8  13
ENDBRANCH   2   8
ENDBRANCH   1   5
BRANCH   1  17
ATOM     17  N   UNL     1      47.195   7.571  11.544  0.00  0.00    +0.000 N 
ATOM     18  C   UNL     1      45.875   7.221  11.670  0.00  0.00    +0.000 C 
ATOM     19  O   UNL     1      45.076   7.915  12.292  0.00  0.00    +0.000 OA
ATOM     20  H   UNL     1      47.864   6.870  11.240  0.00  0.00    +0.000 HD
BRANCH  18  21
ATOM     21  C   UNL     1      45.455   6.010  10.958  0.00  0.00    +0.000 A 
ATOM     22  C   UNL     1      45.806   5.839   9.626  0.00  0.00    +0.000 A 
ATOM     23  S   UNL     1      45.311   4.340   8.980  0.00  0.00    +0.000 S 
ATOM     24  C   UNL     1      44.560   3.894  10.439  0.00  0.00    +0.000 A 
ATOM     25  N   UNL     1      43.915   2.703  10.561  0.00  0.00    +0.000 NA
ATOM     26  C   UNL     1      43.355   2.513  11.710  0.00  0.00    +0.000 A 
ATOM     27  N   UNL     1      43.387   3.406  12.750  0.00  0.00    +0.000 N 
ATOM     28  C   UNL     1      44.056   4.604  12.686  0.00  0.00    +0.000 A 
ATOM     29  O   UNL     1      44.110   5.361  13.650  0.00  0.00    +0.000 OA
ATOM     30  C   UNL     1      44.693   4.871  11.410  0.00  0.00    +0.000 A 
ATOM     31  H   UNL     1      42.932   3.193  13.627  0.00  0.00    +0.000 HD
ENDBRANCH  18  21
ENDBRANCH   1  17
TORSDOF 6
ENDMDL
MODEL 8
REMARK VINA RESULT:    -6.807      3.515      7.885
REMARK INTER + INTRA:          -9.977
REMARK INTER:                  -8.940
REMARK INTRA:                  -1.036
REMARK UNBOUND:                -0.782
REMARK  Name = 
REMARK  6 active torsions:
REMARK  status: ('A' for Active; 'I' for Inactive)
REMARK    1  A    between atoms: C_2  and  C_3
REMARK    2  A    between atoms: C_7  and  O_8
REMARK    3  A    between atoms: O_8  and  C_9
REMARK    4  A    between atoms: C_12  and  C_13
REMARK    5  A    between atoms: C_13  and  N_14
REMARK    6  A    between atoms: C_15  and  C_17
REMARK                            x       y       z     vdW  Elec       q    Type
REMARK                         _______ _______ _______ _____ _____    ______ ____
ROOT
ATOM      1  C   UNL     1      47.829   8.890  14.027  0.00  0.00    +0.000 C 
ENDROOT
BRANCH   1   5
ATOM      2  C   UNL     1      49.919   6.646  16.950  0.00  0.00    +0.000 A 
ATOM      3  C   UNL     1      48.927   7.505  17.396  0.00  0.00    +0.000 A 
ATOM      4  C   UNL     1      48.239   8.267  16.454  0.00  0.00    +0.000 A 
ATOM      5  C   UNL     1      48.563   8.143  15.100  0.00  0.00    +0.000 A 
ATOM      6  C   UNL     1      49.627   7.313  14.768  0.00  0.00    +0.000 A 
ATOM      7  N   UNL     1      50.313   6.570  15.657  0.00  0.00    +0.000 NA
BRANCH   2   8
ATOM      8  O   UNL     1      50.530   5.835  17.898  0.00  0.00    +0.000 OA
BRANCH   8  13
ATOM      9  C   UNL     1      51.842   2.434  17.680  0.00  0.00    +0.000 A 
ATOM     10  C   UNL     1      50.709   1.708  17.294  0.00  0.00    +0.000 A 
ATOM     11  C   UNL     1      49.489   2.360  17.118  0.00  0.00    +0.000 A 
ATOM     12  C   UNL     1      49.401   3.736  17.323  0.00  0.00    +0.000 A 
ATOM     13  C   UNL     1      50.538   4.475  17.670  0.00  0.00    +0.000 A 
ATOM     14  C   UNL     1      51.754   3.817  17.875  0.00  0.00    +0.000 A 
BRANCH   9  16
ATOM     15  N   UNL     1      54.104   1.212  18.022  0.00  0.00    +0.000 NA
ATOM     16  C   UNL     1      53.091   1.760  17.870  0.00  0.00    +0.000 C 
ENDBRANCH   9  16
ENDBRANCH   8  13
ENDBRANCH   2   8
ENDBRANCH   1   5
BRANCH   1  17
ATOM     17  N   UNL     1      46.657   8.176  13.603  0.00  0.00    +0.000 N 
ATOM     18  C   UNL     1      46.688   7.352  12.507  0.00  0.00    +0.000 C 
ATOM     19  O   UNL     1      47.720   7.157  11.871  0.00  0.00    +0.000 OA
ATOM     20  H   UNL     1      45.759   8.501  13.949  0.00  0.00    +0.000 HD
BRANCH  18  21
ATOM     21  C   UNL     1      45.437   6.659  12.181  0.00  0.00    +0.000 A 
ATOM     22  C   UNL     1      44.373   7.376  11.650  0.00  0.00    +0.000 A 
ATOM     23  S   UNL     1      43.030   6.403  11.251  0.00  0.00    +0.000 S 
ATOM     24  C   UNL     1      43.801   5.002  11.830  0.00  0.00    +0.000 A 
ATOM     25  N   UNL     1      43.177   3.794  11.799  0.00  0.00    +0.000 NA
ATOM     26  C   UNL     1      43.862   2.824  12.308  0.00  0.00    +0.000 A 
ATOM     27  N   UNL     1      45.119   2.954  12.843  0.00  0.00    +0.000 N 
ATOM     28  C   UNL     1      45.802   4.145  12.864  0.00  0.00    +0.000 A 
ATOM     29  O   UNL     1      46.946   4.221  13.302  0.00  0.00    +0.000 OA
ATOM     30  C   UNL     1      45.070   5.270  12.313  0.00  0.00    +0.000 A 
ATOM     31  H   UNL     1      45.603   2.152  13.222  0.00  0.00    +0.000 HD
ENDBRANCH  18  21
ENDBRANCH   1  17
TORSDOF 6
ENDMDL
MODEL 9
REMARK VINA RESULT:    -6.280      3.494      9.459
REMARK INTER + INTRA:          -9.265
REMARK INTER:                  -8.359
REMARK INTRA:                  -0.907
REMARK UNBOUND:                -0.782
REMARK  Name = 
REMARK  6 active torsions:
REMARK  status: ('A' for Active; 'I' for Inactive)
REMARK    1  A    between atoms: C_2  and  C_3
REMARK    2  A    between atoms: C_7  and  O_8
REMARK    3  A    between atoms: O_8  and  C_9
REMARK    4  A    between atoms: C_12  and  C_13
REMARK    5  A    between atoms: C_13  and  N_14
REMARK    6  A    between atoms: C_15  and  C_17
REMARK                            x       y       z     vdW  Elec       q    Type
REMARK                         _______ _______ _______ _____ _____    ______ ____
ROOT
ATOM      1  C   UNL     1      47.470   3.481  16.429  0.00  0.00    +0.000 C 
ENDROOT
BRANCH   1   5
ATOM      2  C   UNL     1      49.405   5.502  19.609  0.00  0.00    +0.000 A 
ATOM      3  C   UNL     1      50.132   4.533  18.935  0.00  0.00    +0.000 A 
ATOM      4  C   UNL     1      49.509   3.842  17.898  0.00  0.00    +0.000 A 
ATOM      5  C   UNL     1      48.185   4.145  17.567  0.00  0.00    +0.000 A 
ATOM      6  C   UNL     1      47.523   5.077  18.357  0.00  0.00    +0.000 A 
ATOM      7  N   UNL     1      48.097   5.755  19.369  0.00  0.00    +0.000 NA
BRANCH   2   8
ATOM      8  O   UNL     1      50.075   6.236  20.580  0.00  0.00    +0.000 OA
BRANCH   8  13
ATOM      9  C   UNL     1      51.718   9.011  18.867  0.00  0.00    +0.000 A 
ATOM     10  C   UNL     1      53.047   8.864  19.281  0.00  0.00    +0.000 A 
ATOM     11  C   UNL     1      53.396   7.834  20.153  0.00  0.00    +0.000 A 
ATOM     12  C   UNL     1      52.420   6.949  20.609  0.00  0.00    +0.000 A 
ATOM     13  C   UNL     1      51.096   7.066  20.169  0.00  0.00    +0.000 A 
ATOM     14  C   UNL     1      50.741   8.115  19.318  0.00  0.00    +0.000 A 
BRANCH   9  16
ATOM     15  N   UNL     1      51.069  10.943  17.262  0.00  0.00    +0.000 NA
ATOM     16  C   UNL     1      51.359  10.077  17.979  0.00  0.00    +0.000 C 
ENDBRANCH   9  16
ENDBRANCH   8  13
ENDBRANCH   2   8
ENDBRANCH   1   5
BRANCH   1  17
ATOM     17  N   UNL     1      46.855   4.449  15.563  0.00  0.00    +0.000 N 
ATOM     18  C   UNL     1      46.761   4.231  14.212  0.00  0.00    +0.000 C 
ATOM     19  O   UNL     1      47.157   3.191  13.693  0.00  0.00    +0.000 OA
ATOM     20  H   UNL     1      46.747   5.394  15.918  0.00  0.00    +0.000 HD
BRANCH  18  21
ATOM     21  C   UNL     1      46.095   5.279  13.432  0.00  0.00    +0.000 A 
ATOM     22  C   UNL     1      46.737   6.492  13.221  0.00  0.00    +0.000 A 
ATOM     23  S   UNL     1      45.860   7.562  12.224  0.00  0.00    +0.000 S 
ATOM     24  C   UNL     1      44.566   6.466  12.090  0.00  0.00    +0.000 A 
ATOM     25  N   UNL     1      43.455   6.776  11.370  0.00  0.00    +0.000 NA
ATOM     26  C   UNL     1      42.535   5.869  11.387  0.00  0.00    +0.000 A 
ATOM     27  N   UNL     1      42.629   4.676  12.057  0.00  0.00    +0.000 N 
ATOM     28  C   UNL     1      43.744   4.304  12.766  0.00  0.00    +0.000 A 
ATOM     29  O   UNL     1      43.821   3.208  13.313  0.00  0.00    +0.000 OA
ATOM     30  C   UNL     1      44.804   5.295  12.787  0.00  0.00    +0.000 A 
ATOM     31  H   UNL     1      41.873   4.006  12.026  0.00  0.00    +0.000 HD
ENDBRANCH  18  21
ENDBRANCH   1  17
TORSDOF 6
ENDMDL
