MODEL 1
REMARK VINA RESULT:    -7.992      0.000      0.000
REMARK INTER + INTRA:          -9.955
REMARK INTER:                  -9.627
REMARK INTRA:                  -0.328
REMARK UNBOUND:                -0.328
REMARK  Name = 
REMARK  4 active torsions:
REMARK  status: ('A' for Active; 'I' for Inactive)
REMARK    1  A    between atoms: C_2  and  O_3
REMARK    2  A    between atoms: C_2  and  C_4
REMARK    3  A    between atoms: N_8  and  C_9
REMARK    4  A    between atoms: C_9  and  C_10
REMARK                            x       y       z     vdW  Elec       q    Type
REMARK                         _______ _______ _______ _____ _____    ______ ____
ROOT
ATOM      1  C   UNL     1      46.336   2.014   7.762  0.00  0.00    +0.000 A 
ATOM      2  C   UNL     1      46.348   3.319   7.281  0.00  0.00    +0.000 A 
ATOM      3  C   UNL     1      45.491   4.264   7.850  0.00  0.00    +0.000 A 
ATOM      4  C   UNL     1      44.663   3.902   8.912  0.00  0.00    +0.000 A 
ATOM      5  N   UNL     1      43.940   4.899   9.550  0.00  0.00    +0.000 N 
ATOM      6  N   UNL     1      44.650   2.639   9.386  0.00  0.00    +0.000 NA
ATOM      7  C   UNL     1      45.481   1.728   8.813  0.00  0.00    +0.000 A 
ATOM      8  H   UNL     1      43.378   5.486   8.946  0.00  0.00    +0.000 HD
ENDROOT
BRANCH   1  10
ATOM      9  O   UNL     1      48.116   1.306   6.376  0.00  0.00    +0.000 OA
ATOM     10  C   UNL     1      47.281   1.022   7.214  0.00  0.00    +0.000 C 
BRANCH  10  11
ATOM     11  O   UNL     1      47.107  -0.229   7.695  0.00  0.00    +0.000 OA
ATOM     12  H   UNL     1      46.621  -0.849   7.125  0.00  0.00    +0.000 HD
ENDBRANCH  10  11
ENDBRANCH   1  10
BRANCH   5  13
ATOM     13  C   UNL     1      43.436   4.671  10.892  0.00  0.00    +0.000 C 
BRANCH  13  14
ATOM     14  C   UNL     1      44.470   4.859  11.969  0.00  0.00    +0.000 A 
ATOM     15  C   UNL     1      45.051   6.110  12.210  0.00  0.00    +0.000 A 
ATOM     16  C   UNL     1      46.092   6.229  13.129  0.00  0.00    +0.000 A 
ATOM     17  C   UNL     1      46.516   5.089  13.788  0.00  0.00    +0.000 A 
ATOM     18  N   UNL     1      45.972   3.868  13.596  0.00  0.00    +0.000 NA
ATOM     19  C   UNL     1      44.968   3.780  12.690  0.00  0.00    +0.000 A 
ENDBRANCH  13  14
ENDBRANCH   5  13
TORSDOF 4
ENDMDL
MODEL 2
REMARK VINA RESULT:    -7.324      0.896      1.459
REMARK INTER + INTRA:          -9.151
REMARK INTER:                  -8.850
REMARK INTRA:                  -0.302
REMARK UNBOUND:                -0.328
REMARK  Name = 
REMARK  4 active torsions:
REMARK  status: ('A' for Active; 'I' for Inactive)
REMARK    1  A    between atoms: C_2  and  O_3
REMARK    2  A    between atoms: C_2  and  C_4
REMARK    3  A    between atoms: N_8  and  C_9
REMARK    4  A    between atoms: C_9  and  C_10
REMARK                            x       y       z     vdW  Elec       q    Type
REMARK                         _______ _______ _______ _____ _____    ______ ____
ROOT
ATOM      1  C   UNL     1      46.258   2.018   7.892  0.00  0.00    +0.000 A 
ATOM      2  C   UNL     1      46.272   3.275   7.297  0.00  0.00    +0.000 A 
ATOM      3  C   UNL     1      45.538   4.313   7.877  0.00  0.00    +0.000 A 
ATOM      4  C   UNL     1      44.833   4.089   9.060  0.00  0.00    +0.000 A 
ATOM      5  N   UNL     1      44.243   5.177   9.687  0.00  0.00    +0.000 N 
ATOM      6  N   UNL     1      44.819   2.873   9.644  0.00  0.00    +0.000 NA
ATOM      7  C   UNL     1      45.528   1.871   9.060  0.00  0.00    +0.000 A 
ATOM      8  H   UNL     1      43.638   5.743   9.104  0.00  0.00    +0.000 HD
ENDROOT
BRANCH   1  10
ATOM      9  O   UNL     1      46.926  -0.236   7.640  0.00  0.00    +0.000 OA
ATOM     10  C   UNL     1      47.078   0.930   7.327  0.00  0.00    +0.000 C 
BRANCH  10  11
ATOM     11  O   UNL     1      48.034   1.349   6.468  0.00  0.00    +0.000 OA
ATOM     12  H   UNL     1      47.887   2.210   6.041  0.00  0.00    +0.000 HD
ENDBRANCH  10  11
ENDBRANCH   1  10
BRANCH   5  13
ATOM     13  C   UNL     1      43.900   5.092  11.095  0.00  0.00    +0.000 C 
BRANCH  13  14
ATOM     14  C   UNL     1      45.083   5.211  12.016  0.00  0.00    +0.000 A 
ATOM     15  C   UNL     1      45.217   4.386  13.140  0.00  0.00    +0.000 A 
ATOM     16  C   UNL     1      46.258   4.599  14.042  0.00  0.00    +0.000 A 
ATOM     17  C   UNL     1      47.143   5.632  13.786  0.00  0.00    +0.000 A 
ATOM     18  N   UNL     1      47.059   6.440  12.707  0.00  0.00    +0.000 NA
ATOM     19  C   UNL     1      46.031   6.215  11.853  0.00  0.00    +0.000 A 
ENDBRANCH  13  14
ENDBRANCH   5  13
TORSDOF 4
ENDMDL
MODEL 3
REMARK VINA RESULT:    -7.264      3.538      6.195
REMARK INTER + INTRA:          -9.079
REMARK INTER:                  -8.738
REMARK INTRA:                  -0.341
REMARK UNBOUND:                -0.328
REMARK  Name = 
REMARK  4 active torsions:
REMARK  status: ('A' for Active; 'I' for Inactive)
REMARK    1  A    between atoms: C_2  and  O_3
REMARK    2  A    between atoms: C_2  and  C_4
REMARK    3  A    between atoms: N_8  and  C_9
REMARK    4  A    between atoms: C_9  and  C_10
REMARK                            x       y       z     vdW  Elec       q    Type
REMARK                         _______ _______ _______ _____ _____    ______ ____
ROOT
ATOM      1  C   UNL     1      46.549   5.849  12.884  0.00  0.00    +0.000 A 
ATOM      2  C   UNL     1      45.843   4.717  13.276  0.00  0.00    +0.000 A 
ATOM      3  C   UNL     1      45.024   4.068  12.349  0.00  0.00    +0.000 A 
ATOM      4  C   UNL     1      44.950   4.538  11.037  0.00  0.00    +0.000 A 
ATOM      5  N   UNL     1      44.249   3.782  10.109  0.00  0.00    +0.000 N 
ATOM      6  N   UNL     1      45.636   5.633  10.650  0.00  0.00    +0.000 NA
ATOM      7  C   UNL     1      46.419   6.259  11.567  0.00  0.00    +0.000 A 
ATOM      8  H   UNL     1      43.302   3.536  10.371  0.00  0.00    +0.000 HD
ENDROOT
BRANCH   1  10
ATOM      9  O   UNL     1      48.397   5.922  14.356  0.00  0.00    +0.000 OA
ATOM     10  C   UNL     1      47.466   6.507  13.833  0.00  0.00    +0.000 C 
BRANCH  10  11
ATOM     11  O   UNL     1      47.157   7.795  14.099  0.00  0.00    +0.000 OA
ATOM     12  H   UNL     1      46.481   8.204  13.532  0.00  0.00    +0.000 HD
ENDBRANCH  10  11
ENDBRANCH   1  10
BRANCH   5  13
ATOM     13  C   UNL     1      44.508   3.968   8.693  0.00  0.00    +0.000 C 
BRANCH  13  14
ATOM     14  C   UNL     1      45.580   3.064   8.147  0.00  0.00    +0.000 A 
ATOM     15  C   UNL     1      46.433   3.485   7.120  0.00  0.00    +0.000 A 
ATOM     16  C   UNL     1      47.335   2.587   6.551  0.00  0.00    +0.000 A 
ATOM     17  C   UNL     1      47.361   1.292   7.036  0.00  0.00    +0.000 A 
ATOM     18  N   UNL     1      46.567   0.851   8.035  0.00  0.00    +0.000 NA
ATOM     19  C   UNL     1      45.694   1.743   8.562  0.00  0.00    +0.000 A 
ENDBRANCH  13  14
ENDBRANCH   5  13
TORSDOF 4
ENDMDL
MODEL 4
REMARK VINA RESULT:    -6.784      3.603      6.227
REMARK INTER + INTRA:          -8.501
REMARK INTER:                  -8.159
REMARK INTRA:                  -0.342
REMARK UNBOUND:                -0.328
REMARK  Name = 
REMARK  4 active torsions:
REMARK  status: ('A' for Active; 'I' for Inactive)
REMARK    1  A    between atoms: C_2  and  O_3
REMARK    2  A    between atoms: C_2  and  C_4
REMARK    3  A    between atoms: N_8  and  C_9
REMARK    4  A    between atoms: C_9  and  C_10
REMARK                            x       y       z     vdW  Elec       q    Type
REMARK                         _______ _______ _______ _____ _____    ______ ____
ROOT
ATOM      1  C   UNL     1      44.900   6.209  11.732  0.00  0.00    +0.000 A 
ATOM      2  C   UNL     1      45.524   5.215  12.479  0.00  0.00    +0.000 A 
ATOM      3  C   UNL     1      45.444   3.888  12.052  0.00  0.00    +0.000 A 
ATOM      4  C   UNL     1      44.772   3.578  10.869  0.00  0.00    +0.000 A 
ATOM      5  N   UNL     1      44.843   2.275  10.397  0.00  0.00    +0.000 N 
ATOM      6  N   UNL     1      44.169   4.538  10.138  0.00  0.00    +0.000 NA
ATOM      7  C   UNL     1      44.247   5.823  10.574  0.00  0.00    +0.000 A 
ATOM      8  H   UNL     1      44.585   1.555  11.061  0.00  0.00    +0.000 HD
ENDROOT
BRANCH   1  10
ATOM      9  O   UNL     1      44.567   8.536  11.482  0.00  0.00    +0.000 OA
ATOM     10  C   UNL     1      45.031   7.621  12.137  0.00  0.00    +0.000 C 
BRANCH  10  11
ATOM     11  O   UNL     1      45.743   7.807  13.271  0.00  0.00    +0.000 OA
ATOM     12  H   UNL     1      46.674   7.528  13.249  0.00  0.00    +0.000 HD
ENDBRANCH  10  11
ENDBRANCH   1  10
BRANCH   5  13
ATOM     13  C   UNL     1      44.563   2.004   8.999  0.00  0.00    +0.000 C 
BRANCH  13  14
ATOM     14  C   UNL     1      45.767   2.126   8.104  0.00  0.00    +0.000 A 
ATOM     15  C   UNL     1      46.035   3.309   7.403  0.00  0.00    +0.000 A 
ATOM     16  C   UNL     1      47.087   3.354   6.489  0.00  0.00    +0.000 A 
ATOM     17  C   UNL     1      47.847   2.212   6.310  0.00  0.00    +0.000 A 
ATOM     18  N   UNL     1      47.631   1.058   6.978  0.00  0.00    +0.000 NA
ATOM     19  C   UNL     1      46.597   1.040   7.853  0.00  0.00    +0.000 A 
ENDBRANCH  13  14
ENDBRANCH   5  13
TORSDOF 4
ENDMDL
MODEL 5
REMARK VINA RESULT:    -6.761      1.320      1.921
REMARK INTER + INTRA:          -8.472
REMARK INTER:                  -8.253
REMARK INTRA:                  -0.219
REMARK UNBOUND:                -0.328
REMARK  Name = 
REMARK  4 active torsions:
REMARK  status: ('A' for Active; 'I' for Inactive)
REMARK    1  A    between atoms: C_2  and  O_3
REMARK    2  A    between atoms: C_2  and  C_4
REMARK    3  A    between atoms: N_8  and  C_9
REMARK    4  A    between atoms: C_9  and  C_10
REMARK                            x       y       z     vdW  Elec       q    Type
REMARK                         _______ _______ _______ _____ _____    ______ ____
ROOT
ATOM      1  C   UNL     1      46.747   2.551   7.010  0.00  0.00    +0.000 A 
ATOM      2  C   UNL     1      46.342   1.381   7.642  0.00  0.00    +0.000 A 
ATOM      3  C   UNL     1      45.587   1.465   8.815  0.00  0.00    +0.000 A 
ATOM      4  C   UNL     1      45.219   2.714   9.317  0.00  0.00    +0.000 A 
ATOM      5  N   UNL     1      44.345   2.756  10.394  0.00  0.00    +0.000 N 
ATOM      6  N   UNL     1      45.606   3.852   8.705  0.00  0.00    +0.000 NA
ATOM      7  C   UNL     1      46.350   3.753   7.572  0.00  0.00    +0.000 A 
ATOM      8  H   UNL     1      44.613   2.201  11.197  0.00  0.00    +0.000 HD
ENDROOT
BRANCH   1  10
ATOM      9  O   UNL     1      47.097   3.015   4.718  0.00  0.00    +0.000 OA
ATOM     10  C   UNL     1      47.489   2.477   5.737  0.00  0.00    +0.000 C 
BRANCH  10  11
ATOM     11  O   UNL     1      48.614   1.729   5.796  0.00  0.00    +0.000 OA
ATOM     12  H   UNL     1      49.287   2.009   6.439  0.00  0.00    +0.000 HD
ENDBRANCH  10  11
ENDBRANCH   1  10
BRANCH   5  13
ATOM     13  C   UNL     1      43.596   3.971  10.660  0.00  0.00    +0.000 C 
BRANCH  13  14
ATOM     14  C   UNL     1      44.319   4.947  11.548  0.00  0.00    +0.000 A 
ATOM     15  C   UNL     1      44.253   6.327  11.317  0.00  0.00    +0.000 A 
ATOM     16  C   UNL     1      45.029   7.199  12.079  0.00  0.00    +0.000 A 
ATOM     17  C   UNL     1      45.846   6.662  13.058  0.00  0.00    +0.000 A 
ATOM     18  N   UNL     1      45.927   5.340  13.322  0.00  0.00    +0.000 NA
ATOM     19  C   UNL     1      45.168   4.516  12.560  0.00  0.00    +0.000 A 
ENDBRANCH  13  14
ENDBRANCH   5  13
TORSDOF 4
ENDMDL
MODEL 6
REMARK VINA RESULT:    -6.080      3.896      5.898
REMARK INTER + INTRA:          -7.652
REMARK INTER:                  -7.405
REMARK INTRA:                  -0.247
REMARK UNBOUND:                -0.328
REMARK  Name = 
REMARK  4 active torsions:
REMARK  status: ('A' for Active; 'I' for Inactive)
REMARK    1  A    between atoms: C_2  and  O_3
REMARK    2  A    between atoms: C_2  and  C_4
REMARK    3  A    between atoms: N_8  and  C_9
REMARK    4  A    between atoms: C_9  and  C_10
REMARK                            x       y       z     vdW  Elec       q    Type
REMARK                         _______ _______ _______ _____ _____    ______ ____
ROOT
ATOM      1  C   UNL     1      45.292   5.002  11.595  0.00  0.00    +0.000 A 
ATOM      2  C   UNL     1      46.371   5.861  11.771  0.00  0.00    +0.000 A 
ATOM      3  C   UNL     1      46.986   5.936  13.024  0.00  0.00    +0.000 A 
ATOM      4  C   UNL     1      46.537   5.127  14.069  0.00  0.00    +0.000 A 
ATOM      5  N   UNL     1      47.266   5.117  15.249  0.00  0.00    +0.000 N 
ATOM      6  N   UNL     1      45.494   4.289  13.902  0.00  0.00    +0.000 NA
ATOM      7  C   UNL     1      44.899   4.237  12.680  0.00  0.00    +0.000 A 
ATOM      8  H   UNL     1      47.449   6.025  15.658  0.00  0.00    +0.000 HD
ENDROOT
BRANCH   1  10
ATOM      9  O   UNL     1      45.271   4.402   9.308  0.00  0.00    +0.000 OA
ATOM     10  C   UNL     1      44.674   4.865  10.262  0.00  0.00    +0.000 C 
BRANCH  10  11
ATOM     11  O   UNL     1      43.410   5.336  10.189  0.00  0.00    +0.000 OA
ATOM     12  H   UNL     1      42.735   4.845  10.689  0.00  0.00    +0.000 HD
ENDBRANCH  10  11
ENDBRANCH   1  10
BRANCH   5  13
ATOM     13  C   UNL     1      47.122   4.003  16.169  0.00  0.00    +0.000 C 
BRANCH  13  14
ATOM     14  C   UNL     1      48.431   3.468  16.684  0.00  0.00    +0.000 A 
ATOM     15  C   UNL     1      49.278   4.255  17.474  0.00  0.00    +0.000 A 
ATOM     16  C   UNL     1      50.537   3.777  17.835  0.00  0.00    +0.000 A 
ATOM     17  C   UNL     1      50.908   2.518  17.398  0.00  0.00    +0.000 A 
ATOM     18  N   UNL     1      50.115   1.722  16.649  0.00  0.00    +0.000 NA
ATOM     19  C   UNL     1      48.901   2.216  16.306  0.00  0.00    +0.000 A 
ENDBRANCH  13  14
ENDBRANCH   5  13
TORSDOF 4
ENDMDL
MODEL 7
REMARK VINA RESULT:    -5.899      3.523      5.353
REMARK INTER + INTRA:          -7.434
REMARK INTER:                  -7.211
REMARK INTRA:                  -0.223
REMARK UNBOUND:                -0.328
REMARK  Name = 
REMARK  4 active torsions:
REMARK  status: ('A' for Active; 'I' for Inactive)
REMARK    1  A    between atoms: C_2  and  O_3
REMARK    2  A    between atoms: C_2  and  C_4
REMARK    3  A    between atoms: N_8  and  C_9
REMARK    4  A    between atoms: C_9  and  C_10
REMARK                            x       y       z     vdW  Elec       q    Type
REMARK                         _______ _______ _______ _____ _____    ______ ____
ROOT
ATOM      1  C   UNL     1      44.877   4.144  10.994  0.00  0.00    +0.000 A 
ATOM      2  C   UNL     1      45.503   5.383  11.091  0.00  0.00    +0.000 A 
ATOM      3  C   UNL     1      46.086   5.759  12.304  0.00  0.00    +0.000 A 
ATOM      4  C   UNL     1      46.067   4.881  13.387  0.00  0.00    +0.000 A 
ATOM      5  N   UNL     1      46.787   5.224  14.523  0.00  0.00    +0.000 N 
ATOM      6  N   UNL     1      45.466   3.677  13.297  0.00  0.00    +0.000 NA
ATOM      7  C   UNL     1      44.893   3.330  12.115  0.00  0.00    +0.000 A 
ATOM      8  H   UNL     1      46.590   6.142  14.904  0.00  0.00    +0.000 HD
ENDROOT
BRANCH   1  10
ATOM      9  O   UNL     1      44.436   2.571   9.286  0.00  0.00    +0.000 OA
ATOM     10  C   UNL     1      44.313   3.707   9.703  0.00  0.00    +0.000 C 
BRANCH  10  11
ATOM     11  O   UNL     1      43.689   4.688   9.013  0.00  0.00    +0.000 OA
ATOM     12  H   UNL     1      43.510   5.512   9.497  0.00  0.00    +0.000 HD
ENDBRANCH  10  11
ENDBRANCH   1  10
BRANCH   5  13
ATOM     13  C   UNL     1      47.167   4.192  15.469  0.00  0.00    +0.000 C 
BRANCH  13  14
ATOM     14  C   UNL     1      48.021   4.691  16.603  0.00  0.00    +0.000 A 
ATOM     15  C   UNL     1      48.112   3.988  17.810  0.00  0.00    +0.000 A 
ATOM     16  C   UNL     1      48.811   4.535  18.885  0.00  0.00    +0.000 A 
ATOM     17  C   UNL     1      49.409   5.770  18.714  0.00  0.00    +0.000 A 
ATOM     18  N   UNL     1      49.359   6.473  17.562  0.00  0.00    +0.000 NA
ATOM     19  C   UNL     1      48.664   5.922  16.538  0.00  0.00    +0.000 A 
ENDBRANCH  13  14
ENDBRANCH   5  13
TORSDOF 4
ENDMDL
MODEL 8
REMARK VINA RESULT:    -5.804      3.888      6.543
REMARK INTER + INTRA:          -7.319
REMARK INTER:                  -7.015
REMARK INTRA:                  -0.305
REMARK UNBOUND:                -0.328
REMARK  Name = 
REMARK  4 active torsions:
REMARK  status: ('A' for Active; 'I' for Inactive)
REMARK    1  A    between atoms: C_2  and  O_3
REMARK    2  A    between atoms: C_2  and  C_4
REMARK    3  A    between atoms: N_8  and  C_9
REMARK    4  A    between atoms: C_9  and  C_10
REMARK                            x       y       z     vdW  Elec       q    Type
REMARK                         _______ _______ _______ _____ _____    ______ ____
ROOT
ATOM      1  C   UNL     1      47.414   5.021  14.904  0.00  0.00    +0.000 A 
ATOM      2  C   UNL     1      47.555   6.295  14.365  0.00  0.00    +0.000 A 
ATOM      3  C   UNL     1      47.029   6.562  13.098  0.00  0.00    +0.000 A 
ATOM      4  C   UNL     1      46.340   5.565  12.407  0.00  0.00    +0.000 A 
ATOM      5  N   UNL     1      45.701   5.909  11.224  0.00  0.00    +0.000 N 
ATOM      6  N   UNL     1      46.196   4.329  12.928  0.00  0.00    +0.000 NA
ATOM      7  C   UNL     1      46.724   4.083  14.156  0.00  0.00    +0.000 A 
ATOM      8  H   UNL     1      46.278   6.377  10.536  0.00  0.00    +0.000 HD
ENDROOT
BRANCH   1  10
ATOM      9  O   UNL     1      48.931   4.118  16.477  0.00  0.00    +0.000 OA
ATOM     10  C   UNL     1      47.908   4.744  16.266  0.00  0.00    +0.000 C 
BRANCH  10  11
ATOM     11  O   UNL     1      47.106   5.208  17.250  0.00  0.00    +0.000 OA
ATOM     12  H   UNL     1      46.575   5.995  17.042  0.00  0.00    +0.000 HD
ENDBRANCH  10  11
ENDBRANCH   1  10
BRANCH   5  13
ATOM     13  C   UNL     1      44.633   5.067  10.717  0.00  0.00    +0.000 C 
BRANCH  13  14
ATOM     14  C   UNL     1      45.059   4.150   9.603  0.00  0.00    +0.000 A 
ATOM     15  C   UNL     1      44.929   2.760   9.714  0.00  0.00    +0.000 A 
ATOM     16  C   UNL     1      45.443   1.930   8.720  0.00  0.00    +0.000 A 
ATOM     17  C   UNL     1      46.067   2.519   7.635  0.00  0.00    +0.000 A 
ATOM     18  N   UNL     1      46.199   3.855   7.482  0.00  0.00    +0.000 NA
ATOM     19  C   UNL     1      45.698   4.636   8.469  0.00  0.00    +0.000 A 
ENDBRANCH  13  14
ENDBRANCH   5  13
TORSDOF 4
ENDMDL
MODEL 9
REMARK VINA RESULT:    -5.500      3.692      5.463
REMARK INTER + INTRA:          -6.953
REMARK INTER:                  -6.632
REMARK INTRA:                  -0.322
REMARK UNBOUND:                -0.328
REMARK  Name = 
REMARK  4 active torsions:
REMARK  status: ('A' for Active; 'I' for Inactive)
REMARK    1  A    between atoms: C_2  and  O_3
REMARK    2  A    between atoms: C_2  and  C_4
REMARK    3  A    between atoms: N_8  and  C_9
REMARK    4  A    between atoms: C_9  and  C_10
REMARK                            x       y       z     vdW  Elec       q    Type
REMARK                         _______ _______ _______ _____ _____    ______ ____
ROOT
ATOM      1  C   UNL     1      44.494   3.934  11.762  0.00  0.00    +0.000 A 
ATOM      2  C   UNL     1      44.162   5.278  11.624  0.00  0.00    +0.000 A 
ATOM      3  C   UNL     1      44.888   6.236  12.337  0.00  0.00    +0.000 A 
ATOM      4  C   UNL     1      45.954   5.842  13.146  0.00  0.00    +0.000 A 
ATOM      5  N   UNL     1      46.745   6.829  13.715  0.00  0.00    +0.000 N 
ATOM      6  N   UNL     1      46.282   4.540  13.279  0.00  0.00    +0.000 NA
ATOM      7  C   UNL     1      45.559   3.620  12.589  0.00  0.00    +0.000 A 
ATOM      8  H   UNL     1      46.248   7.541  14.236  0.00  0.00    +0.000 HD
ENDROOT
BRANCH   1  10
ATOM      9  O   UNL     1      43.908   2.819   9.761  0.00  0.00    +0.000 OA
ATOM     10  C   UNL     1      43.779   2.918  10.967  0.00  0.00    +0.000 C 
BRANCH  10  11
ATOM     11  O   UNL     1      42.942   2.140  11.690  0.00  0.00    +0.000 OA
ATOM     12  H   UNL     1      42.359   1.546  11.187  0.00  0.00    +0.000 HD
ENDBRANCH  10  11
ENDBRANCH   1  10
BRANCH   5  13
ATOM     13  C   UNL     1      48.083   6.499  14.173  0.00  0.00    +0.000 C 
BRANCH  13  14
ATOM     14  C   UNL     1      49.170   7.269  13.474  0.00  0.00    +0.000 A 
ATOM     15  C   UNL     1      49.208   7.371  12.078  0.00  0.00    +0.000 A 
ATOM     16  C   UNL     1      50.291   7.986  11.452  0.00  0.00    +0.000 A 
ATOM     17  C   UNL     1      51.305   8.490  12.248  0.00  0.00    +0.000 A 
ATOM     18  N   UNL     1      51.299   8.426  13.597  0.00  0.00    +0.000 NA
ATOM     19  C   UNL     1      50.238   7.815  14.176  0.00  0.00    +0.000 A 
ENDBRANCH  13  14
ENDBRANCH   5  13
TORSDOF 4
ENDMDL
