MODEL 1
REMARK VINA RESULT:    -6.915      0.000      0.000
REMARK INTER + INTRA:          -9.149
REMARK INTER:                  -8.734
REMARK INTRA:                  -0.415
REMARK UNBOUND:                -0.415
REMARK  Name = 
REMARK  6 active torsions:
REMARK  status: ('A' for Active; 'I' for Inactive)
REMARK    1  A    between atoms: C_1  and  N_2
REMARK    2  A    between atoms: C_5  and  C_6
REMARK    3  A    between atoms: C_6  and  N_7
REMARK    4  A    between atoms: N_7  and  C_8
REMARK    5  A    between atoms: C_11  and  C_12
REMARK    6  A    between atoms: C_15  and  N_16
REMARK                            x       y       z     vdW  Elec       q    Type
REMARK                         _______ _______ _______ _____ _____    ______ ____
ROOT
ATOM      1  C   UNL     1      44.860   3.803   8.807  0.00  0.00    +0.000 A 
ATOM      2  N   UNL     1      45.623   4.630   8.059  0.00  0.00    +0.000 NA
ATOM      3  C   UNL     1      46.569   4.041   7.287  0.00  0.00    +0.000 A 
ATOM      4  C   UNL     1      46.754   2.668   7.252  0.00  0.00    +0.000 A 
ATOM      5  N   UNL     1      45.995   1.813   7.982  0.00  0.00    +0.000 NA
ATOM      6  C   UNL     1      45.043   2.394   8.737  0.00  0.00    +0.000 A 
ENDROOT
BRANCH   6   7
ATOM      7  N   UNL     1      44.262   1.551   9.549  0.00  0.00    +0.000 N 
ATOM      8  H   UNL     1      43.725   0.941   8.937  0.00  0.00    +0.000 HD
ATOM      9  H   UNL     1      43.670   2.109  10.156  0.00  0.00    +0.000 HD
ENDBRANCH   6   7
BRANCH   1  10
ATOM     10  N   UNL     1      43.782   4.292   9.584  0.00  0.00    +0.000 N 
ATOM     11  H   UNL     1      43.367   3.490  10.057  0.00  0.00    +0.000 HD
BRANCH  10  12
ATOM     12  C   UNL     1      44.115   5.347  10.537  0.00  0.00    +0.000 C 
BRANCH  12  17
ATOM     13  C   UNL     1      47.099   3.809  13.839  0.00  0.00    +0.000 C 
ATOM     14  N   UNL     1      45.681   4.117  13.639  0.00  0.00    +0.000 NA
ATOM     15  C   UNL     1      45.530   5.543  13.308  0.00  0.00    +0.000 C 
ATOM     16  C   UNL     1      44.073   5.910  13.033  0.00  0.00    +0.000 C 
ATOM     17  C   UNL     1      43.478   5.055  11.907  0.00  0.00    +0.000 C 
ATOM     18  C   UNL     1      43.654   3.578  12.293  0.00  0.00    +0.000 C 
ATOM     19  C   UNL     1      45.113   3.234  12.611  0.00  0.00    +0.000 C 
ENDBRANCH  12  17
ENDBRANCH  10  12
ENDBRANCH   1  10
BRANCH   4  20
ATOM     20  C   UNL     1      47.769   2.088   6.433  0.00  0.00    +0.000 C 
ATOM     21  N   UNL     1      48.577   1.638   5.721  0.00  0.00    +0.000 NA
ENDBRANCH   4  20
TORSDOF 5
ENDMDL
MODEL 2
REMARK VINA RESULT:    -6.416      1.917      2.195
REMARK INTER + INTRA:          -8.518
REMARK INTER:                  -8.092
REMARK INTRA:                  -0.427
REMARK UNBOUND:                -0.415
REMARK  Name = 
REMARK  6 active torsions:
REMARK  status: ('A' for Active; 'I' for Inactive)
REMARK    1  A    between atoms: C_1  and  N_2
REMARK    2  A    between atoms: C_5  and  C_6
REMARK    3  A    between atoms: C_6  and  N_7
REMARK    4  A    between atoms: N_7  and  C_8
REMARK    5  A    between atoms: C_11  and  C_12
REMARK    6  A    between atoms: C_15  and  N_16
REMARK                            x       y       z     vdW  Elec       q    Type
REMARK                         _______ _______ _______ _____ _____    ______ ____
ROOT
ATOM      1  C   UNL     1      45.028   4.419   9.577  0.00  0.00    +0.000 A 
ATOM      2  N   UNL     1      45.742   4.776   8.487  0.00  0.00    +0.000 NA
ATOM      3  C   UNL     1      46.275   3.763   7.760  0.00  0.00    +0.000 A 
ATOM      4  C   UNL     1      46.101   2.431   8.099  0.00  0.00    +0.000 A 
ATOM      5  N   UNL     1      45.378   2.043   9.180  0.00  0.00    +0.000 NA
ATOM      6  C   UNL     1      44.835   3.046   9.895  0.00  0.00    +0.000 A 
ENDROOT
BRANCH   6   7
ATOM      7  N   UNL     1      44.116   2.696  11.052  0.00  0.00    +0.000 N 
ATOM      8  H   UNL     1      43.393   2.034  10.780  0.00  0.00    +0.000 HD
ATOM      9  H   UNL     1      43.735   3.530  11.487  0.00  0.00    +0.000 HD
ENDBRANCH   6   7
BRANCH   1  10
ATOM     10  N   UNL     1      44.349   5.382  10.363  0.00  0.00    +0.000 N 
ATOM     11  H   UNL     1      43.893   4.879  11.124  0.00  0.00    +0.000 HD
BRANCH  10  12
ATOM     12  C   UNL     1      45.170   6.474  10.877  0.00  0.00    +0.000 C 
BRANCH  12  17
ATOM     13  C   UNL     1      49.049   7.072  13.481  0.00  0.00    +0.000 C 
ATOM     14  N   UNL     1      47.592   6.991  13.609  0.00  0.00    +0.000 NA
ATOM     15  C   UNL     1      46.970   8.087  12.848  0.00  0.00    +0.000 C 
ATOM     16  C   UNL     1      45.445   8.018  12.900  0.00  0.00    +0.000 C 
ATOM     17  C   UNL     1      44.922   6.673  12.383  0.00  0.00    +0.000 C 
ATOM     18  C   UNL     1      45.592   5.560  13.203  0.00  0.00    +0.000 C 
ATOM     19  C   UNL     1      47.121   5.667  13.181  0.00  0.00    +0.000 C 
ENDBRANCH  12  17
ENDBRANCH  10  12
ENDBRANCH   1  10
BRANCH   4  20
ATOM     20  C   UNL     1      46.687   1.395   7.311  0.00  0.00    +0.000 C 
ATOM     21  N   UNL     1      47.130   0.514   6.687  0.00  0.00    +0.000 NA
ENDBRANCH   4  20
TORSDOF 5
ENDMDL
MODEL 3
REMARK VINA RESULT:    -5.951      2.592      6.081
REMARK INTER + INTRA:          -7.931
REMARK INTER:                  -7.481
REMARK INTRA:                  -0.450
REMARK UNBOUND:                -0.415
REMARK  Name = 
REMARK  6 active torsions:
REMARK  status: ('A' for Active; 'I' for Inactive)
REMARK    1  A    between atoms: C_1  and  N_2
REMARK    2  A    between atoms: C_5  and  C_6
REMARK    3  A    between atoms: C_6  and  N_7
REMARK    4  A    between atoms: N_7  and  C_8
REMARK    5  A    between atoms: C_11  and  C_12
REMARK    6  A    between atoms: C_15  and  N_16
REMARK                            x       y       z     vdW  Elec       q    Type
REMARK                         _______ _______ _______ _____ _____    ______ ____
ROOT
ATOM      1  C   UNL     1      45.243   5.535  11.945  0.00  0.00    +0.000 A 
ATOM      2  N   UNL     1      46.512   5.580  12.407  0.00  0.00    +0.000 NA
ATOM      3  C   UNL     1      47.048   6.815  12.571  0.00  0.00    +0.000 A 
ATOM      4  C   UNL     1      46.345   7.975  12.290  0.00  0.00    +0.000 A 
ATOM      5  N   UNL     1      45.066   7.960  11.838  0.00  0.00    +0.000 NA
ATOM      6  C   UNL     1      44.525   6.736  11.690  0.00  0.00    +0.000 A 
ENDROOT
BRANCH   6   7
ATOM      7  N   UNL     1      43.217   6.668  11.178  0.00  0.00    +0.000 N 
ATOM      8  H   UNL     1      42.692   6.014  11.754  0.00  0.00    +0.000 HD
ATOM      9  H   UNL     1      43.243   6.390  10.202  0.00  0.00    +0.000 HD
ENDBRANCH   6   7
BRANCH   1  10
ATOM     10  N   UNL     1      44.546   4.308  11.819  0.00  0.00    +0.000 N 
ATOM     11  H   UNL     1      43.601   4.532  11.508  0.00  0.00    +0.000 HD
BRANCH  10  12
ATOM     12  C   UNL     1      45.163   3.316  10.944  0.00  0.00    +0.000 C 
BRANCH  12  17
ATOM     13  C   UNL     1      47.593   2.568   6.980  0.00  0.00    +0.000 C 
ATOM     14  N   UNL     1      46.217   2.690   7.467  0.00  0.00    +0.000 NA
ATOM     15  C   UNL     1      45.946   1.623   8.445  0.00  0.00    +0.000 C 
ATOM     16  C   UNL     1      44.540   1.735   9.030  0.00  0.00    +0.000 C 
ATOM     17  C   UNL     1      44.306   3.102   9.683  0.00  0.00    +0.000 C 
ATOM     18  C   UNL     1      44.597   4.184   8.631  0.00  0.00    +0.000 C 
ATOM     19  C   UNL     1      45.994   4.033   8.019  0.00  0.00    +0.000 C 
ENDBRANCH  12  17
ENDBRANCH  10  12
ENDBRANCH   1  10
BRANCH   4  20
ATOM     20  C   UNL     1      46.950   9.256  12.467  0.00  0.00    +0.000 C 
ATOM     21  N   UNL     1      47.488  10.284  12.590  0.00  0.00    +0.000 NA
ENDBRANCH   4  20
TORSDOF 5
ENDMDL
MODEL 4
REMARK VINA RESULT:    -5.922      2.425      5.934
REMARK INTER + INTRA:          -7.895
REMARK INTER:                  -7.452
REMARK INTRA:                  -0.443
REMARK UNBOUND:                -0.415
REMARK  Name = 
REMARK  6 active torsions:
REMARK  status: ('A' for Active; 'I' for Inactive)
REMARK    1  A    between atoms: C_1  and  N_2
REMARK    2  A    between atoms: C_5  and  C_6
REMARK    3  A    between atoms: C_6  and  N_7
REMARK    4  A    between atoms: N_7  and  C_8
REMARK    5  A    between atoms: C_11  and  C_12
REMARK    6  A    between atoms: C_15  and  N_16
REMARK                            x       y       z     vdW  Elec       q    Type
REMARK                         _______ _______ _______ _____ _____    ______ ____
ROOT
ATOM      1  C   UNL     1      46.073   5.225  12.700  0.00  0.00    +0.000 A 
ATOM      2  N   UNL     1      46.430   6.191  11.825  0.00  0.00    +0.000 NA
ATOM      3  C   UNL     1      47.551   6.892  12.129  0.00  0.00    +0.000 A 
ATOM      4  C   UNL     1      48.302   6.640  13.266  0.00  0.00    +0.000 A 
ATOM      5  N   UNL     1      47.975   5.668  14.154  0.00  0.00    +0.000 NA
ATOM      6  C   UNL     1      46.872   4.959  13.847  0.00  0.00    +0.000 A 
ENDROOT
BRANCH   6   7
ATOM      7  N   UNL     1      46.465   3.972  14.762  0.00  0.00    +0.000 N 
ATOM      8  H   UNL     1      47.183   3.251  14.780  0.00  0.00    +0.000 HD
ATOM      9  H   UNL     1      45.556   3.607  14.495  0.00  0.00    +0.000 HD
ENDBRANCH   6   7
BRANCH   1  10
ATOM     10  N   UNL     1      44.975   4.367  12.446  0.00  0.00    +0.000 N 
ATOM     11  H   UNL     1      44.217   4.950  12.090  0.00  0.00    +0.000 HD
BRANCH  10  12
ATOM     12  C   UNL     1      45.239   3.248  11.547  0.00  0.00    +0.000 C 
BRANCH  12  17
ATOM     13  C   UNL     1      46.899   3.405   7.142  0.00  0.00    +0.000 C 
ATOM     14  N   UNL     1      45.638   3.320   7.883  0.00  0.00    +0.000 NA
ATOM     15  C   UNL     1      45.618   2.083   8.679  0.00  0.00    +0.000 C 
ATOM     16  C   UNL     1      44.347   1.969   9.518  0.00  0.00    +0.000 C 
ATOM     17  C   UNL     1      44.169   3.179  10.443  0.00  0.00    +0.000 C 
ATOM     18  C   UNL     1      44.193   4.445   9.573  0.00  0.00    +0.000 C 
ATOM     19  C   UNL     1      45.452   4.525   8.703  0.00  0.00    +0.000 C 
ENDBRANCH  12  17
ENDBRANCH  10  12
ENDBRANCH   1  10
BRANCH   4  20
ATOM     20  C   UNL     1      49.470   7.408  13.554  0.00  0.00    +0.000 C 
ATOM     21  N   UNL     1      50.396   8.065  13.823  0.00  0.00    +0.000 NA
ENDBRANCH   4  20
TORSDOF 5
ENDMDL
MODEL 5
REMARK VINA RESULT:    -5.589      3.268      5.902
REMARK INTER + INTRA:          -7.474
REMARK INTER:                  -7.153
REMARK INTRA:                  -0.321
REMARK UNBOUND:                -0.415
REMARK  Name = 
REMARK  6 active torsions:
REMARK  status: ('A' for Active; 'I' for Inactive)
REMARK    1  A    between atoms: C_1  and  N_2
REMARK    2  A    between atoms: C_5  and  C_6
REMARK    3  A    between atoms: C_6  and  N_7
REMARK    4  A    between atoms: N_7  and  C_8
REMARK    5  A    between atoms: C_11  and  C_12
REMARK    6  A    between atoms: C_15  and  N_16
REMARK                            x       y       z     vdW  Elec       q    Type
REMARK                         _______ _______ _______ _____ _____    ______ ____
ROOT
ATOM      1  C   UNL     1      46.119   4.875  13.684  0.00  0.00    +0.000 A 
ATOM      2  N   UNL     1      45.810   3.620  13.289  0.00  0.00    +0.000 NA
ATOM      3  C   UNL     1      45.327   3.490  12.028  0.00  0.00    +0.000 A 
ATOM      4  C   UNL     1      45.159   4.571  11.179  0.00  0.00    +0.000 A 
ATOM      5  N   UNL     1      45.474   5.840  11.544  0.00  0.00    +0.000 NA
ATOM      6  C   UNL     1      45.968   5.971  12.790  0.00  0.00    +0.000 A 
ENDROOT
BRANCH   6   7
ATOM      7  N   UNL     1      46.264   7.273  13.231  0.00  0.00    +0.000 N 
ATOM      8  H   UNL     1      45.864   7.384  14.159  0.00  0.00    +0.000 HD
ATOM      9  H   UNL     1      45.901   7.952  12.569  0.00  0.00    +0.000 HD
ENDBRANCH   6   7
BRANCH   1  10
ATOM     10  N   UNL     1      46.714   5.127  14.944  0.00  0.00    +0.000 N 
ATOM     11  H   UNL     1      45.991   5.528  15.542  0.00  0.00    +0.000 HD
BRANCH  10  12
ATOM     12  C   UNL     1      47.345   3.978  15.588  0.00  0.00    +0.000 C 
BRANCH  12  17
ATOM     13  C   UNL     1      51.554   3.919  17.699  0.00  0.00    +0.000 C 
ATOM     14  N   UNL     1      50.126   4.026  18.007  0.00  0.00    +0.000 NA
ATOM     15  C   UNL     1      49.576   5.233  17.369  0.00  0.00    +0.000 C 
ATOM     16  C   UNL     1      48.074   5.367  17.611  0.00  0.00    +0.000 C 
ATOM     17  C   UNL     1      47.310   4.131  17.119  0.00  0.00    +0.000 C 
ATOM     18  C   UNL     1      47.913   2.898  17.809  0.00  0.00    +0.000 C 
ATOM     19  C   UNL     1      49.427   2.801  17.597  0.00  0.00    +0.000 C 
ENDBRANCH  12  17
ENDBRANCH  10  12
ENDBRANCH   1  10
BRANCH   4  20
ATOM     20  C   UNL     1      44.639   4.392   9.862  0.00  0.00    +0.000 C 
ATOM     21  N   UNL     1      44.245   4.203   8.780  0.00  0.00    +0.000 NA
ENDBRANCH   4  20
TORSDOF 5
ENDMDL
MODEL 6
REMARK VINA RESULT:    -5.407      3.410      7.782
REMARK INTER + INTRA:          -7.244
REMARK INTER:                  -6.923
REMARK INTRA:                  -0.322
REMARK UNBOUND:                -0.415
REMARK  Name = 
REMARK  6 active torsions:
REMARK  status: ('A' for Active; 'I' for Inactive)
REMARK    1  A    between atoms: C_1  and  N_2
REMARK    2  A    between atoms: C_5  and  C_6
REMARK    3  A    between atoms: C_6  and  N_7
REMARK    4  A    between atoms: N_7  and  C_8
REMARK    5  A    between atoms: C_11  and  C_12
REMARK    6  A    between atoms: C_15  and  N_16
REMARK                            x       y       z     vdW  Elec       q    Type
REMARK                         _______ _______ _______ _____ _____    ______ ____
ROOT
ATOM      1  C   UNL     1      47.451   4.540  15.628  0.00  0.00    +0.000 A 
ATOM      2  N   UNL     1      48.159   5.603  15.187  0.00  0.00    +0.000 NA
ATOM      3  C   UNL     1      48.892   6.265  16.117  0.00  0.00    +0.000 A 
ATOM      4  C   UNL     1      48.927   5.883  17.447  0.00  0.00    +0.000 A 
ATOM      5  N   UNL     1      48.238   4.812  17.916  0.00  0.00    +0.000 NA
ATOM      6  C   UNL     1      47.522   4.143  16.992  0.00  0.00    +0.000 A 
ENDROOT
BRANCH   6   7
ATOM      7  N   UNL     1      46.752   3.054  17.440  0.00  0.00    +0.000 N 
ATOM      8  H   UNL     1      46.185   3.375  18.220  0.00  0.00    +0.000 HD
ATOM      9  H   UNL     1      47.361   2.283  17.695  0.00  0.00    +0.000 HD
ENDBRANCH   6   7
BRANCH   1  10
ATOM     10  N   UNL     1      46.721   3.717  14.737  0.00  0.00    +0.000 N 
ATOM     11  H   UNL     1      45.821   3.524  15.177  0.00  0.00    +0.000 HD
BRANCH  10  12
ATOM     12  C   UNL     1      46.539   4.248  13.389  0.00  0.00    +0.000 C 
BRANCH  12  17
ATOM     13  C   UNL     1      44.493   4.090   9.150  0.00  0.00    +0.000 C 
ATOM     14  N   UNL     1      44.298   4.650  10.490  0.00  0.00    +0.000 NA
ATOM     15  C   UNL     1      44.183   3.556  11.467  0.00  0.00    +0.000 C 
ATOM     16  C   UNL     1      44.034   4.084  12.893  0.00  0.00    +0.000 C 
ATOM     17  C   UNL     1      45.200   5.000  13.282  0.00  0.00    +0.000 C 
ATOM     18  C   UNL     1      45.284   6.126  12.240  0.00  0.00    +0.000 C 
ATOM     19  C   UNL     1      45.387   5.583  10.810  0.00  0.00    +0.000 C 
ENDBRANCH  12  17
ENDBRANCH  10  12
ENDBRANCH   1  10
BRANCH   4  20
ATOM     20  C   UNL     1      49.704   6.613  18.397  0.00  0.00    +0.000 C 
ATOM     21  N   UNL     1      50.296   7.238  19.184  0.00  0.00    +0.000 NA
ENDBRANCH   4  20
TORSDOF 5
ENDMDL
MODEL 7
REMARK VINA RESULT:    -5.371      2.782      7.226
REMARK INTER + INTRA:          -7.199
REMARK INTER:                  -6.885
REMARK INTRA:                  -0.314
REMARK UNBOUND:                -0.415
REMARK  Name = 
REMARK  6 active torsions:
REMARK  status: ('A' for Active; 'I' for Inactive)
REMARK    1  A    between atoms: C_1  and  N_2
REMARK    2  A    between atoms: C_5  and  C_6
REMARK    3  A    between atoms: C_6  and  N_7
REMARK    4  A    between atoms: N_7  and  C_8
REMARK    5  A    between atoms: C_11  and  C_12
REMARK    6  A    between atoms: C_15  and  N_16
REMARK                            x       y       z     vdW  Elec       q    Type
REMARK                         _______ _______ _______ _____ _____    ______ ____
ROOT
ATOM      1  C   UNL     1      47.079   4.912  14.380  0.00  0.00    +0.000 A 
ATOM      2  N   UNL     1      46.770   3.893  15.213  0.00  0.00    +0.000 NA
ATOM      3  C   UNL     1      47.456   3.844  16.382  0.00  0.00    +0.000 A 
ATOM      4  C   UNL     1      48.418   4.780  16.721  0.00  0.00    +0.000 A 
ATOM      5  N   UNL     1      48.739   5.820  15.911  0.00  0.00    +0.000 NA
ATOM      6  C   UNL     1      48.049   5.882  14.757  0.00  0.00    +0.000 A 
ENDROOT
BRANCH   6   7
ATOM      7  N   UNL     1      48.380   6.915  13.862  0.00  0.00    +0.000 N 
ATOM      8  H   UNL     1      47.513   7.293  13.489  0.00  0.00    +0.000 HD
ATOM      9  H   UNL     1      48.992   6.559  13.135  0.00  0.00    +0.000 HD
ENDBRANCH   6   7
BRANCH   1  10
ATOM     10  N   UNL     1      46.368   5.120  13.173  0.00  0.00    +0.000 N 
ATOM     11  H   UNL     1      47.050   5.406  12.471  0.00  0.00    +0.000 HD
BRANCH  10  12
ATOM     12  C   UNL     1      45.576   3.989  12.700  0.00  0.00    +0.000 C 
BRANCH  12  17
ATOM     13  C   UNL     1      45.207   3.399   8.042  0.00  0.00    +0.000 C 
ATOM     14  N   UNL     1      44.462   3.931   9.187  0.00  0.00    +0.000 NA
ATOM     15  C   UNL     1      44.198   2.847  10.147  0.00  0.00    +0.000 C 
ATOM     16  C   UNL     1      43.471   3.356  11.390  0.00  0.00    +0.000 C 
ATOM     17  C   UNL     1      44.253   4.477  12.083  0.00  0.00    +0.000 C 
ATOM     18  C   UNL     1      44.505   5.586  11.049  0.00  0.00    +0.000 C 
ATOM     19  C   UNL     1      45.194   5.053   9.788  0.00  0.00    +0.000 C 
ENDBRANCH  12  17
ENDBRANCH  10  12
ENDBRANCH   1  10
BRANCH   4  20
ATOM     20  C   UNL     1      49.125   4.686  17.958  0.00  0.00    +0.000 C 
ATOM     21  N   UNL     1      49.741   4.583  18.943  0.00  0.00    +0.000 NA
ENDBRANCH   4  20
TORSDOF 5
ENDMDL
MODEL 8
REMARK VINA RESULT:    -5.365      3.506      6.006
REMARK INTER + INTRA:          -7.191
REMARK INTER:                  -6.810
REMARK INTRA:                  -0.382
REMARK UNBOUND:                -0.415
REMARK  Name = 
REMARK  6 active torsions:
REMARK  status: ('A' for Active; 'I' for Inactive)
REMARK    1  A    between atoms: C_1  and  N_2
REMARK    2  A    between atoms: C_5  and  C_6
REMARK    3  A    between atoms: C_6  and  N_7
REMARK    4  A    between atoms: N_7  and  C_8
REMARK    5  A    between atoms: C_11  and  C_12
REMARK    6  A    between atoms: C_15  and  N_16
REMARK                            x       y       z     vdW  Elec       q    Type
REMARK                         _______ _______ _______ _____ _____    ______ ____
ROOT
ATOM      1  C   UNL     1      45.991   7.266  12.663  0.00  0.00    +0.000 A 
ATOM      2  N   UNL     1      47.091   6.544  12.354  0.00  0.00    +0.000 NA
ATOM      3  C   UNL     1      48.190   7.251  11.990  0.00  0.00    +0.000 A 
ATOM      4  C   UNL     1      48.203   8.635  11.940  0.00  0.00    +0.000 A 
ATOM      5  N   UNL     1      47.118   9.385  12.258  0.00  0.00    +0.000 NA
ATOM      6  C   UNL     1      46.030   8.687  12.634  0.00  0.00    +0.000 A 
ENDROOT
BRANCH   6   7
ATOM      7  N   UNL     1      44.865   9.419  12.928  0.00  0.00    +0.000 N 
ATOM      8  H   UNL     1      45.004  10.370  12.594  0.00  0.00    +0.000 HD
ATOM      9  H   UNL     1      44.677   9.383  13.925  0.00  0.00    +0.000 HD
ENDBRANCH   6   7
BRANCH   1  10
ATOM     10  N   UNL     1      44.812   6.645  13.143  0.00  0.00    +0.000 N 
ATOM     11  H   UNL     1      44.036   7.012  12.592  0.00  0.00    +0.000 HD
BRANCH  10  12
ATOM     12  C   UNL     1      44.815   5.185  13.133  0.00  0.00    +0.000 C 
BRANCH  12  17
ATOM     13  C   UNL     1      44.639   3.149   8.891  0.00  0.00    +0.000 C 
ATOM     14  N   UNL     1      43.782   3.484  10.031  0.00  0.00    +0.000 NA
ATOM     15  C   UNL     1      44.262   2.778  11.230  0.00  0.00    +0.000 C 
ATOM     16  C   UNL     1      43.437   3.135  12.465  0.00  0.00    +0.000 C 
ATOM     17  C   UNL     1      43.432   4.646  12.725  0.00  0.00    +0.000 C 
ATOM     18  C   UNL     1      42.924   5.342  11.453  0.00  0.00    +0.000 C 
ATOM     19  C   UNL     1      43.731   4.940  10.214  0.00  0.00    +0.000 C 
ENDBRANCH  12  17
ENDBRANCH  10  12
ENDBRANCH   1  10
BRANCH   4  20
ATOM     20  C   UNL     1      49.378   9.341  11.542  0.00  0.00    +0.000 C 
ATOM     21  N   UNL     1      50.308   9.955  11.198  0.00  0.00    +0.000 NA
ENDBRANCH   4  20
TORSDOF 5
ENDMDL
MODEL 9
REMARK VINA RESULT:    -5.089      4.038      6.312
REMARK INTER + INTRA:          -6.842
REMARK INTER:                  -6.373
REMARK INTRA:                  -0.470
REMARK UNBOUND:                -0.415
REMARK  Name = 
REMARK  6 active torsions:
REMARK  status: ('A' for Active; 'I' for Inactive)
REMARK    1  A    between atoms: C_1  and  N_2
REMARK    2  A    between atoms: C_5  and  C_6
REMARK    3  A    between atoms: C_6  and  N_7
REMARK    4  A    between atoms: N_7  and  C_8
REMARK    5  A    between atoms: C_11  and  C_12
REMARK    6  A    between atoms: C_15  and  N_16
REMARK                            x       y       z     vdW  Elec       q    Type
REMARK                         _______ _______ _______ _____ _____    ______ ____
ROOT
ATOM      1  C   UNL     1      45.930   6.279  12.836  0.00  0.00    +0.000 A 
ATOM      2  N   UNL     1      45.168   6.368  11.724  0.00  0.00    +0.000 NA
ATOM      3  C   UNL     1      44.430   5.274  11.412  0.00  0.00    +0.000 A 
ATOM      4  C   UNL     1      44.439   4.124  12.184  0.00  0.00    +0.000 A 
ATOM      5  N   UNL     1      45.184   4.011  13.313  0.00  0.00    +0.000 NA
ATOM      6  C   UNL     1      45.906   5.102  13.634  0.00  0.00    +0.000 A 
ENDROOT
BRANCH   6   7
ATOM      7  N   UNL     1      46.731   5.016  14.771  0.00  0.00    +0.000 N 
ATOM      8  H   UNL     1      46.628   4.082  15.159  0.00  0.00    +0.000 HD
ATOM      9  H   UNL     1      46.479   5.742  15.434  0.00  0.00    +0.000 HD
ENDBRANCH   6   7
BRANCH   1  10
ATOM     10  N   UNL     1      46.673   7.386  13.313  0.00  0.00    +0.000 N 
ATOM     11  H   UNL     1      47.130   7.090  14.175  0.00  0.00    +0.000 HD
BRANCH  10  12
ATOM     12  C   UNL     1      47.641   7.950  12.376  0.00  0.00    +0.000 C 
BRANCH  12  17
ATOM     13  C   UNL     1      51.244  10.720  13.610  0.00  0.00    +0.000 C 
ATOM     14  N   UNL     1      50.941   9.327  13.272  0.00  0.00    +0.000 NA
ATOM     15  C   UNL     1      49.989   8.780  14.253  0.00  0.00    +0.000 C 
ATOM     16  C   UNL     1      49.592   7.344  13.917  0.00  0.00    +0.000 C 
ATOM     17  C   UNL     1      48.998   7.236  12.508  0.00  0.00    +0.000 C 
ATOM     18  C   UNL     1      50.022   7.813  11.519  0.00  0.00    +0.000 C 
ATOM     19  C   UNL     1      50.445   9.238  11.892  0.00  0.00    +0.000 C 
ENDBRANCH  12  17
ENDBRANCH  10  12
ENDBRANCH   1  10
BRANCH   4  20
ATOM     20  C   UNL     1      43.655   2.990  11.816  0.00  0.00    +0.000 C 
ATOM     21  N   UNL     1      42.970   2.090  11.529  0.00  0.00    +0.000 NA
ENDBRANCH   4  20
TORSDOF 5
ENDMDL
