MODEL 1
REMARK VINA RESULT:    -7.739      0.000      0.000
REMARK INTER + INTRA:         -10.410
REMARK INTER:                  -9.775
REMARK INTRA:                  -0.636
REMARK UNBOUND:                -0.636
REMARK  Name = 
REMARK  6 active torsions:
REMARK  status: ('A' for Active; 'I' for Inactive)
REMARK    1  A    between atoms: C_1  and  O_2
REMARK    2  A    between atoms: O_2  and  C_3
REMARK    3  A    between atoms: N_9  and  C_10
REMARK    4  A    between atoms: C_10  and  C_11
REMARK    5  A    between atoms: C_14  and  C_15
REMARK    6  A    between atoms: C_15  and  N_16
REMARK                            x       y       z     vdW  Elec       q    Type
REMARK                         _______ _______ _______ _____ _____    ______ ____
ROOT
ATOM      1  C   UNL     1      47.071   4.212  13.961  0.00  0.00    +0.000 A 
ATOM      2  C   UNL     1      47.453   5.482  14.391  0.00  0.00    +0.000 A 
ATOM      3  C   UNL     1      46.963   6.628  13.752  0.00  0.00    +0.000 A 
ATOM      4  C   UNL     1      46.065   6.502  12.673  0.00  0.00    +0.000 A 
ATOM      5  C   UNL     1      45.413   7.442  11.838  0.00  0.00    +0.000 A 
ATOM      6  C   UNL     1      44.618   6.740  10.962  0.00  0.00    +0.000 A 
ATOM      7  N   UNL     1      44.755   5.399  11.239  0.00  0.00    +0.000 N 
ATOM      8  C   UNL     1      45.670   5.224  12.266  0.00  0.00    +0.000 A 
ATOM      9  C   UNL     1      46.178   4.069  12.888  0.00  0.00    +0.000 A 
ENDROOT
BRANCH   1  11
ATOM     10  C   UNL     1      47.866   3.056  15.885  0.00  0.00    +0.000 C 
ATOM     11  O   UNL     1      47.495   3.030  14.510  0.00  0.00    +0.000 OA
ENDBRANCH   1  11
BRANCH   7  12
ATOM     12  C   UNL     1      43.951   4.357  10.601  0.00  0.00    +0.000 C 
BRANCH  12  13
ATOM     13  C   UNL     1      44.711   3.660   9.503  0.00  0.00    +0.000 A 
ATOM     14  C   UNL     1      44.822   2.264   9.494  0.00  0.00    +0.000 A 
ATOM     15  C   UNL     1      45.648   1.624   8.567  0.00  0.00    +0.000 A 
ATOM     16  C   UNL     1      46.378   2.363   7.624  0.00  0.00    +0.000 A 
ATOM     17  C   UNL     1      46.210   3.752   7.591  0.00  0.00    +0.000 A 
ATOM     18  C   UNL     1      45.380   4.394   8.513  0.00  0.00    +0.000 A 
BRANCH  16  19
ATOM     19  C   UNL     1      47.424   1.664   6.789  0.00  0.00    +0.000 C 
BRANCH  19  20
ATOM     20  N   UNL     1      48.555   2.512   6.431  0.00  0.00    +0.000 NA
ATOM     21  H   UNL     1      49.171   1.986   5.813  0.00  0.00    +0.000 HD
ATOM     22  H   UNL     1      49.091   2.712   7.272  0.00  0.00    +0.000 HD
ENDBRANCH  19  20
ENDBRANCH  16  19
ENDBRANCH  12  13
ENDBRANCH   7  12
TORSDOF 5
ENDMDL
MODEL 2
REMARK VINA RESULT:    -7.718      1.591      2.503
REMARK INTER + INTRA:         -10.384
REMARK INTER:                  -9.703
REMARK INTRA:                  -0.681
REMARK UNBOUND:                -0.636
REMARK  Name = 
REMARK  6 active torsions:
REMARK  status: ('A' for Active; 'I' for Inactive)
REMARK    1  A    between atoms: C_1  and  O_2
REMARK    2  A    between atoms: O_2  and  C_3
REMARK    3  A    between atoms: N_9  and  C_10
REMARK    4  A    between atoms: C_10  and  C_11
REMARK    5  A    between atoms: C_14  and  C_15
REMARK    6  A    between atoms: C_15  and  N_16
REMARK                            x       y       z     vdW  Elec       q    Type
REMARK                         _______ _______ _______ _____ _____    ______ ____
ROOT
ATOM      1  C   UNL     1      47.173   6.249  12.359  0.00  0.00    +0.000 A 
ATOM      2  C   UNL     1      47.182   5.702  13.640  0.00  0.00    +0.000 A 
ATOM      3  C   UNL     1      46.183   4.804  14.040  0.00  0.00    +0.000 A 
ATOM      4  C   UNL     1      45.166   4.439  13.136  0.00  0.00    +0.000 A 
ATOM      5  C   UNL     1      44.041   3.583  13.235  0.00  0.00    +0.000 A 
ATOM      6  C   UNL     1      43.409   3.584  12.014  0.00  0.00    +0.000 A 
ATOM      7  N   UNL     1      44.114   4.407  11.166  0.00  0.00    +0.000 N 
ATOM      8  C   UNL     1      45.181   4.975  11.844  0.00  0.00    +0.000 A 
ATOM      9  C   UNL     1      46.168   5.895  11.447  0.00  0.00    +0.000 A 
ENDROOT
BRANCH   1  11
ATOM     10  C   UNL     1      47.973   8.491  12.298  0.00  0.00    +0.000 C 
ATOM     11  O   UNL     1      48.096   7.138  11.871  0.00  0.00    +0.000 OA
ENDBRANCH   1  11
BRANCH   7  12
ATOM     12  C   UNL     1      43.816   4.543   9.740  0.00  0.00    +0.000 C 
BRANCH  12  13
ATOM     13  C   UNL     1      44.764   3.735   8.893  0.00  0.00    +0.000 A 
ATOM     14  C   UNL     1      44.829   2.344   9.034  0.00  0.00    +0.000 A 
ATOM     15  C   UNL     1      45.809   1.607   8.363  0.00  0.00    +0.000 A 
ATOM     16  C   UNL     1      46.741   2.243   7.530  0.00  0.00    +0.000 A 
ATOM     17  C   UNL     1      46.629   3.625   7.336  0.00  0.00    +0.000 A 
ATOM     18  C   UNL     1      45.647   4.363   8.002  0.00  0.00    +0.000 A 
BRANCH  16  19
ATOM     19  C   UNL     1      47.914   1.455   6.999  0.00  0.00    +0.000 C 
BRANCH  19  20
ATOM     20  N   UNL     1      48.404   1.924   5.708  0.00  0.00    +0.000 NA
ATOM     21  H   UNL     1      48.406   1.139   5.057  0.00  0.00    +0.000 HD
ATOM     22  H   UNL     1      49.372   2.215   5.813  0.00  0.00    +0.000 HD
ENDBRANCH  19  20
ENDBRANCH  16  19
ENDBRANCH  12  13
ENDBRANCH   7  12
TORSDOF 5
ENDMDL
MODEL 3
REMARK VINA RESULT:    -7.699      2.049      3.382
REMARK INTER + INTRA:         -10.360
REMARK INTER:                  -9.708
REMARK INTRA:                  -0.652
REMARK UNBOUND:                -0.636
REMARK  Name = 
REMARK  6 active torsions:
REMARK  status: ('A' for Active; 'I' for Inactive)
REMARK    1  A    between atoms: C_1  and  O_2
REMARK    2  A    between atoms: O_2  and  C_3
REMARK    3  A    between atoms: N_9  and  C_10
REMARK    4  A    between atoms: C_10  and  C_11
REMARK    5  A    between atoms: C_14  and  C_15
REMARK    6  A    between atoms: C_15  and  N_16
REMARK                            x       y       z     vdW  Elec       q    Type
REMARK                         _______ _______ _______ _____ _____    ______ ____
ROOT
ATOM      1  C   UNL     1      45.013   8.399  11.775  0.00  0.00    +0.000 A 
ATOM      2  C   UNL     1      46.020   8.444  12.738  0.00  0.00    +0.000 A 
ATOM      3  C   UNL     1      46.529   7.264  13.294  0.00  0.00    +0.000 A 
ATOM      4  C   UNL     1      46.030   6.016  12.869  0.00  0.00    +0.000 A 
ATOM      5  C   UNL     1      46.326   4.678  13.232  0.00  0.00    +0.000 A 
ATOM      6  C   UNL     1      45.543   3.855  12.458  0.00  0.00    +0.000 A 
ATOM      7  N   UNL     1      44.783   4.644  11.624  0.00  0.00    +0.000 N 
ATOM      8  C   UNL     1      45.038   5.981  11.885  0.00  0.00    +0.000 A 
ATOM      9  C   UNL     1      44.507   7.164  11.341  0.00  0.00    +0.000 A 
ENDROOT
BRANCH   1  11
ATOM     10  C   UNL     1      44.895  10.771  11.605  0.00  0.00    +0.000 C 
ATOM     11  O   UNL     1      44.443   9.490  11.173  0.00  0.00    +0.000 OA
ENDBRANCH   1  11
BRANCH   7  12
ATOM     12  C   UNL     1      43.933   4.109  10.560  0.00  0.00    +0.000 C 
BRANCH  12  13
ATOM     13  C   UNL     1      44.747   3.509   9.445  0.00  0.00    +0.000 A 
ATOM     14  C   UNL     1      44.879   2.120   9.332  0.00  0.00    +0.000 A 
ATOM     15  C   UNL     1      45.753   1.564   8.394  0.00  0.00    +0.000 A 
ATOM     16  C   UNL     1      46.510   2.383   7.542  0.00  0.00    +0.000 A 
ATOM     17  C   UNL     1      46.323   3.769   7.610  0.00  0.00    +0.000 A 
ATOM     18  C   UNL     1      45.446   4.327   8.544  0.00  0.00    +0.000 A 
BRANCH  16  19
ATOM     19  C   UNL     1      47.599   1.764   6.701  0.00  0.00    +0.000 C 
BRANCH  19  20
ATOM     20  N   UNL     1      48.676   2.686   6.358  0.00  0.00    +0.000 NA
ATOM     21  H   UNL     1      48.901   3.242   7.181  0.00  0.00    +0.000 HD
ATOM     22  H   UNL     1      48.336   3.336   5.653  0.00  0.00    +0.000 HD
ENDBRANCH  19  20
ENDBRANCH  16  19
ENDBRANCH  12  13
ENDBRANCH   7  12
TORSDOF 5
ENDMDL
MODEL 4
REMARK VINA RESULT:    -6.722      2.706      6.384
REMARK INTER + INTRA:          -9.126
REMARK INTER:                  -8.663
REMARK INTRA:                  -0.464
REMARK UNBOUND:                -0.636
REMARK  Name = 
REMARK  6 active torsions:
REMARK  status: ('A' for Active; 'I' for Inactive)
REMARK    1  A    between atoms: C_1  and  O_2
REMARK    2  A    between atoms: O_2  and  C_3
REMARK    3  A    between atoms: N_9  and  C_10
REMARK    4  A    between atoms: C_10  and  C_11
REMARK    5  A    between atoms: C_14  and  C_15
REMARK    6  A    between atoms: C_15  and  N_16
REMARK                            x       y       z     vdW  Elec       q    Type
REMARK                         _______ _______ _______ _____ _____    ______ ____
ROOT
ATOM      1  C   UNL     1      45.628   3.762   8.251  0.00  0.00    +0.000 A 
ATOM      2  C   UNL     1      45.187   2.443   8.335  0.00  0.00    +0.000 A 
ATOM      3  C   UNL     1      44.441   2.009   9.438  0.00  0.00    +0.000 A 
ATOM      4  C   UNL     1      44.122   2.915  10.470  0.00  0.00    +0.000 A 
ATOM      5  C   UNL     1      43.407   2.786  11.687  0.00  0.00    +0.000 A 
ATOM      6  C   UNL     1      43.383   4.023  12.287  0.00  0.00    +0.000 A 
ATOM      7  N   UNL     1      44.052   4.909  11.473  0.00  0.00    +0.000 N 
ATOM      8  C   UNL     1      44.548   4.242  10.364  0.00  0.00    +0.000 A 
ATOM      9  C   UNL     1      45.318   4.676   9.270  0.00  0.00    +0.000 A 
ENDROOT
BRANCH   1  11
ATOM     10  C   UNL     1      46.771   3.384   6.197  0.00  0.00    +0.000 C 
ATOM     11  O   UNL     1      46.366   4.286   7.222  0.00  0.00    +0.000 OA
ENDBRANCH   1  11
BRANCH   7  12
ATOM     12  C   UNL     1      44.107   6.350  11.720  0.00  0.00    +0.000 C 
BRANCH  12  13
ATOM     13  C   UNL     1      45.348   6.737  12.481  0.00  0.00    +0.000 A 
ATOM     14  C   UNL     1      45.613   8.082  12.766  0.00  0.00    +0.000 A 
ATOM     15  C   UNL     1      46.831   8.461  13.336  0.00  0.00    +0.000 A 
ATOM     16  C   UNL     1      47.811   7.504  13.640  0.00  0.00    +0.000 A 
ATOM     17  C   UNL     1      47.515   6.153  13.418  0.00  0.00    +0.000 A 
ATOM     18  C   UNL     1      46.295   5.772  12.853  0.00  0.00    +0.000 A 
BRANCH  16  19
ATOM     19  C   UNL     1      49.190   7.963  14.044  0.00  0.00    +0.000 C 
BRANCH  19  20
ATOM     20  N   UNL     1      49.991   6.929  14.690  0.00  0.00    +0.000 NA
ATOM     21  H   UNL     1      50.225   7.241  15.631  0.00  0.00    +0.000 HD
ATOM     22  H   UNL     1      50.871   6.838  14.188  0.00  0.00    +0.000 HD
ENDBRANCH  19  20
ENDBRANCH  16  19
ENDBRANCH  12  13
ENDBRANCH   7  12
TORSDOF 5
ENDMDL
MODEL 5
REMARK VINA RESULT:    -5.869      2.688      4.246
REMARK INTER + INTRA:          -8.049
REMARK INTER:                  -7.611
REMARK INTRA:                  -0.438
REMARK UNBOUND:                -0.636
REMARK  Name = 
REMARK  6 active torsions:
REMARK  status: ('A' for Active; 'I' for Inactive)
REMARK    1  A    between atoms: C_1  and  O_2
REMARK    2  A    between atoms: O_2  and  C_3
REMARK    3  A    between atoms: N_9  and  C_10
REMARK    4  A    between atoms: C_10  and  C_11
REMARK    5  A    between atoms: C_14  and  C_15
REMARK    6  A    between atoms: C_15  and  N_16
REMARK                            x       y       z     vdW  Elec       q    Type
REMARK                         _______ _______ _______ _____ _____    ______ ____
ROOT
ATOM      1  C   UNL     1      44.495   9.837  11.282  0.00  0.00    +0.000 A 
ATOM      2  C   UNL     1      45.697  10.354  11.761  0.00  0.00    +0.000 A 
ATOM      3  C   UNL     1      46.655   9.513  12.342  0.00  0.00    +0.000 A 
ATOM      4  C   UNL     1      46.409   8.128  12.434  0.00  0.00    +0.000 A 
ATOM      5  C   UNL     1      47.155   7.043  12.957  0.00  0.00    +0.000 A 
ATOM      6  C   UNL     1      46.426   5.896  12.743  0.00  0.00    +0.000 A 
ATOM      7  N   UNL     1      45.261   6.242  12.097  0.00  0.00    +0.000 N 
ATOM      8  C   UNL     1      45.210   7.616  11.928  0.00  0.00    +0.000 A 
ATOM      9  C   UNL     1      44.235   8.461  11.366  0.00  0.00    +0.000 A 
ENDROOT
BRANCH   1  11
ATOM     10  C   UNL     1      43.441  10.580   9.281  0.00  0.00    +0.000 C 
ATOM     11  O   UNL     1      43.492  10.571  10.704  0.00  0.00    +0.000 OA
ENDBRANCH   1  11
BRANCH   7  12
ATOM     12  C   UNL     1      44.303   5.264  11.582  0.00  0.00    +0.000 C 
BRANCH  12  13
ATOM     13  C   UNL     1      44.731   4.714  10.247  0.00  0.00    +0.000 A 
ATOM     14  C   UNL     1      44.255   3.473   9.806  0.00  0.00    +0.000 A 
ATOM     15  C   UNL     1      44.764   2.891   8.643  0.00  0.00    +0.000 A 
ATOM     16  C   UNL     1      45.755   3.537   7.888  0.00  0.00    +0.000 A 
ATOM     17  C   UNL     1      46.177   4.809   8.294  0.00  0.00    +0.000 A 
ATOM     18  C   UNL     1      45.666   5.396   9.454  0.00  0.00    +0.000 A 
BRANCH  16  19
ATOM     19  C   UNL     1      46.437   2.788   6.770  0.00  0.00    +0.000 C 
BRANCH  19  20
ATOM     20  N   UNL     1      47.881   2.983   6.723  0.00  0.00    +0.000 NA
ATOM     21  H   UNL     1      48.321   2.294   7.332  0.00  0.00    +0.000 HD
ATOM     22  H   UNL     1      48.099   3.896   7.114  0.00  0.00    +0.000 HD
ENDBRANCH  19  20
ENDBRANCH  16  19
ENDBRANCH  12  13
ENDBRANCH   7  12
TORSDOF 5
ENDMDL
MODEL 6
REMARK VINA RESULT:    -5.502      2.853      6.989
REMARK INTER + INTRA:          -7.585
REMARK INTER:                  -6.986
REMARK INTRA:                  -0.599
REMARK UNBOUND:                -0.636
REMARK  Name = 
REMARK  6 active torsions:
REMARK  status: ('A' for Active; 'I' for Inactive)
REMARK    1  A    between atoms: C_1  and  O_2
REMARK    2  A    between atoms: O_2  and  C_3
REMARK    3  A    between atoms: N_9  and  C_10
REMARK    4  A    between atoms: C_10  and  C_11
REMARK    5  A    between atoms: C_14  and  C_15
REMARK    6  A    between atoms: C_15  and  N_16
REMARK                            x       y       z     vdW  Elec       q    Type
REMARK                         _______ _______ _______ _____ _____    ______ ____
ROOT
ATOM      1  C   UNL     1      44.133   4.237  11.262  0.00  0.00    +0.000 A 
ATOM      2  C   UNL     1      43.281   5.267  10.868  0.00  0.00    +0.000 A 
ATOM      3  C   UNL     1      43.558   6.595  11.218  0.00  0.00    +0.000 A 
ATOM      4  C   UNL     1      44.715   6.898  11.964  0.00  0.00    +0.000 A 
ATOM      5  C   UNL     1      45.256   8.107  12.466  0.00  0.00    +0.000 A 
ATOM      6  C   UNL     1      46.437   7.802  13.102  0.00  0.00    +0.000 A 
ATOM      7  N   UNL     1      46.641   6.444  12.999  0.00  0.00    +0.000 N 
ATOM      8  C   UNL     1      45.575   5.860  12.334  0.00  0.00    +0.000 A 
ATOM      9  C   UNL     1      45.289   4.522  12.006  0.00  0.00    +0.000 A 
ENDROOT
BRANCH   1  11
ATOM     10  C   UNL     1      44.467   2.440   9.736  0.00  0.00    +0.000 C 
ATOM     11  O   UNL     1      43.952   2.908  10.980  0.00  0.00    +0.000 OA
ENDBRANCH   1  11
BRANCH   7  12
ATOM     12  C   UNL     1      47.868   5.777  13.436  0.00  0.00    +0.000 C 
BRANCH  12  13
ATOM     13  C   UNL     1      47.868   5.531  14.922  0.00  0.00    +0.000 A 
ATOM     14  C   UNL     1      48.621   6.347  15.775  0.00  0.00    +0.000 A 
ATOM     15  C   UNL     1      48.746   6.033  17.131  0.00  0.00    +0.000 A 
ATOM     16  C   UNL     1      48.117   4.900  17.667  0.00  0.00    +0.000 A 
ATOM     17  C   UNL     1      47.308   4.126  16.827  0.00  0.00    +0.000 A 
ATOM     18  C   UNL     1      47.177   4.441  15.471  0.00  0.00    +0.000 A 
BRANCH  16  19
ATOM     19  C   UNL     1      48.450   4.469  19.075  0.00  0.00    +0.000 C 
BRANCH  19  20
ATOM     20  N   UNL     1      48.237   3.047  19.322  0.00  0.00    +0.000 NA
ATOM     21  H   UNL     1      49.142   2.608  19.484  0.00  0.00    +0.000 HD
ATOM     22  H   UNL     1      47.856   2.624  18.480  0.00  0.00    +0.000 HD
ENDBRANCH  19  20
ENDBRANCH  16  19
ENDBRANCH  12  13
ENDBRANCH   7  12
TORSDOF 5
ENDMDL
MODEL 7
REMARK VINA RESULT:    -5.435      3.052      6.746
REMARK INTER + INTRA:          -7.500
REMARK INTER:                  -7.039
REMARK INTRA:                  -0.461
REMARK UNBOUND:                -0.636
REMARK  Name = 
REMARK  6 active torsions:
REMARK  status: ('A' for Active; 'I' for Inactive)
REMARK    1  A    between atoms: C_1  and  O_2
REMARK    2  A    between atoms: O_2  and  C_3
REMARK    3  A    between atoms: N_9  and  C_10
REMARK    4  A    between atoms: C_10  and  C_11
REMARK    5  A    between atoms: C_14  and  C_15
REMARK    6  A    between atoms: C_15  and  N_16
REMARK                            x       y       z     vdW  Elec       q    Type
REMARK                         _______ _______ _______ _____ _____    ______ ____
ROOT
ATOM      1  C   UNL     1      45.273   4.026   8.782  0.00  0.00    +0.000 A 
ATOM      2  C   UNL     1      44.486   2.987   9.274  0.00  0.00    +0.000 A 
ATOM      3  C   UNL     1      44.112   2.952  10.624  0.00  0.00    +0.000 A 
ATOM      4  C   UNL     1      44.525   3.982  11.493  0.00  0.00    +0.000 A 
ATOM      5  C   UNL     1      44.323   4.224  12.875  0.00  0.00    +0.000 A 
ATOM      6  C   UNL     1      44.937   5.415  13.182  0.00  0.00    +0.000 A 
ATOM      7  N   UNL     1      45.503   5.916  12.031  0.00  0.00    +0.000 N 
ATOM      8  C   UNL     1      45.294   5.032  10.984  0.00  0.00    +0.000 A 
ATOM      9  C   UNL     1      45.692   5.059   9.635  0.00  0.00    +0.000 A 
ENDROOT
BRANCH   1  11
ATOM     10  C   UNL     1      46.646   3.194   7.024  0.00  0.00    +0.000 C 
ATOM     11  O   UNL     1      45.698   4.152   7.486  0.00  0.00    +0.000 OA
ENDBRANCH   1  11
BRANCH   7  12
ATOM     12  C   UNL     1      46.122   7.239  11.945  0.00  0.00    +0.000 C 
BRANCH  12  13
ATOM     13  C   UNL     1      45.096   8.321  11.735  0.00  0.00    +0.000 A 
ATOM     14  C   UNL     1      43.908   8.047  11.046  0.00  0.00    +0.000 A 
ATOM     15  C   UNL     1      43.024   9.078  10.717  0.00  0.00    +0.000 A 
ATOM     16  C   UNL     1      43.303  10.406  11.075  0.00  0.00    +0.000 A 
ATOM     17  C   UNL     1      44.456  10.666  11.825  0.00  0.00    +0.000 A 
ATOM     18  C   UNL     1      45.339   9.635  12.160  0.00  0.00    +0.000 A 
BRANCH  16  19
ATOM     19  C   UNL     1      42.446  11.516  10.517  0.00  0.00    +0.000 C 
BRANCH  19  20
ATOM     20  N   UNL     1      41.014  11.295  10.680  0.00  0.00    +0.000 NA
ATOM     21  H   UNL     1      40.821  11.136  11.668  0.00  0.00    +0.000 HD
ATOM     22  H   UNL     1      40.758  10.439  10.194  0.00  0.00    +0.000 HD
ENDBRANCH  19  20
ENDBRANCH  16  19
ENDBRANCH  12  13
ENDBRANCH   7  12
TORSDOF 5
ENDMDL
MODEL 8
REMARK VINA RESULT:    -5.406      3.384      5.537
REMARK INTER + INTRA:          -7.463
REMARK INTER:                  -6.843
REMARK INTRA:                  -0.620
REMARK UNBOUND:                -0.636
REMARK  Name = 
REMARK  6 active torsions:
REMARK  status: ('A' for Active; 'I' for Inactive)
REMARK    1  A    between atoms: C_1  and  O_2
REMARK    2  A    between atoms: O_2  and  C_3
REMARK    3  A    between atoms: N_9  and  C_10
REMARK    4  A    between atoms: C_10  and  C_11
REMARK    5  A    between atoms: C_14  and  C_15
REMARK    6  A    between atoms: C_15  and  N_16
REMARK                            x       y       z     vdW  Elec       q    Type
REMARK                         _______ _______ _______ _____ _____    ______ ____
ROOT
ATOM      1  C   UNL     1      46.793   3.804  13.779  0.00  0.00    +0.000 A 
ATOM      2  C   UNL     1      45.929   3.221  12.855  0.00  0.00    +0.000 A 
ATOM      3  C   UNL     1      45.169   4.017  11.988  0.00  0.00    +0.000 A 
ATOM      4  C   UNL     1      45.286   5.420  12.039  0.00  0.00    +0.000 A 
ATOM      5  C   UNL     1      44.667   6.472  11.320  0.00  0.00    +0.000 A 
ATOM      6  C   UNL     1      45.197   7.656  11.777  0.00  0.00    +0.000 A 
ATOM      7  N   UNL     1      46.128   7.364  12.748  0.00  0.00    +0.000 N 
ATOM      8  C   UNL     1      46.175   5.994  12.954  0.00  0.00    +0.000 A 
ATOM      9  C   UNL     1      46.922   5.200  13.843  0.00  0.00    +0.000 A 
ENDROOT
BRANCH   1  11
ATOM     10  C   UNL     1      47.591   3.604  16.014  0.00  0.00    +0.000 C 
ATOM     11  O   UNL     1      47.575   3.120  14.674  0.00  0.00    +0.000 OA
ENDBRANCH   1  11
BRANCH   7  12
ATOM     12  C   UNL     1      46.997   8.368  13.362  0.00  0.00    +0.000 C 
BRANCH  12  13
ATOM     13  C   UNL     1      48.174   8.698  12.483  0.00  0.00    +0.000 A 
ATOM     14  C   UNL     1      49.128   7.720  12.179  0.00  0.00    +0.000 A 
ATOM     15  C   UNL     1      50.297   8.057  11.491  0.00  0.00    +0.000 A 
ATOM     16  C   UNL     1      50.537   9.378  11.086  0.00  0.00    +0.000 A 
ATOM     17  C   UNL     1      49.549  10.340  11.330  0.00  0.00    +0.000 A 
ATOM     18  C   UNL     1      48.377  10.004  12.012  0.00  0.00    +0.000 A 
BRANCH  16  19
ATOM     19  C   UNL     1      51.897   9.748  10.547  0.00  0.00    +0.000 C 
BRANCH  19  20
ATOM     20  N   UNL     1      52.601   8.641   9.911  0.00  0.00    +0.000 NA
ATOM     21  H   UNL     1      51.956   7.859   9.814  0.00  0.00    +0.000 HD
ATOM     22  H   UNL     1      53.345   8.329  10.530  0.00  0.00    +0.000 HD
ENDBRANCH  19  20
ENDBRANCH  16  19
ENDBRANCH  12  13
ENDBRANCH   7  12
TORSDOF 5
ENDMDL
MODEL 9
REMARK VINA RESULT:    -5.294      3.071      4.586
REMARK INTER + INTRA:          -7.322
REMARK INTER:                  -6.743
REMARK INTRA:                  -0.579
REMARK UNBOUND:                -0.636
REMARK  Name = 
REMARK  6 active torsions:
REMARK  status: ('A' for Active; 'I' for Inactive)
REMARK    1  A    between atoms: C_1  and  O_2
REMARK    2  A    between atoms: O_2  and  C_3
REMARK    3  A    between atoms: N_9  and  C_10
REMARK    4  A    between atoms: C_10  and  C_11
REMARK    5  A    between atoms: C_14  and  C_15
REMARK    6  A    between atoms: C_15  and  N_16
REMARK                            x       y       z     vdW  Elec       q    Type
REMARK                         _______ _______ _______ _____ _____    ______ ____
ROOT
ATOM      1  C   UNL     1      49.676   6.927  16.125  0.00  0.00    +0.000 A 
ATOM      2  C   UNL     1      50.935   7.344  15.700  0.00  0.00    +0.000 A 
ATOM      3  C   UNL     1      51.131   7.801  14.390  0.00  0.00    +0.000 A 
ATOM      4  C   UNL     1      50.045   7.852  13.495  0.00  0.00    +0.000 A 
ATOM      5  C   UNL     1      49.922   8.248  12.139  0.00  0.00    +0.000 A 
ATOM      6  C   UNL     1      48.599   8.116  11.786  0.00  0.00    +0.000 A 
ATOM      7  N   UNL     1      47.905   7.659  12.884  0.00  0.00    +0.000 N 
ATOM      8  C   UNL     1      48.780   7.454  13.938  0.00  0.00    +0.000 A 
ATOM      9  C   UNL     1      48.583   6.971  15.245  0.00  0.00    +0.000 A 
ENDROOT
BRANCH   1  11
ATOM     10  C   UNL     1      49.004   5.087  17.479  0.00  0.00    +0.000 C 
ATOM     11  O   UNL     1      49.378   6.458  17.378  0.00  0.00    +0.000 OA
ENDBRANCH   1  11
BRANCH   7  12
ATOM     12  C   UNL     1      46.448   7.534  12.922  0.00  0.00    +0.000 C 
BRANCH  12  13
ATOM     13  C   UNL     1      45.983   6.242  12.302  0.00  0.00    +0.000 A 
ATOM     14  C   UNL     1      45.601   6.200  10.956  0.00  0.00    +0.000 A 
ATOM     15  C   UNL     1      45.028   5.046  10.416  0.00  0.00    +0.000 A 
ATOM     16  C   UNL     1      44.829   3.905  11.207  0.00  0.00    +0.000 A 
ATOM     17  C   UNL     1      45.276   3.927  12.534  0.00  0.00    +0.000 A 
ATOM     18  C   UNL     1      45.854   5.079  13.074  0.00  0.00    +0.000 A 
BRANCH  16  19
ATOM     19  C   UNL     1      44.011   2.761  10.659  0.00  0.00    +0.000 C 
BRANCH  19  20
ATOM     20  N   UNL     1      43.061   2.203  11.615  0.00  0.00    +0.000 NA
ATOM     21  H   UNL     1      42.129   2.241  11.206  0.00  0.00    +0.000 HD
ATOM     22  H   UNL     1      43.041   2.798  12.439  0.00  0.00    +0.000 HD
ENDBRANCH  19  20
ENDBRANCH  16  19
ENDBRANCH  12  13
ENDBRANCH   7  12
TORSDOF 5
ENDMDL
