MODEL 1
REMARK VINA RESULT:    -8.308      0.000      0.000
REMARK INTER + INTRA:         -10.400
REMARK INTER:                  -9.765
REMARK INTRA:                  -0.635
REMARK UNBOUND:                -0.635
REMARK  Name = 
REMARK  3 active torsions:
REMARK  status: ('A' for Active; 'I' for Inactive)
REMARK    1  A    between atoms: C_2  and  C_4
REMARK    2  A    between atoms: N_11  and  C_12
REMARK    3  A    between atoms: C_12  and  C_13
REMARK                            x       y       z     vdW  Elec       q    Type
REMARK                         _______ _______ _______ _____ _____    ______ ____
ROOT
ATOM      1  C   UNL     1      45.675   7.437  12.637  0.00  0.00    +0.000 A 
ATOM      2  C   UNL     1      44.806   7.300  11.560  0.00  0.00    +0.000 A 
ATOM      3  N   UNL     1      44.436   6.129  10.965  0.00  0.00    +0.000 NA
ATOM      4  C   UNL     1      44.972   5.042  11.567  0.00  0.00    +0.000 A 
ATOM      5  C   UNL     1      45.814   5.044  12.682  0.00  0.00    +0.000 A 
ATOM      6  C   UNL     1      46.103   3.692  12.994  0.00  0.00    +0.000 A 
ATOM      7  C   UNL     1      45.471   2.904  12.058  0.00  0.00    +0.000 A 
ATOM      8  N   UNL     1      44.803   3.730  11.180  0.00  0.00    +0.000 N 
ATOM      9  C   UNL     1      46.190   6.282  13.233  0.00  0.00    +0.000 A 
ENDROOT
BRANCH   1  11
ATOM     10  N   UNL     1      46.809   8.874  14.196  0.00  0.00    +0.000 NA
ATOM     11  C   UNL     1      46.059   8.782  13.145  0.00  0.00    +0.000 C 
ATOM     12  N   UNL     1      45.617   9.910  12.523  0.00  0.00    +0.000 N 
ATOM     13  H   UNL     1      47.018   9.857  14.386  0.00  0.00    +0.000 HD
ATOM     14  H   UNL     1      45.659  10.767  13.064  0.00  0.00    +0.000 HD
ATOM     15  H   UNL     1      44.736   9.828  12.024  0.00  0.00    +0.000 HD
ENDBRANCH   1  11
BRANCH   8  16
ATOM     16  C   UNL     1      44.132   3.258   9.971  0.00  0.00    +0.000 C 
BRANCH  16  17
ATOM     17  C   UNL     1      45.115   2.824   8.918  0.00  0.00    +0.000 A 
ATOM     18  C   UNL     1      45.395   1.466   8.723  0.00  0.00    +0.000 A 
ATOM     19  C   UNL     1      46.433   1.086   7.876  0.00  0.00    +0.000 A 
ATOM     20  F   UNL     1      46.731  -0.212   7.745  0.00  0.00    +0.000 F 
ATOM     21  C   UNL     1      47.186   2.033   7.189  0.00  0.00    +0.000 A 
ATOM     22  C   UNL     1      46.864   3.382   7.313  0.00  0.00    +0.000 A 
ATOM     23  C   UNL     1      45.833   3.767   8.169  0.00  0.00    +0.000 A 
ATOM     24  F   UNL     1      45.544   5.071   8.281  0.00  0.00    +0.000 F 
ENDBRANCH  16  17
ENDBRANCH   8  16
TORSDOF 3
ENDMDL
MODEL 2
REMARK VINA RESULT:    -8.054      1.749      2.268
REMARK INTER + INTRA:         -10.102
REMARK INTER:                  -9.624
REMARK INTRA:                  -0.478
REMARK UNBOUND:                -0.635
REMARK  Name = 
REMARK  3 active torsions:
REMARK  status: ('A' for Active; 'I' for Inactive)
REMARK    1  A    between atoms: C_2  and  C_4
REMARK    2  A    between atoms: N_11  and  C_12
REMARK    3  A    between atoms: C_12  and  C_13
REMARK                            x       y       z     vdW  Elec       q    Type
REMARK                         _______ _______ _______ _____ _____    ______ ____
ROOT
ATOM      1  C   UNL     1      46.724   6.347  12.753  0.00  0.00    +0.000 A 
ATOM      2  C   UNL     1      46.819   6.541  11.379  0.00  0.00    +0.000 A 
ATOM      3  N   UNL     1      46.093   5.894  10.421  0.00  0.00    +0.000 NA
ATOM      4  C   UNL     1      45.187   5.034  10.941  0.00  0.00    +0.000 A 
ATOM      5  C   UNL     1      44.960   4.790  12.297  0.00  0.00    +0.000 A 
ATOM      6  C   UNL     1      43.902   3.851  12.385  0.00  0.00    +0.000 A 
ATOM      7  C   UNL     1      43.533   3.518  11.102  0.00  0.00    +0.000 A 
ATOM      8  N   UNL     1      44.330   4.224  10.227  0.00  0.00    +0.000 N 
ATOM      9  C   UNL     1      45.762   5.459  13.239  0.00  0.00    +0.000 A 
ENDROOT
BRANCH   1  11
ATOM     10  N   UNL     1      48.817   6.591  13.911  0.00  0.00    +0.000 NA
ATOM     11  C   UNL     1      47.632   7.063  13.690  0.00  0.00    +0.000 C 
ATOM     12  N   UNL     1      47.222   8.196  14.324  0.00  0.00    +0.000 N 
ATOM     13  H   UNL     1      49.328   7.219  14.536  0.00  0.00    +0.000 HD
ATOM     14  H   UNL     1      47.749   8.466  15.148  0.00  0.00    +0.000 HD
ATOM     15  H   UNL     1      46.221   8.283  14.479  0.00  0.00    +0.000 HD
ENDBRANCH   1  11
BRANCH   8  16
ATOM     16  C   UNL     1      44.322   4.026   8.779  0.00  0.00    +0.000 C 
BRANCH  16  17
ATOM     17  C   UNL     1      45.425   3.105   8.334  0.00  0.00    +0.000 A 
ATOM     18  C   UNL     1      46.517   3.602   7.611  0.00  0.00    +0.000 A 
ATOM     19  C   UNL     1      47.438   2.719   7.051  0.00  0.00    +0.000 A 
ATOM     20  F   UNL     1      48.443   3.202   6.310  0.00  0.00    +0.000 F 
ATOM     21  C   UNL     1      47.313   1.344   7.220  0.00  0.00    +0.000 A 
ATOM     22  C   UNL     1      46.277   0.843   8.004  0.00  0.00    +0.000 A 
ATOM     23  C   UNL     1      45.347   1.724   8.557  0.00  0.00    +0.000 A 
ATOM     24  F   UNL     1      44.351   1.222   9.302  0.00  0.00    +0.000 F 
ENDBRANCH  16  17
ENDBRANCH   8  16
TORSDOF 3
ENDMDL
MODEL 3
REMARK VINA RESULT:    -7.806      3.093      6.336
REMARK INTER + INTRA:          -9.811
REMARK INTER:                  -9.430
REMARK INTRA:                  -0.381
REMARK UNBOUND:                -0.635
REMARK  Name = 
REMARK  3 active torsions:
REMARK  status: ('A' for Active; 'I' for Inactive)
REMARK    1  A    between atoms: C_2  and  C_4
REMARK    2  A    between atoms: N_11  and  C_12
REMARK    3  A    between atoms: C_12  and  C_13
REMARK                            x       y       z     vdW  Elec       q    Type
REMARK                         _______ _______ _______ _____ _____    ______ ____
ROOT
ATOM      1  C   UNL     1      46.438   2.985   7.561  0.00  0.00    +0.000 A 
ATOM      2  C   UNL     1      46.395   4.355   7.801  0.00  0.00    +0.000 A 
ATOM      3  N   UNL     1      45.653   4.984   8.759  0.00  0.00    +0.000 NA
ATOM      4  C   UNL     1      44.958   4.121   9.534  0.00  0.00    +0.000 A 
ATOM      5  C   UNL     1      44.957   2.728   9.429  0.00  0.00    +0.000 A 
ATOM      6  C   UNL     1      44.124   2.227  10.460  0.00  0.00    +0.000 A 
ATOM      7  C   UNL     1      43.612   3.307  11.143  0.00  0.00    +0.000 A 
ATOM      8  N   UNL     1      44.104   4.456  10.564  0.00  0.00    +0.000 N 
ATOM      9  C   UNL     1      45.714   2.136   8.401  0.00  0.00    +0.000 A 
ENDROOT
BRANCH   1  11
ATOM     10  N   UNL     1      47.970   1.386   6.626  0.00  0.00    +0.000 NA
ATOM     11  C   UNL     1      47.231   2.432   6.430  0.00  0.00    +0.000 C 
ATOM     12  N   UNL     1      47.197   3.022   5.204  0.00  0.00    +0.000 N 
ATOM     13  H   UNL     1      48.409   1.106   5.746  0.00  0.00    +0.000 HD
ATOM     14  H   UNL     1      47.959   2.792   4.573  0.00  0.00    +0.000 HD
ATOM     15  H   UNL     1      46.994   4.018   5.194  0.00  0.00    +0.000 HD
ENDBRANCH   1  11
BRANCH   8  16
ATOM     16  C   UNL     1      43.671   5.803  10.932  0.00  0.00    +0.000 C 
BRANCH  16  17
ATOM     17  C   UNL     1      44.761   6.569  11.631  0.00  0.00    +0.000 A 
ATOM     18  C   UNL     1      45.747   5.895  12.362  0.00  0.00    +0.000 A 
ATOM     19  C   UNL     1      46.641   6.617  13.149  0.00  0.00    +0.000 A 
ATOM     20  F   UNL     1      47.540   5.959  13.892  0.00  0.00    +0.000 F 
ATOM     21  C   UNL     1      46.596   8.006  13.202  0.00  0.00    +0.000 A 
ATOM     22  C   UNL     1      45.672   8.690  12.417  0.00  0.00    +0.000 A 
ATOM     23  C   UNL     1      44.768   7.971  11.636  0.00  0.00    +0.000 A 
ATOM     24  F   UNL     1      43.880   8.647  10.893  0.00  0.00    +0.000 F 
ENDBRANCH  16  17
ENDBRANCH   8  16
TORSDOF 3
ENDMDL
MODEL 4
REMARK VINA RESULT:    -7.332      1.865      2.915
REMARK INTER + INTRA:          -9.253
REMARK INTER:                  -9.263
REMARK INTRA:                   0.010
REMARK UNBOUND:                -0.635
REMARK  Name = 
REMARK  3 active torsions:
REMARK  status: ('A' for Active; 'I' for Inactive)
REMARK    1  A    between atoms: C_2  and  C_4
REMARK    2  A    between atoms: N_11  and  C_12
REMARK    3  A    between atoms: C_12  and  C_13
REMARK                            x       y       z     vdW  Elec       q    Type
REMARK                         _______ _______ _______ _____ _____    ______ ____
ROOT
ATOM      1  C   UNL     1      46.795   4.452  14.294  0.00  0.00    +0.000 A 
ATOM      2  C   UNL     1      46.409   3.288  13.637  0.00  0.00    +0.000 A 
ATOM      3  N   UNL     1      45.793   3.214  12.421  0.00  0.00    +0.000 NA
ATOM      4  C   UNL     1      45.618   4.425  11.847  0.00  0.00    +0.000 A 
ATOM      5  C   UNL     1      46.006   5.658  12.378  0.00  0.00    +0.000 A 
ATOM      6  C   UNL     1      45.664   6.653  11.428  0.00  0.00    +0.000 A 
ATOM      7  C   UNL     1      45.051   6.023  10.368  0.00  0.00    +0.000 A 
ATOM      8  N   UNL     1      45.006   4.672  10.636  0.00  0.00    +0.000 N 
ATOM      9  C   UNL     1      46.606   5.678  13.650  0.00  0.00    +0.000 A 
ENDROOT
BRANCH   1  11
ATOM     10  N   UNL     1      47.441   3.269  16.284  0.00  0.00    +0.000 NA
ATOM     11  C   UNL     1      47.390   4.400  15.657  0.00  0.00    +0.000 C 
ATOM     12  N   UNL     1      47.865   5.530  16.250  0.00  0.00    +0.000 N 
ATOM     13  H   UNL     1      47.917   3.393  17.181  0.00  0.00    +0.000 HD
ATOM     14  H   UNL     1      47.981   5.494  17.257  0.00  0.00    +0.000 HD
ATOM     15  H   UNL     1      47.434   6.403  15.957  0.00  0.00    +0.000 HD
ENDBRANCH   1  11
BRANCH   8  16
ATOM     16  C   UNL     1      44.304   3.700   9.801  0.00  0.00    +0.000 C 
BRANCH  16  17
ATOM     17  C   UNL     1      45.228   3.041   8.813  0.00  0.00    +0.000 A 
ATOM     18  C   UNL     1      45.350   1.646   8.776  0.00  0.00    +0.000 A 
ATOM     19  C   UNL     1      46.335   1.057   7.986  0.00  0.00    +0.000 A 
ATOM     20  F   UNL     1      46.483  -0.273   8.006  0.00  0.00    +0.000 F 
ATOM     21  C   UNL     1      47.188   1.828   7.203  0.00  0.00    +0.000 A 
ATOM     22  C   UNL     1      47.022   3.211   7.170  0.00  0.00    +0.000 A 
ATOM     23  C   UNL     1      46.045   3.805   7.968  0.00  0.00    +0.000 A 
ATOM     24  F   UNL     1      45.906   5.138   7.930  0.00  0.00    +0.000 F 
ENDBRANCH  16  17
ENDBRANCH   8  16
TORSDOF 3
ENDMDL
MODEL 5
REMARK VINA RESULT:    -7.125      2.508      3.809
REMARK INTER + INTRA:          -9.010
REMARK INTER:                  -8.428
REMARK INTRA:                  -0.582
REMARK UNBOUND:                -0.635
REMARK  Name = 
REMARK  3 active torsions:
REMARK  status: ('A' for Active; 'I' for Inactive)
REMARK    1  A    between atoms: C_2  and  C_4
REMARK    2  A    between atoms: N_11  and  C_12
REMARK    3  A    between atoms: C_12  and  C_13
REMARK                            x       y       z     vdW  Elec       q    Type
REMARK                         _______ _______ _______ _____ _____    ______ ____
ROOT
ATOM      1  C   UNL     1      47.234   4.556  14.999  0.00  0.00    +0.000 A 
ATOM      2  C   UNL     1      46.424   3.686  14.275  0.00  0.00    +0.000 A 
ATOM      3  N   UNL     1      45.752   3.980  13.124  0.00  0.00    +0.000 NA
ATOM      4  C   UNL     1      45.984   5.239  12.687  0.00  0.00    +0.000 A 
ATOM      5  C   UNL     1      46.812   6.186  13.293  0.00  0.00    +0.000 A 
ATOM      6  C   UNL     1      46.789   7.348  12.481  0.00  0.00    +0.000 A 
ATOM      7  C   UNL     1      45.933   7.104  11.431  0.00  0.00    +0.000 A 
ATOM      8  N   UNL     1      45.429   5.829  11.571  0.00  0.00    +0.000 N 
ATOM      9  C   UNL     1      47.453   5.841  14.496  0.00  0.00    +0.000 A 
ENDROOT
BRANCH   1  11
ATOM     10  N   UNL     1      48.998   4.624  16.630  0.00  0.00    +0.000 NA
ATOM     11  C   UNL     1      47.850   4.134  16.286  0.00  0.00    +0.000 C 
ATOM     12  N   UNL     1      47.225   3.231  17.092  0.00  0.00    +0.000 N 
ATOM     13  H   UNL     1      49.259   4.272  17.555  0.00  0.00    +0.000 HD
ATOM     14  H   UNL     1      47.806   2.770  17.784  0.00  0.00    +0.000 HD
ATOM     15  H   UNL     1      46.606   2.572  16.627  0.00  0.00    +0.000 HD
ENDBRANCH   1  11
BRANCH   8  16
ATOM     16  C   UNL     1      44.382   5.270  10.719  0.00  0.00    +0.000 C 
BRANCH  16  17
ATOM     17  C   UNL     1      44.924   4.233   9.774  0.00  0.00    +0.000 A 
ATOM     18  C   UNL     1      45.716   4.612   8.683  0.00  0.00    +0.000 A 
ATOM     19  C   UNL     1      46.062   3.670   7.717  0.00  0.00    +0.000 A 
ATOM     20  F   UNL     1      46.768   4.056   6.647  0.00  0.00    +0.000 F 
ATOM     21  C   UNL     1      45.658   2.343   7.827  0.00  0.00    +0.000 A 
ATOM     22  C   UNL     1      44.938   1.938   8.948  0.00  0.00    +0.000 A 
ATOM     23  C   UNL     1      44.581   2.881   9.912  0.00  0.00    +0.000 A 
ATOM     24  F   UNL     1      43.880   2.475  10.980  0.00  0.00    +0.000 F 
ENDBRANCH  16  17
ENDBRANCH   8  16
TORSDOF 3
ENDMDL
MODEL 6
REMARK VINA RESULT:    -6.933      2.323      3.078
REMARK INTER + INTRA:          -8.784
REMARK INTER:                  -8.164
REMARK INTRA:                  -0.620
REMARK UNBOUND:                -0.635
REMARK  Name = 
REMARK  3 active torsions:
REMARK  status: ('A' for Active; 'I' for Inactive)
REMARK    1  A    between atoms: C_2  and  C_4
REMARK    2  A    between atoms: N_11  and  C_12
REMARK    3  A    between atoms: C_12  and  C_13
REMARK                            x       y       z     vdW  Elec       q    Type
REMARK                         _______ _______ _______ _____ _____    ______ ____
ROOT
ATOM      1  C   UNL     1      48.783   7.292  12.971  0.00  0.00    +0.000 A 
ATOM      2  C   UNL     1      48.063   7.630  11.830  0.00  0.00    +0.000 A 
ATOM      3  N   UNL     1      46.899   7.053  11.410  0.00  0.00    +0.000 NA
ATOM      4  C   UNL     1      46.446   6.105  12.262  0.00  0.00    +0.000 A 
ATOM      5  C   UNL     1      47.047   5.713  13.460  0.00  0.00    +0.000 A 
ATOM      6  C   UNL     1      46.217   4.724  14.045  0.00  0.00    +0.000 A 
ATOM      7  C   UNL     1      45.160   4.509  13.189  0.00  0.00    +0.000 A 
ATOM      8  N   UNL     1      45.315   5.335  12.096  0.00  0.00    +0.000 N 
ATOM      9  C   UNL     1      48.264   6.317  13.826  0.00  0.00    +0.000 A 
ENDROOT
BRANCH   1  11
ATOM     10  N   UNL     1      50.500   8.915  12.523  0.00  0.00    +0.000 NA
ATOM     11  C   UNL     1      50.084   7.947  13.276  0.00  0.00    +0.000 C 
ATOM     12  N   UNL     1      50.842   7.529  14.328  0.00  0.00    +0.000 N 
ATOM     13  H   UNL     1      51.379   9.285  12.892  0.00  0.00    +0.000 HD
ATOM     14  H   UNL     1      51.820   7.798  14.312  0.00  0.00    +0.000 HD
ATOM     15  H   UNL     1      50.729   6.556  14.600  0.00  0.00    +0.000 HD
ENDBRANCH   1  11
BRANCH   8  16
ATOM     16  C   UNL     1      44.459   5.287  10.913  0.00  0.00    +0.000 C 
BRANCH  16  17
ATOM     17  C   UNL     1      44.950   4.281   9.908  0.00  0.00    +0.000 A 
ATOM     18  C   UNL     1      45.756   4.684   8.835  0.00  0.00    +0.000 A 
ATOM     19  C   UNL     1      46.055   3.782   7.816  0.00  0.00    +0.000 A 
ATOM     20  F   UNL     1      46.774   4.195   6.765  0.00  0.00    +0.000 F 
ATOM     21  C   UNL     1      45.592   2.471   7.855  0.00  0.00    +0.000 A 
ATOM     22  C   UNL     1      44.858   2.037   8.956  0.00  0.00    +0.000 A 
ATOM     23  C   UNL     1      44.548   2.940   9.973  0.00  0.00    +0.000 A 
ATOM     24  F   UNL     1      43.832   2.507  11.021  0.00  0.00    +0.000 F 
ENDBRANCH  16  17
ENDBRANCH   8  16
TORSDOF 3
ENDMDL
MODEL 7
REMARK VINA RESULT:    -6.514      1.749      2.121
REMARK INTER + INTRA:          -8.292
REMARK INTER:                  -7.657
REMARK INTRA:                  -0.636
REMARK UNBOUND:                -0.635
REMARK  Name = 
REMARK  3 active torsions:
REMARK  status: ('A' for Active; 'I' for Inactive)
REMARK    1  A    between atoms: C_2  and  C_4
REMARK    2  A    between atoms: N_11  and  C_12
REMARK    3  A    between atoms: C_12  and  C_13
REMARK                            x       y       z     vdW  Elec       q    Type
REMARK                         _______ _______ _______ _____ _____    ______ ____
ROOT
ATOM      1  C   UNL     1      48.073   7.895  13.196  0.00  0.00    +0.000 A 
ATOM      2  C   UNL     1      47.035   8.197  12.320  0.00  0.00    +0.000 A 
ATOM      3  N   UNL     1      46.075   7.333  11.878  0.00  0.00    +0.000 NA
ATOM      4  C   UNL     1      46.186   6.101  12.425  0.00  0.00    +0.000 A 
ATOM      5  C   UNL     1      47.147   5.689  13.351  0.00  0.00    +0.000 A 
ATOM      6  C   UNL     1      46.867   4.338  13.678  0.00  0.00    +0.000 A 
ATOM      7  C   UNL     1      45.778   3.947  12.932  0.00  0.00    +0.000 A 
ATOM      8  N   UNL     1      45.381   5.014  12.156  0.00  0.00    +0.000 N 
ATOM      9  C   UNL     1      48.134   6.611  13.744  0.00  0.00    +0.000 A 
ENDROOT
BRANCH   1  11
ATOM     10  N   UNL     1      50.269   8.520  13.949  0.00  0.00    +0.000 NA
ATOM     11  C   UNL     1      49.105   8.911  13.539  0.00  0.00    +0.000 C 
ATOM     12  N   UNL     1      48.829  10.241  13.438  0.00  0.00    +0.000 N 
ATOM     13  H   UNL     1      50.872   9.332  14.096  0.00  0.00    +0.000 HD
ATOM     14  H   UNL     1      49.442  10.867  13.951  0.00  0.00    +0.000 HD
ATOM     15  H   UNL     1      47.853  10.503  13.549  0.00  0.00    +0.000 HD
ENDBRANCH   1  11
BRANCH   8  16
ATOM     16  C   UNL     1      44.342   4.933  11.132  0.00  0.00    +0.000 C 
BRANCH  16  17
ATOM     17  C   UNL     1      44.786   4.120   9.947  0.00  0.00    +0.000 A 
ATOM     18  C   UNL     1      44.408   2.777   9.825  0.00  0.00    +0.000 A 
ATOM     19  C   UNL     1      44.969   1.986   8.824  0.00  0.00    +0.000 A 
ATOM     20  F   UNL     1      44.647   0.689   8.755  0.00  0.00    +0.000 F 
ATOM     21  C   UNL     1      45.882   2.513   7.917  0.00  0.00    +0.000 A 
ATOM     22  C   UNL     1      46.204   3.867   7.979  0.00  0.00    +0.000 A 
ATOM     23  C   UNL     1      45.653   4.658   8.986  0.00  0.00    +0.000 A 
ATOM     24  F   UNL     1      45.982   5.957   9.035  0.00  0.00    +0.000 F 
ENDBRANCH  16  17
ENDBRANCH   8  16
TORSDOF 3
ENDMDL
MODEL 8
REMARK VINA RESULT:    -6.282      3.447      6.608
REMARK INTER + INTRA:          -8.020
REMARK INTER:                  -7.401
REMARK INTRA:                  -0.619
REMARK UNBOUND:                -0.635
REMARK  Name = 
REMARK  3 active torsions:
REMARK  status: ('A' for Active; 'I' for Inactive)
REMARK    1  A    between atoms: C_2  and  C_4
REMARK    2  A    between atoms: N_11  and  C_12
REMARK    3  A    between atoms: C_12  and  C_13
REMARK                            x       y       z     vdW  Elec       q    Type
REMARK                         _______ _______ _______ _____ _____    ______ ____
ROOT
ATOM      1  C   UNL     1      44.566   4.041  11.537  0.00  0.00    +0.000 A 
ATOM      2  C   UNL     1      45.577   4.009  12.492  0.00  0.00    +0.000 A 
ATOM      3  N   UNL     1      46.243   5.087  12.999  0.00  0.00    +0.000 NA
ATOM      4  C   UNL     1      45.787   6.263  12.510  0.00  0.00    +0.000 A 
ATOM      5  C   UNL     1      44.748   6.431  11.591  0.00  0.00    +0.000 A 
ATOM      6  C   UNL     1      44.584   7.824  11.391  0.00  0.00    +0.000 A 
ATOM      7  C   UNL     1      45.532   8.469  12.152  0.00  0.00    +0.000 A 
ATOM      8  N   UNL     1      46.275   7.515  12.814  0.00  0.00    +0.000 N 
ATOM      9  C   UNL     1      44.121   5.282  11.076  0.00  0.00    +0.000 A 
ENDROOT
BRANCH   1  11
ATOM     10  N   UNL     1      43.002   2.219  11.655  0.00  0.00    +0.000 NA
ATOM     11  C   UNL     1      43.972   2.783  11.009  0.00  0.00    +0.000 C 
ATOM     12  N   UNL     1      44.449   2.217   9.865  0.00  0.00    +0.000 N 
ATOM     13  H   UNL     1      42.678   1.397  11.140  0.00  0.00    +0.000 HD
ATOM     14  H   UNL     1      44.219   1.240   9.718  0.00  0.00    +0.000 HD
ATOM     15  H   UNL     1      45.424   2.407   9.647  0.00  0.00    +0.000 HD
ENDBRANCH   1  11
BRANCH   8  16
ATOM     16  C   UNL     1      47.463   7.818  13.609  0.00  0.00    +0.000 C 
BRANCH  16  17
ATOM     17  C   UNL     1      48.590   8.337  12.757  0.00  0.00    +0.000 A 
ATOM     18  C   UNL     1      49.348   7.460  11.971  0.00  0.00    +0.000 A 
ATOM     19  C   UNL     1      50.495   7.920  11.329  0.00  0.00    +0.000 A 
ATOM     20  F   UNL     1      51.247   7.060  10.631  0.00  0.00    +0.000 F 
ATOM     21  C   UNL     1      50.892   9.250  11.428  0.00  0.00    +0.000 A 
ATOM     22  C   UNL     1      50.102  10.148  12.140  0.00  0.00    +0.000 A 
ATOM     23  C   UNL     1      48.958   9.688  12.793  0.00  0.00    +0.000 A 
ATOM     24  F   UNL     1      48.215  10.567  13.482  0.00  0.00    +0.000 F 
ENDBRANCH  16  17
ENDBRANCH   8  16
TORSDOF 3
ENDMDL
MODEL 9
REMARK VINA RESULT:    -5.969      4.469      7.960
REMARK INTER + INTRA:          -7.651
REMARK INTER:                  -7.064
REMARK INTRA:                  -0.587
REMARK UNBOUND:                -0.635
REMARK  Name = 
REMARK  3 active torsions:
REMARK  status: ('A' for Active; 'I' for Inactive)
REMARK    1  A    between atoms: C_2  and  C_4
REMARK    2  A    between atoms: N_11  and  C_12
REMARK    3  A    between atoms: C_12  and  C_13
REMARK                            x       y       z     vdW  Elec       q    Type
REMARK                         _______ _______ _______ _____ _____    ______ ____
ROOT
ATOM      1  C   UNL     1      45.521   4.120  12.447  0.00  0.00    +0.000 A 
ATOM      2  C   UNL     1      46.524   3.781  13.349  0.00  0.00    +0.000 A 
ATOM      3  N   UNL     1      47.395   4.644  13.950  0.00  0.00    +0.000 NA
ATOM      4  C   UNL     1      47.164   5.936  13.621  0.00  0.00    +0.000 A 
ATOM      5  C   UNL     1      46.161   6.407  12.771  0.00  0.00    +0.000 A 
ATOM      6  C   UNL     1      46.264   7.821  12.742  0.00  0.00    +0.000 A 
ATOM      7  C   UNL     1      47.333   8.177  13.532  0.00  0.00    +0.000 A 
ATOM      8  N   UNL     1      47.891   7.027  14.047  0.00  0.00    +0.000 N 
ATOM      9  C   UNL     1      45.314   5.470  12.152  0.00  0.00    +0.000 A 
ENDROOT
BRANCH   1  11
ATOM     10  N   UNL     1      43.734   2.513  12.477  0.00  0.00    +0.000 NA
ATOM     11  C   UNL     1      44.687   3.071  11.801  0.00  0.00    +0.000 C 
ATOM     12  N   UNL     1      44.927   2.686  10.517  0.00  0.00    +0.000 N 
ATOM     13  H   UNL     1      43.229   1.853  11.881  0.00  0.00    +0.000 HD
ATOM     14  H   UNL     1      44.539   1.792  10.236  0.00  0.00    +0.000 HD
ATOM     15  H   UNL     1      45.883   2.796  10.190  0.00  0.00    +0.000 HD
ENDBRANCH   1  11
BRANCH   8  16
ATOM     16  C   UNL     1      49.129   7.000  14.822  0.00  0.00    +0.000 C 
BRANCH  16  17
ATOM     17  C   UNL     1      48.863   6.982  16.303  0.00  0.00    +0.000 A 
ATOM     18  C   UNL     1      48.787   5.767  16.996  0.00  0.00    +0.000 A 
ATOM     19  C   UNL     1      48.364   5.751  18.323  0.00  0.00    +0.000 A 
ATOM     20  F   UNL     1      48.235   4.579  18.956  0.00  0.00    +0.000 F 
ATOM     21  C   UNL     1      48.042   6.928  18.991  0.00  0.00    +0.000 A 
ATOM     22  C   UNL     1      48.192   8.148  18.336  0.00  0.00    +0.000 A 
ATOM     23  C   UNL     1      48.604   8.167  17.004  0.00  0.00    +0.000 A 
ATOM     24  F   UNL     1      48.734   9.351  16.388  0.00  0.00    +0.000 F 
ENDBRANCH  16  17
ENDBRANCH   8  16
TORSDOF 3
ENDMDL
