MODEL 1
REMARK VINA RESULT:    -8.147      0.000      0.000
REMARK INTER + INTRA:         -11.092
REMARK INTER:                 -10.528
REMARK INTRA:                  -0.564
REMARK UNBOUND:                -0.564
REMARK  Name = 
REMARK  5 active torsions:
REMARK  status: ('A' for Active; 'I' for Inactive)
REMARK    1  A    between atoms: C_2  and  C_3
REMARK    2  A    between atoms: C_6  and  C_7
REMARK    3  A    between atoms: C_7  and  N_8
REMARK    4  A    between atoms: N_8  and  C_9
REMARK    5  A    between atoms: C_12  and  C_13
REMARK                            x       y       z     vdW  Elec       q    Type
REMARK                         _______ _______ _______ _____ _____    ______ ____
ROOT
ATOM      1  N   UNL     1      43.729   3.644  10.652  0.00  0.00    +0.000 N 
ATOM      2  H   UNL     1      42.801   3.280  10.449  0.00  0.00    +0.000 HD
ENDROOT
BRANCH   1   3
ATOM      3  C   UNL     1      44.629   3.386   9.597  0.00  0.00    +0.000 A 
ATOM      4  C   UNL     1      45.208   4.391   8.815  0.00  0.00    +0.000 A 
ATOM      5  C   UNL     1      46.141   4.076   7.814  0.00  0.00    +0.000 A 
ATOM      6  C   UNL     1      46.514   2.745   7.591  0.00  0.00    +0.000 A 
ATOM      7  C   UNL     1      45.952   1.737   8.376  0.00  0.00    +0.000 A 
ATOM      8  C   UNL     1      45.036   2.060   9.381  0.00  0.00    +0.000 A 
BRANCH   6   9
ATOM      9  C   UNL     1      47.479   2.358   6.532  0.00  0.00    +0.000 C 
ATOM     10  N   UNL     1      47.481   3.099   5.383  0.00  0.00    +0.000 N 
ATOM     11  O   UNL     1      48.271   1.437   6.689  0.00  0.00    +0.000 OA
ATOM     12  H   UNL     1      47.018   3.994   5.311  0.00  0.00    +0.000 HD
ATOM     13  H   UNL     1      48.209   2.889   4.713  0.00  0.00    +0.000 HD
ENDBRANCH   6   9
ENDBRANCH   1   3
BRANCH   1  14
ATOM     14  C   UNL     1      43.750   4.901  11.444  0.00  0.00    +0.000 C 
ATOM     15  C   UNL     1      43.170   6.184  10.872  0.00  0.00    +0.000 C 
ATOM     16  C   UNL     1      42.382   5.420  11.885  0.00  0.00    +0.000 C 
BRANCH  14  20
ATOM     17  C   UNL     1      46.919   5.103  14.309  0.00  0.00    +0.000 A 
ATOM     18  C   UNL     1      46.797   6.138  13.401  0.00  0.00    +0.000 A 
ATOM     19  C   UNL     1      45.759   6.080  12.474  0.00  0.00    +0.000 A 
ATOM     20  C   UNL     1      44.878   4.999  12.475  0.00  0.00    +0.000 A 
ATOM     21  N   UNL     1      45.040   4.017  13.399  0.00  0.00    +0.000 NA
ATOM     22  N   UNL     1      46.065   4.062  14.318  0.00  0.00    +0.000 NA
BRANCH  17  24
ATOM     23  N   UNL     1      48.805   5.091  16.089  0.00  0.00    +0.000 NA
ATOM     24  C   UNL     1      47.963   5.072  15.284  0.00  0.00    +0.000 C 
ENDBRANCH  17  24
ENDBRANCH  14  20
ENDBRANCH   1  14
TORSDOF 5
ENDMDL
MODEL 2
REMARK VINA RESULT:    -7.979      1.453      1.943
REMARK INTER + INTRA:         -10.876
REMARK INTER:                 -10.657
REMARK INTRA:                  -0.219
REMARK UNBOUND:                -0.564
REMARK  Name = 
REMARK  5 active torsions:
REMARK  status: ('A' for Active; 'I' for Inactive)
REMARK    1  A    between atoms: C_2  and  C_3
REMARK    2  A    between atoms: C_6  and  C_7
REMARK    3  A    between atoms: C_7  and  N_8
REMARK    4  A    between atoms: N_8  and  C_9
REMARK    5  A    between atoms: C_12  and  C_13
REMARK                            x       y       z     vdW  Elec       q    Type
REMARK                         _______ _______ _______ _____ _____    ______ ____
ROOT
ATOM      1  N   UNL     1      43.775   4.699  10.155  0.00  0.00    +0.000 N 
ATOM      2  H   UNL     1      43.439   5.498   9.624  0.00  0.00    +0.000 HD
ENDROOT
BRANCH   1   3
ATOM      3  C   UNL     1      44.674   3.917   9.400  0.00  0.00    +0.000 A 
ATOM      4  C   UNL     1      44.743   2.522   9.487  0.00  0.00    +0.000 A 
ATOM      5  C   UNL     1      45.620   1.792   8.669  0.00  0.00    +0.000 A 
ATOM      6  C   UNL     1      46.434   2.454   7.742  0.00  0.00    +0.000 A 
ATOM      7  C   UNL     1      46.362   3.844   7.637  0.00  0.00    +0.000 A 
ATOM      8  C   UNL     1      45.475   4.562   8.444  0.00  0.00    +0.000 A 
BRANCH   6   9
ATOM      9  C   UNL     1      47.393   1.730   6.869  0.00  0.00    +0.000 C 
ATOM     10  N   UNL     1      48.508   2.409   6.463  0.00  0.00    +0.000 N 
ATOM     11  O   UNL     1      47.216   0.560   6.553  0.00  0.00    +0.000 OA
ATOM     12  H   UNL     1      48.801   3.277   6.887  0.00  0.00    +0.000 HD
ATOM     13  H   UNL     1      49.199   1.874   5.954  0.00  0.00    +0.000 HD
ENDBRANCH   6   9
ENDBRANCH   1   3
BRANCH   1  14
ATOM     14  C   UNL     1      43.938   4.938  11.612  0.00  0.00    +0.000 C 
ATOM     15  C   UNL     1      42.726   5.173  12.497  0.00  0.00    +0.000 C 
ATOM     16  C   UNL     1      43.395   3.838  12.521  0.00  0.00    +0.000 C 
BRANCH  14  20
ATOM     17  C   UNL     1      47.715   6.599  12.741  0.00  0.00    +0.000 A 
ATOM     18  C   UNL     1      46.913   7.332  11.886  0.00  0.00    +0.000 A 
ATOM     19  C   UNL     1      45.677   6.798  11.526  0.00  0.00    +0.000 A 
ATOM     20  C   UNL     1      45.279   5.557  12.022  0.00  0.00    +0.000 A 
ATOM     21  N   UNL     1      46.105   4.888  12.867  0.00  0.00    +0.000 NA
ATOM     22  N   UNL     1      47.330   5.405  13.227  0.00  0.00    +0.000 NA
BRANCH  17  24
ATOM     23  N   UNL     1      50.042   7.483  13.468  0.00  0.00    +0.000 NA
ATOM     24  C   UNL     1      49.004   7.063  13.149  0.00  0.00    +0.000 C 
ENDBRANCH  17  24
ENDBRANCH  14  20
ENDBRANCH   1  14
TORSDOF 5
ENDMDL
MODEL 3
REMARK VINA RESULT:    -7.150      3.199      7.050
REMARK INTER + INTRA:          -9.803
REMARK INTER:                  -9.358
REMARK INTRA:                  -0.445
REMARK UNBOUND:                -0.564
REMARK  Name = 
REMARK  5 active torsions:
REMARK  status: ('A' for Active; 'I' for Inactive)
REMARK    1  A    between atoms: C_2  and  C_3
REMARK    2  A    between atoms: C_6  and  C_7
REMARK    3  A    between atoms: C_7  and  N_8
REMARK    4  A    between atoms: N_8  and  C_9
REMARK    5  A    between atoms: C_12  and  C_13
REMARK                            x       y       z     vdW  Elec       q    Type
REMARK                         _______ _______ _______ _____ _____    ______ ____
ROOT
ATOM      1  N   UNL     1      44.799   6.284  10.618  0.00  0.00    +0.000 N 
ATOM      2  H   UNL     1      43.988   6.873  10.443  0.00  0.00    +0.000 HD
ENDROOT
BRANCH   1   3
ATOM      3  C   UNL     1      45.662   6.864  11.571  0.00  0.00    +0.000 A 
ATOM      4  C   UNL     1      46.980   6.440  11.775  0.00  0.00    +0.000 A 
ATOM      5  C   UNL     1      47.810   7.092  12.700  0.00  0.00    +0.000 A 
ATOM      6  C   UNL     1      47.331   8.188  13.427  0.00  0.00    +0.000 A 
ATOM      7  C   UNL     1      46.023   8.627  13.221  0.00  0.00    +0.000 A 
ATOM      8  C   UNL     1      45.207   7.983  12.286  0.00  0.00    +0.000 A 
BRANCH   6   9
ATOM      9  C   UNL     1      48.162   8.899  14.432  0.00  0.00    +0.000 C 
ATOM     10  N   UNL     1      47.548   9.294  15.588  0.00  0.00    +0.000 N 
ATOM     11  O   UNL     1      49.359   9.091  14.256  0.00  0.00    +0.000 OA
ATOM     12  H   UNL     1      46.640   8.951  15.867  0.00  0.00    +0.000 HD
ATOM     13  H   UNL     1      48.146   9.686  16.304  0.00  0.00    +0.000 HD
ENDBRANCH   6   9
ENDBRANCH   1   3
BRANCH   1  14
ATOM     14  C   UNL     1      44.541   4.823  10.542  0.00  0.00    +0.000 C 
ATOM     15  C   UNL     1      44.146   4.043  11.784  0.00  0.00    +0.000 C 
ATOM     16  C   UNL     1      43.094   4.400  10.786  0.00  0.00    +0.000 C 
BRANCH  14  20
ATOM     17  C   UNL     1      46.671   2.826   7.416  0.00  0.00    +0.000 A 
ATOM     18  C   UNL     1      46.012   2.050   8.352  0.00  0.00    +0.000 A 
ATOM     19  C   UNL     1      45.308   2.699   9.364  0.00  0.00    +0.000 A 
ATOM     20  C   UNL     1      45.282   4.092   9.418  0.00  0.00    +0.000 A 
ATOM     21  N   UNL     1      45.940   4.801   8.465  0.00  0.00    +0.000 NA
ATOM     22  N   UNL     1      46.641   4.170   7.461  0.00  0.00    +0.000 NA
BRANCH  17  24
ATOM     23  N   UNL     1      48.082   1.802   5.497  0.00  0.00    +0.000 NA
ATOM     24  C   UNL     1      47.430   2.245   6.354  0.00  0.00    +0.000 C 
ENDBRANCH  17  24
ENDBRANCH  14  20
ENDBRANCH   1  14
TORSDOF 5
ENDMDL
MODEL 4
REMARK VINA RESULT:    -6.223      2.897      6.550
REMARK INTER + INTRA:          -8.606
REMARK INTER:                  -8.156
REMARK INTRA:                  -0.450
REMARK UNBOUND:                -0.564
REMARK  Name = 
REMARK  5 active torsions:
REMARK  status: ('A' for Active; 'I' for Inactive)
REMARK    1  A    between atoms: C_2  and  C_3
REMARK    2  A    between atoms: C_6  and  C_7
REMARK    3  A    between atoms: C_7  and  N_8
REMARK    4  A    between atoms: N_8  and  C_9
REMARK    5  A    between atoms: C_12  and  C_13
REMARK                            x       y       z     vdW  Elec       q    Type
REMARK                         _______ _______ _______ _____ _____    ______ ____
ROOT
ATOM      1  N   UNL     1      44.747   6.287  11.502  0.00  0.00    +0.000 N 
ATOM      2  H   UNL     1      44.088   7.052  11.622  0.00  0.00    +0.000 HD
ENDROOT
BRANCH   1   3
ATOM      3  C   UNL     1      45.875   6.440  12.336  0.00  0.00    +0.000 A 
ATOM      4  C   UNL     1      46.326   5.446  13.212  0.00  0.00    +0.000 A 
ATOM      5  C   UNL     1      47.487   5.634  13.977  0.00  0.00    +0.000 A 
ATOM      6  C   UNL     1      48.220   6.822  13.866  0.00  0.00    +0.000 A 
ATOM      7  C   UNL     1      47.786   7.814  12.985  0.00  0.00    +0.000 A 
ATOM      8  C   UNL     1      46.638   7.612  12.215  0.00  0.00    +0.000 A 
BRANCH   6   9
ATOM      9  C   UNL     1      49.442   7.078  14.669  0.00  0.00    +0.000 C 
ATOM     10  N   UNL     1      50.533   7.573  14.011  0.00  0.00    +0.000 N 
ATOM     11  O   UNL     1      49.467   6.891  15.880  0.00  0.00    +0.000 OA
ATOM     12  H   UNL     1      50.479   7.957  13.078  0.00  0.00    +0.000 HD
ATOM     13  H   UNL     1      51.323   7.837  14.585  0.00  0.00    +0.000 HD
ENDBRANCH   6   9
ENDBRANCH   1   3
BRANCH   1  14
ATOM     14  C   UNL     1      44.131   4.969  11.208  0.00  0.00    +0.000 C 
ATOM     15  C   UNL     1      43.323   4.240  12.269  0.00  0.00    +0.000 C 
ATOM     16  C   UNL     1      42.604   4.953  11.171  0.00  0.00    +0.000 C 
BRANCH  14  20
ATOM     17  C   UNL     1      46.061   2.623   8.198  0.00  0.00    +0.000 A 
ATOM     18  C   UNL     1      46.086   3.998   8.065  0.00  0.00    +0.000 A 
ATOM     19  C   UNL     1      45.468   4.765   9.050  0.00  0.00    +0.000 A 
ATOM     20  C   UNL     1      44.844   4.145  10.132  0.00  0.00    +0.000 A 
ATOM     21  N   UNL     1      44.861   2.790  10.215  0.00  0.00    +0.000 NA
ATOM     22  N   UNL     1      45.467   2.021   9.245  0.00  0.00    +0.000 NA
BRANCH  17  24
ATOM     23  N   UNL     1      47.156   1.093   6.413  0.00  0.00    +0.000 NA
ATOM     24  C   UNL     1      46.656   1.759   7.227  0.00  0.00    +0.000 C 
ENDBRANCH  17  24
ENDBRANCH  14  20
ENDBRANCH   1  14
TORSDOF 5
ENDMDL
MODEL 5
REMARK VINA RESULT:    -5.726      3.191      4.955
REMARK INTER + INTRA:          -7.963
REMARK INTER:                  -7.573
REMARK INTRA:                  -0.390
REMARK UNBOUND:                -0.564
REMARK  Name = 
REMARK  5 active torsions:
REMARK  status: ('A' for Active; 'I' for Inactive)
REMARK    1  A    between atoms: C_2  and  C_3
REMARK    2  A    between atoms: C_6  and  C_7
REMARK    3  A    between atoms: C_7  and  N_8
REMARK    4  A    between atoms: N_8  and  C_9
REMARK    5  A    between atoms: C_12  and  C_13
REMARK                            x       y       z     vdW  Elec       q    Type
REMARK                         _______ _______ _______ _____ _____    ______ ____
ROOT
ATOM      1  N   UNL     1      46.593   7.535  12.975  0.00  0.00    +0.000 N 
ATOM      2  H   UNL     1      46.211   8.414  12.636  0.00  0.00    +0.000 HD
ENDROOT
BRANCH   1   3
ATOM      3  C   UNL     1      45.915   6.428  12.423  0.00  0.00    +0.000 A 
ATOM      4  C   UNL     1      45.712   6.254  11.050  0.00  0.00    +0.000 A 
ATOM      5  C   UNL     1      45.078   5.104  10.556  0.00  0.00    +0.000 A 
ATOM      6  C   UNL     1      44.646   4.104  11.436  0.00  0.00    +0.000 A 
ATOM      7  C   UNL     1      44.856   4.261  12.806  0.00  0.00    +0.000 A 
ATOM      8  C   UNL     1      45.503   5.402  13.290  0.00  0.00    +0.000 A 
BRANCH   6   9
ATOM      9  C   UNL     1      43.952   2.879  10.965  0.00  0.00    +0.000 C 
ATOM     10  N   UNL     1      44.481   2.233   9.883  0.00  0.00    +0.000 N 
ATOM     11  O   UNL     1      42.965   2.438  11.543  0.00  0.00    +0.000 OA
ATOM     12  H   UNL     1      45.409   2.426   9.534  0.00  0.00    +0.000 HD
ATOM     13  H   UNL     1      44.059   1.348   9.636  0.00  0.00    +0.000 HD
ENDBRANCH   6   9
ENDBRANCH   1   3
BRANCH   1  14
ATOM     14  C   UNL     1      48.057   7.543  13.227  0.00  0.00    +0.000 C 
ATOM     15  C   UNL     1      49.037   7.304  12.091  0.00  0.00    +0.000 C 
ATOM     16  C   UNL     1      48.825   8.697  12.586  0.00  0.00    +0.000 C 
BRANCH  14  20
ATOM     17  C   UNL     1      49.273   6.425  17.172  0.00  0.00    +0.000 A 
ATOM     18  C   UNL     1      49.064   7.767  16.912  0.00  0.00    +0.000 A 
ATOM     19  C   UNL     1      48.658   8.132  15.631  0.00  0.00    +0.000 A 
ATOM     20  C   UNL     1      48.473   7.158  14.650  0.00  0.00    +0.000 A 
ATOM     21  N   UNL     1      48.682   5.855  14.967  0.00  0.00    +0.000 NA
ATOM     22  N   UNL     1      49.087   5.483  16.230  0.00  0.00    +0.000 NA
BRANCH  17  24
ATOM     23  N   UNL     1      50.028   5.614  19.517  0.00  0.00    +0.000 NA
ATOM     24  C   UNL     1      49.706   5.963  18.453  0.00  0.00    +0.000 C 
ENDBRANCH  17  24
ENDBRANCH  14  20
ENDBRANCH   1  14
TORSDOF 5
ENDMDL
MODEL 6
REMARK VINA RESULT:    -5.544      3.107      5.390
REMARK INTER + INTRA:          -7.728
REMARK INTER:                  -7.569
REMARK INTRA:                  -0.159
REMARK UNBOUND:                -0.564
REMARK  Name = 
REMARK  5 active torsions:
REMARK  status: ('A' for Active; 'I' for Inactive)
REMARK    1  A    between atoms: C_2  and  C_3
REMARK    2  A    between atoms: C_6  and  C_7
REMARK    3  A    between atoms: C_7  and  N_8
REMARK    4  A    between atoms: N_8  and  C_9
REMARK    5  A    between atoms: C_12  and  C_13
REMARK                            x       y       z     vdW  Elec       q    Type
REMARK                         _______ _______ _______ _____ _____    ______ ____
ROOT
ATOM      1  N   UNL     1      47.122   7.382  13.804  0.00  0.00    +0.000 N 
ATOM      2  H   UNL     1      46.630   8.264  13.923  0.00  0.00    +0.000 HD
ENDROOT
BRANCH   1   3
ATOM      3  C   UNL     1      46.398   6.493  12.981  0.00  0.00    +0.000 A 
ATOM      4  C   UNL     1      46.200   5.144  13.291  0.00  0.00    +0.000 A 
ATOM      5  C   UNL     1      45.423   4.321  12.462  0.00  0.00    +0.000 A 
ATOM      6  C   UNL     1      44.822   4.846  11.311  0.00  0.00    +0.000 A 
ATOM      7  C   UNL     1      45.002   6.194  11.000  0.00  0.00    +0.000 A 
ATOM      8  C   UNL     1      45.764   7.011  11.840  0.00  0.00    +0.000 A 
BRANCH   6   9
ATOM      9  C   UNL     1      44.009   4.012  10.390  0.00  0.00    +0.000 C 
ATOM     10  N   UNL     1      43.988   4.372   9.071  0.00  0.00    +0.000 N 
ATOM     11  O   UNL     1      43.409   3.019  10.782  0.00  0.00    +0.000 OA
ATOM     12  H   UNL     1      44.646   5.029   8.675  0.00  0.00    +0.000 HD
ATOM     13  H   UNL     1      43.514   3.740   8.439  0.00  0.00    +0.000 HD
ENDBRANCH   6   9
ENDBRANCH   1   3
BRANCH   1  14
ATOM     14  C   UNL     1      48.603   7.489  13.771  0.00  0.00    +0.000 C 
ATOM     15  C   UNL     1      49.340   7.616  12.449  0.00  0.00    +0.000 C 
ATOM     16  C   UNL     1      49.153   8.832  13.296  0.00  0.00    +0.000 C 
BRANCH  14  20
ATOM     17  C   UNL     1      50.602   5.613  17.054  0.00  0.00    +0.000 A 
ATOM     18  C   UNL     1      51.263   6.625  16.385  0.00  0.00    +0.000 A 
ATOM     19  C   UNL     1      50.609   7.246  15.322  0.00  0.00    +0.000 A 
ATOM     20  C   UNL     1      49.325   6.842  14.957  0.00  0.00    +0.000 A 
ATOM     21  N   UNL     1      48.722   5.848  15.659  0.00  0.00    +0.000 NA
ATOM     22  N   UNL     1      49.360   5.226  16.710  0.00  0.00    +0.000 NA
BRANCH  17  24
ATOM     23  N   UNL     1      51.723   4.321  19.004  0.00  0.00    +0.000 NA
ATOM     24  C   UNL     1      51.203   4.911  18.145  0.00  0.00    +0.000 C 
ENDBRANCH  17  24
ENDBRANCH  14  20
ENDBRANCH   1  14
TORSDOF 5
ENDMDL
MODEL 7
REMARK VINA RESULT:    -5.258      4.181      7.935
REMARK INTER + INTRA:          -7.359
REMARK INTER:                  -7.384
REMARK INTRA:                   0.024
REMARK UNBOUND:                -0.564
REMARK  Name = 
REMARK  5 active torsions:
REMARK  status: ('A' for Active; 'I' for Inactive)
REMARK    1  A    between atoms: C_2  and  C_3
REMARK    2  A    between atoms: C_6  and  C_7
REMARK    3  A    between atoms: C_7  and  N_8
REMARK    4  A    between atoms: N_8  and  C_9
REMARK    5  A    between atoms: C_12  and  C_13
REMARK                            x       y       z     vdW  Elec       q    Type
REMARK                         _______ _______ _______ _____ _____    ______ ____
ROOT
ATOM      1  N   UNL     1      47.905   7.220  14.825  0.00  0.00    +0.000 N 
ATOM      2  H   UNL     1      47.030   7.449  15.290  0.00  0.00    +0.000 HD
ENDROOT
BRANCH   1   3
ATOM      3  C   UNL     1      48.755   6.469  15.664  0.00  0.00    +0.000 A 
ATOM      4  C   UNL     1      50.077   6.830  15.945  0.00  0.00    +0.000 A 
ATOM      5  C   UNL     1      50.858   6.072  16.832  0.00  0.00    +0.000 A 
ATOM      6  C   UNL     1      50.317   4.944  17.459  0.00  0.00    +0.000 A 
ATOM      7  C   UNL     1      48.994   4.583  17.197  0.00  0.00    +0.000 A 
ATOM      8  C   UNL     1      48.219   5.352  16.325  0.00  0.00    +0.000 A 
BRANCH   6   9
ATOM      9  C   UNL     1      51.107   4.097  18.388  0.00  0.00    +0.000 C 
ATOM     10  N   UNL     1      51.028   4.386  19.722  0.00  0.00    +0.000 N 
ATOM     11  O   UNL     1      51.775   3.153  17.986  0.00  0.00    +0.000 OA
ATOM     12  H   UNL     1      50.317   4.992  20.107  0.00  0.00    +0.000 HD
ATOM     13  H   UNL     1      51.489   3.741  20.350  0.00  0.00    +0.000 HD
ENDBRANCH   6   9
ENDBRANCH   1   3
BRANCH   1  14
ATOM     14  C   UNL     1      47.796   6.983  13.363  0.00  0.00    +0.000 C 
ATOM     15  C   UNL     1      48.201   8.062  12.373  0.00  0.00    +0.000 C 
ATOM     16  C   UNL     1      49.123   6.910  12.611  0.00  0.00    +0.000 C 
BRANCH  14  20
ATOM     17  C   UNL     1      44.799   4.130  12.280  0.00  0.00    +0.000 A 
ATOM     18  C   UNL     1      44.660   5.425  11.818  0.00  0.00    +0.000 A 
ATOM     19  C   UNL     1      45.640   6.353  12.160  0.00  0.00    +0.000 A 
ATOM     20  C   UNL     1      46.724   5.970  12.949  0.00  0.00    +0.000 A 
ATOM     21  N   UNL     1      46.814   4.680  13.365  0.00  0.00    +0.000 NA
ATOM     22  N   UNL     1      45.848   3.754  13.035  0.00  0.00    +0.000 NA
BRANCH  17  24
ATOM     23  N   UNL     1      43.039   2.312  11.714  0.00  0.00    +0.000 NA
ATOM     24  C   UNL     1      43.834   3.117  11.991  0.00  0.00    +0.000 C 
ENDBRANCH  17  24
ENDBRANCH  14  20
ENDBRANCH   1  14
TORSDOF 5
ENDMDL
