MODEL 1
REMARK VINA RESULT:    -8.251      0.000      0.000
REMARK INTER + INTRA:         -11.065
REMARK INTER:                 -10.663
REMARK INTRA:                  -0.402
REMARK UNBOUND:                -0.402
REMARK  Name = 
REMARK  7 active torsions:
REMARK  status: ('A' for Active; 'I' for Inactive)
REMARK    1  A    between atoms: C_1  and  C_2
REMARK    2  A    between atoms: N_4  and  C_5
REMARK    3  A    between atoms: C_9  and  C_10
REMARK    4  A    between atoms: N_12  and  C_13
REMARK    5  A    between atoms: C_13  and  C_14
REMARK    6  A    between atoms: C_17  and  C_18
REMARK    7  A    between atoms: C_18  and  C_19
REMARK                            x       y       z     vdW  Elec       q    Type
REMARK                         _______ _______ _______ _____ _____    ______ ____
ROOT
ATOM      1  C   UNL     1      47.693   6.942  13.425  0.00  0.00    +0.000 C 
ATOM      2  O   UNL     1      48.133   7.132  12.290  0.00  0.00    +0.000 OA
ATOM      3  N   UNL     1      46.345   6.871  13.660  0.00  0.00    +0.000 N 
ATOM      4  H   UNL     1      45.993   6.714  14.602  0.00  0.00    +0.000 HD
ENDROOT
BRANCH   1  13
ATOM      5  C   UNL     1      51.061   5.493  18.649  0.00  0.00    +0.000 C 
ATOM      6  C   UNL     1      49.914   5.230  17.706  0.00  0.00    +0.000 A 
ATOM      7  N   UNL     1      49.122   4.230  17.970  0.00  0.00    +0.000 NA
ATOM      8  N   UNL     1      48.061   3.974  17.116  0.00  0.00    +0.000 N 
ATOM      9  C   UNL     1      47.204   2.856  17.451  0.00  0.00    +0.000 C 
ATOM     10  C   UNL     1      47.748   4.711  15.965  0.00  0.00    +0.000 A 
ATOM     11  O   UNL     1      46.787   4.432  15.253  0.00  0.00    +0.000 OA
ATOM     12  C   UNL     1      48.635   5.829  15.669  0.00  0.00    +0.000 A 
ATOM     13  C   UNL     1      48.610   6.787  14.576  0.00  0.00    +0.000 A 
ATOM     14  C   UNL     1      49.675   7.672  14.726  0.00  0.00    +0.000 A 
ATOM     15  S   UNL     1      50.645   7.370  16.096  0.00  0.00    +0.000 S 
ATOM     16  C   UNL     1      49.684   6.052  16.541  0.00  0.00    +0.000 A 
ENDBRANCH   1  13
BRANCH   3  17
ATOM     17  C   UNL     1      45.364   7.006  12.611  0.00  0.00    +0.000 C 
BRANCH  17  18
ATOM     18  C   UNL     1      45.279   5.779  11.732  0.00  0.00    +0.000 A 
ATOM     19  C   UNL     1      44.980   4.524  12.279  0.00  0.00    +0.000 A 
ATOM     20  C   UNL     1      44.871   3.391  11.463  0.00  0.00    +0.000 A 
ATOM     21  C   UNL     1      45.055   3.483  10.075  0.00  0.00    +0.000 A 
ATOM     22  C   UNL     1      45.380   4.732   9.530  0.00  0.00    +0.000 A 
ATOM     23  C   UNL     1      45.503   5.863  10.350  0.00  0.00    +0.000 A 
BRANCH  21  24
ATOM     24  C   UNL     1      44.918   2.259   9.191  0.00  0.00    +0.000 C 
BRANCH  24  25
ATOM     25  C   UNL     1      45.839   2.193   7.995  0.00  0.00    +0.000 A 
ATOM     26  C   UNL     1      46.801   1.192   7.870  0.00  0.00    +0.000 A 
ATOM     27  N   UNL     1      47.722   1.162   6.874  0.00  0.00    +0.000 NA
ATOM     28  C   UNL     1      47.650   2.179   5.992  0.00  0.00    +0.000 A 
ATOM     29  C   UNL     1      46.699   3.179   6.096  0.00  0.00    +0.000 A 
ATOM     30  N   UNL     1      45.782   3.212   7.094  0.00  0.00    +0.000 NA
ENDBRANCH  24  25
ENDBRANCH  21  24
ENDBRANCH  17  18
ENDBRANCH   3  17
TORSDOF 5
ENDMDL
MODEL 2
REMARK VINA RESULT:    -7.951      1.696      2.332
REMARK INTER + INTRA:         -10.678
REMARK INTER:                  -9.706
REMARK INTRA:                  -0.972
REMARK UNBOUND:                -0.402
REMARK  Name = 
REMARK  7 active torsions:
REMARK  status: ('A' for Active; 'I' for Inactive)
REMARK    1  A    between atoms: C_1  and  C_2
REMARK    2  A    between atoms: N_4  and  C_5
REMARK    3  A    between atoms: C_9  and  C_10
REMARK    4  A    between atoms: N_12  and  C_13
REMARK    5  A    between atoms: C_13  and  C_14
REMARK    6  A    between atoms: C_17  and  C_18
REMARK    7  A    between atoms: C_18  and  C_19
REMARK                            x       y       z     vdW  Elec       q    Type
REMARK                         _______ _______ _______ _____ _____    ______ ____
ROOT
ATOM      1  C   UNL     1      48.775   8.127  15.267  0.00  0.00    +0.000 C 
ATOM      2  O   UNL     1      49.731   8.470  14.570  0.00  0.00    +0.000 OA
ATOM      3  N   UNL     1      47.491   8.193  14.792  0.00  0.00    +0.000 N 
ATOM      4  H   UNL     1      46.709   7.905  15.377  0.00  0.00    +0.000 HD
ENDROOT
BRANCH   1  13
ATOM      5  C   UNL     1      49.362   5.103  20.856  0.00  0.00    +0.000 C 
ATOM      6  C   UNL     1      49.021   5.102  19.387  0.00  0.00    +0.000 A 
ATOM      7  N   UNL     1      48.627   3.982  18.852  0.00  0.00    +0.000 NA
ATOM      8  N   UNL     1      48.306   3.962  17.503  0.00  0.00    +0.000 N 
ATOM      9  C   UNL     1      47.868   2.697  16.951  0.00  0.00    +0.000 C 
ATOM     10  C   UNL     1      48.364   5.063  16.638  0.00  0.00    +0.000 A 
ATOM     11  O   UNL     1      48.061   4.977  15.451  0.00  0.00    +0.000 OA
ATOM     12  C   UNL     1      48.806   6.316  17.237  0.00  0.00    +0.000 A 
ATOM     13  C   UNL     1      48.983   7.632  16.646  0.00  0.00    +0.000 A 
ATOM     14  C   UNL     1      49.429   8.513  17.628  0.00  0.00    +0.000 A 
ATOM     15  S   UNL     1      49.622   7.803  19.167  0.00  0.00    +0.000 S 
ATOM     16  C   UNL     1      49.121   6.297  18.583  0.00  0.00    +0.000 A 
ENDBRANCH   1  13
BRANCH   3  17
ATOM     17  C   UNL     1      47.176   8.656  13.463  0.00  0.00    +0.000 C 
BRANCH  17  18
ATOM     18  C   UNL     1      46.386   7.644  12.665  0.00  0.00    +0.000 A 
ATOM     19  C   UNL     1      46.799   6.307  12.594  0.00  0.00    +0.000 A 
ATOM     20  C   UNL     1      46.053   5.360  11.880  0.00  0.00    +0.000 A 
ATOM     21  C   UNL     1      44.869   5.725  11.221  0.00  0.00    +0.000 A 
ATOM     22  C   UNL     1      44.469   7.067  11.268  0.00  0.00    +0.000 A 
ATOM     23  C   UNL     1      45.225   8.017  11.971  0.00  0.00    +0.000 A 
BRANCH  21  24
ATOM     24  C   UNL     1      44.052   4.696  10.465  0.00  0.00    +0.000 C 
BRANCH  24  25
ATOM     25  C   UNL     1      44.794   3.888   9.425  0.00  0.00    +0.000 A 
ATOM     26  C   UNL     1      44.903   2.502   9.521  0.00  0.00    +0.000 A 
ATOM     27  N   UNL     1      45.654   1.752   8.675  0.00  0.00    +0.000 NA
ATOM     28  C   UNL     1      46.301   2.443   7.714  0.00  0.00    +0.000 A 
ATOM     29  C   UNL     1      46.200   3.818   7.599  0.00  0.00    +0.000 A 
ATOM     30  N   UNL     1      45.454   4.567   8.447  0.00  0.00    +0.000 NA
ENDBRANCH  24  25
ENDBRANCH  21  24
ENDBRANCH  17  18
ENDBRANCH   3  17
TORSDOF 5
ENDMDL
MODEL 3
REMARK VINA RESULT:    -7.871      1.778      2.386
REMARK INTER + INTRA:         -10.574
REMARK INTER:                 -10.088
REMARK INTRA:                  -0.486
REMARK UNBOUND:                -0.402
REMARK  Name = 
REMARK  7 active torsions:
REMARK  status: ('A' for Active; 'I' for Inactive)
REMARK    1  A    between atoms: C_1  and  C_2
REMARK    2  A    between atoms: N_4  and  C_5
REMARK    3  A    between atoms: C_9  and  C_10
REMARK    4  A    between atoms: N_12  and  C_13
REMARK    5  A    between atoms: C_13  and  C_14
REMARK    6  A    between atoms: C_17  and  C_18
REMARK    7  A    between atoms: C_18  and  C_19
REMARK                            x       y       z     vdW  Elec       q    Type
REMARK                         _______ _______ _______ _____ _____    ______ ____
ROOT
ATOM      1  C   UNL     1      47.378   5.695  14.168  0.00  0.00    +0.000 C 
ATOM      2  O   UNL     1      48.275   5.747  13.325  0.00  0.00    +0.000 OA
ATOM      3  N   UNL     1      46.112   6.140  13.885  0.00  0.00    +0.000 N 
ATOM      4  H   UNL     1      45.379   6.091  14.589  0.00  0.00    +0.000 HD
ENDROOT
BRANCH   1  13
ATOM      5  C   UNL     1      49.002   4.205  20.157  0.00  0.00    +0.000 C 
ATOM      6  C   UNL     1      49.006   5.160  18.989  0.00  0.00    +0.000 A 
ATOM      7  N   UNL     1      49.620   6.300  19.133  0.00  0.00    +0.000 NA
ATOM      8  N   UNL     1      49.637   7.189  18.070  0.00  0.00    +0.000 N 
ATOM      9  C   UNL     1      50.336   8.441  18.273  0.00  0.00    +0.000 C 
ATOM     10  C   UNL     1      49.042   6.971  16.820  0.00  0.00    +0.000 A 
ATOM     11  O   UNL     1      49.099   7.802  15.917  0.00  0.00    +0.000 OA
ATOM     12  C   UNL     1      48.355   5.697  16.660  0.00  0.00    +0.000 A 
ATOM     13  C   UNL     1      47.639   5.150  15.519  0.00  0.00    +0.000 A 
ATOM     14  C   UNL     1      47.149   3.890  15.853  0.00  0.00    +0.000 A 
ATOM     15  S   UNL     1      47.527   3.394  17.441  0.00  0.00    +0.000 S 
ATOM     16  C   UNL     1      48.356   4.836  17.741  0.00  0.00    +0.000 A 
ENDBRANCH   1  13
BRANCH   3  17
ATOM     17  C   UNL     1      45.749   6.686  12.600  0.00  0.00    +0.000 C 
BRANCH  17  18
ATOM     18  C   UNL     1      45.517   5.617  11.557  0.00  0.00    +0.000 A 
ATOM     19  C   UNL     1      44.929   4.393  11.903  0.00  0.00    +0.000 A 
ATOM     20  C   UNL     1      44.686   3.412  10.933  0.00  0.00    +0.000 A 
ATOM     21  C   UNL     1      45.021   3.630   9.588  0.00  0.00    +0.000 A 
ATOM     22  C   UNL     1      45.633   4.843   9.245  0.00  0.00    +0.000 A 
ATOM     23  C   UNL     1      45.890   5.818  10.220  0.00  0.00    +0.000 A 
BRANCH  21  24
ATOM     24  C   UNL     1      44.740   2.575   8.536  0.00  0.00    +0.000 C 
BRANCH  24  25
ATOM     25  C   UNL     1      45.837   2.330   7.527  0.00  0.00    +0.000 A 
ATOM     26  C   UNL     1      46.769   1.307   7.698  0.00  0.00    +0.000 A 
ATOM     27  N   UNL     1      47.835   1.124   6.879  0.00  0.00    +0.000 NA
ATOM     28  C   UNL     1      47.942   2.009   5.867  0.00  0.00    +0.000 A 
ATOM     29  C   UNL     1      47.025   3.028   5.678  0.00  0.00    +0.000 A 
ATOM     30  N   UNL     1      45.963   3.213   6.499  0.00  0.00    +0.000 NA
ENDBRANCH  24  25
ENDBRANCH  21  24
ENDBRANCH  17  18
ENDBRANCH   3  17
TORSDOF 5
ENDMDL
MODEL 4
REMARK VINA RESULT:    -7.616      1.618      2.049
REMARK INTER + INTRA:         -10.244
REMARK INTER:                  -9.580
REMARK INTRA:                  -0.664
REMARK UNBOUND:                -0.402
REMARK  Name = 
REMARK  7 active torsions:
REMARK  status: ('A' for Active; 'I' for Inactive)
REMARK    1  A    between atoms: C_1  and  C_2
REMARK    2  A    between atoms: N_4  and  C_5
REMARK    3  A    between atoms: C_9  and  C_10
REMARK    4  A    between atoms: N_12  and  C_13
REMARK    5  A    between atoms: C_13  and  C_14
REMARK    6  A    between atoms: C_17  and  C_18
REMARK    7  A    between atoms: C_18  and  C_19
REMARK                            x       y       z     vdW  Elec       q    Type
REMARK                         _______ _______ _______ _____ _____    ______ ____
ROOT
ATOM      1  C   UNL     1      46.995   5.098  14.187  0.00  0.00    +0.000 C 
ATOM      2  O   UNL     1      47.118   3.883  14.343  0.00  0.00    +0.000 OA
ATOM      3  N   UNL     1      45.846   5.635  13.666  0.00  0.00    +0.000 N 
ATOM      4  H   UNL     1      45.757   6.641  13.543  0.00  0.00    +0.000 HD
ENDROOT
BRANCH   1  13
ATOM      5  C   UNL     1      51.596   8.728  16.714  0.00  0.00    +0.000 C 
ATOM      6  C   UNL     1      50.524   7.677  16.850  0.00  0.00    +0.000 A 
ATOM      7  N   UNL     1      50.320   7.160  18.028  0.00  0.00    +0.000 NA
ATOM      8  N   UNL     1      49.336   6.194  18.173  0.00  0.00    +0.000 N 
ATOM      9  C   UNL     1      49.142   5.650  19.501  0.00  0.00    +0.000 C 
ATOM     10  C   UNL     1      48.516   5.709  17.145  0.00  0.00    +0.000 A 
ATOM     11  O   UNL     1      47.658   4.853  17.344  0.00  0.00    +0.000 OA
ATOM     12  C   UNL     1      48.745   6.287  15.827  0.00  0.00    +0.000 A 
ATOM     13  C   UNL     1      48.091   6.023  14.556  0.00  0.00    +0.000 A 
ATOM     14  C   UNL     1      48.664   6.828  13.575  0.00  0.00    +0.000 A 
ATOM     15  S   UNL     1      49.912   7.841  14.147  0.00  0.00    +0.000 S 
ATOM     16  C   UNL     1      49.735   7.245  15.719  0.00  0.00    +0.000 A 
ENDBRANCH   1  13
BRANCH   3  17
ATOM     17  C   UNL     1      44.717   4.826  13.277  0.00  0.00    +0.000 C 
BRANCH  17  18
ATOM     18  C   UNL     1      44.744   4.456  11.811  0.00  0.00    +0.000 A 
ATOM     19  C   UNL     1      44.158   3.265  11.361  0.00  0.00    +0.000 A 
ATOM     20  C   UNL     1      44.156   2.935  10.000  0.00  0.00    +0.000 A 
ATOM     21  C   UNL     1      44.736   3.789   9.050  0.00  0.00    +0.000 A 
ATOM     22  C   UNL     1      45.347   4.966   9.502  0.00  0.00    +0.000 A 
ATOM     23  C   UNL     1      45.361   5.289  10.867  0.00  0.00    +0.000 A 
BRANCH  21  24
ATOM     24  C   UNL     1      44.716   3.439   7.575  0.00  0.00    +0.000 C 
BRANCH  24  25
ATOM     25  C   UNL     1      45.958   2.773   7.030  0.00  0.00    +0.000 A 
ATOM     26  C   UNL     1      46.575   1.720   7.703  0.00  0.00    +0.000 A 
ATOM     27  N   UNL     1      47.752   1.171   7.309  0.00  0.00    +0.000 NA
ATOM     28  C   UNL     1      48.301   1.716   6.204  0.00  0.00    +0.000 A 
ATOM     29  C   UNL     1      47.700   2.758   5.520  0.00  0.00    +0.000 A 
ATOM     30  N   UNL     1      46.527   3.310   5.916  0.00  0.00    +0.000 NA
ENDBRANCH  24  25
ENDBRANCH  21  24
ENDBRANCH  17  18
ENDBRANCH   3  17
TORSDOF 5
ENDMDL
MODEL 5
REMARK VINA RESULT:    -7.572      2.160      3.715
REMARK INTER + INTRA:         -10.188
REMARK INTER:                  -9.412
REMARK INTRA:                  -0.775
REMARK UNBOUND:                -0.402
REMARK  Name = 
REMARK  7 active torsions:
REMARK  status: ('A' for Active; 'I' for Inactive)
REMARK    1  A    between atoms: C_1  and  C_2
REMARK    2  A    between atoms: N_4  and  C_5
REMARK    3  A    between atoms: C_9  and  C_10
REMARK    4  A    between atoms: N_12  and  C_13
REMARK    5  A    between atoms: C_13  and  C_14
REMARK    6  A    between atoms: C_17  and  C_18
REMARK    7  A    between atoms: C_18  and  C_19
REMARK                            x       y       z     vdW  Elec       q    Type
REMARK                         _______ _______ _______ _____ _____    ______ ____
ROOT
ATOM      1  C   UNL     1      48.229   5.911  15.436  0.00  0.00    +0.000 C 
ATOM      2  O   UNL     1      48.510   4.895  16.074  0.00  0.00    +0.000 OA
ATOM      3  N   UNL     1      47.155   5.940  14.584  0.00  0.00    +0.000 N 
ATOM      4  H   UNL     1      46.932   6.785  14.063  0.00  0.00    +0.000 HD
ENDROOT
BRANCH   1  13
ATOM      5  C   UNL     1      51.933  11.090  15.014  0.00  0.00    +0.000 C 
ATOM      6  C   UNL     1      51.255   9.901  14.382  0.00  0.00    +0.000 A 
ATOM      7  N   UNL     1      51.428   9.705  13.106  0.00  0.00    +0.000 NA
ATOM      8  N   UNL     1      50.814   8.615  12.508  0.00  0.00    +0.000 N 
ATOM      9  C   UNL     1      51.038   8.433  11.089  0.00  0.00    +0.000 C 
ATOM     10  C   UNL     1      50.006   7.677  13.164  0.00  0.00    +0.000 A 
ATOM     11  O   UNL     1      49.495   6.729  12.573  0.00  0.00    +0.000 OA
ATOM     12  C   UNL     1      49.812   7.898  14.592  0.00  0.00    +0.000 A 
ATOM     13  C   UNL     1      49.047   7.138  15.567  0.00  0.00    +0.000 A 
ATOM     14  C   UNL     1      49.166   7.749  16.812  0.00  0.00    +0.000 A 
ATOM     15  S   UNL     1      50.138   9.151  16.810  0.00  0.00    +0.000 S 
ATOM     16  C   UNL     1      50.436   8.995  15.153  0.00  0.00    +0.000 A 
ENDBRANCH   1  13
BRANCH   3  17
ATOM     17  C   UNL     1      46.291   4.802  14.384  0.00  0.00    +0.000 C 
BRANCH  17  18
ATOM     18  C   UNL     1      45.906   4.611  12.935  0.00  0.00    +0.000 A 
ATOM     19  C   UNL     1      45.308   3.420  12.503  0.00  0.00    +0.000 A 
ATOM     20  C   UNL     1      44.923   3.252  11.166  0.00  0.00    +0.000 A 
ATOM     21  C   UNL     1      45.122   4.274  10.226  0.00  0.00    +0.000 A 
ATOM     22  C   UNL     1      45.744   5.455  10.650  0.00  0.00    +0.000 A 
ATOM     23  C   UNL     1      46.142   5.616  11.986  0.00  0.00    +0.000 A 
BRANCH  21  24
ATOM     24  C   UNL     1      44.687   4.098   8.784  0.00  0.00    +0.000 C 
BRANCH  24  25
ATOM     25  C   UNL     1      45.576   3.233   7.920  0.00  0.00    +0.000 A 
ATOM     26  C   UNL     1      45.907   1.931   8.289  0.00  0.00    +0.000 A 
ATOM     27  N   UNL     1      46.790   1.162   7.603  0.00  0.00    +0.000 NA
ATOM     28  C   UNL     1      47.340   1.746   6.518  0.00  0.00    +0.000 A 
ATOM     29  C   UNL     1      47.020   3.036   6.133  0.00  0.00    +0.000 A 
ATOM     30  N   UNL     1      46.142   3.805   6.821  0.00  0.00    +0.000 NA
ENDBRANCH  24  25
ENDBRANCH  21  24
ENDBRANCH  17  18
ENDBRANCH   3  17
TORSDOF 5
ENDMDL
MODEL 6
REMARK VINA RESULT:    -7.461      3.804      8.909
REMARK INTER + INTRA:         -10.044
REMARK INTER:                  -9.545
REMARK INTRA:                  -0.499
REMARK UNBOUND:                -0.402
REMARK  Name = 
REMARK  7 active torsions:
REMARK  status: ('A' for Active; 'I' for Inactive)
REMARK    1  A    between atoms: C_1  and  C_2
REMARK    2  A    between atoms: N_4  and  C_5
REMARK    3  A    between atoms: C_9  and  C_10
REMARK    4  A    between atoms: N_12  and  C_13
REMARK    5  A    between atoms: C_13  and  C_14
REMARK    6  A    between atoms: C_17  and  C_18
REMARK    7  A    between atoms: C_18  and  C_19
REMARK                            x       y       z     vdW  Elec       q    Type
REMARK                         _______ _______ _______ _____ _____    ______ ____
ROOT
ATOM      1  C   UNL     1      47.347   4.107  14.834  0.00  0.00    +0.000 C 
ATOM      2  O   UNL     1      47.462   3.036  14.238  0.00  0.00    +0.000 OA
ATOM      3  N   UNL     1      47.506   4.184  16.194  0.00  0.00    +0.000 N 
ATOM      4  H   UNL     1      47.409   5.075  16.675  0.00  0.00    +0.000 HD
ENDROOT
BRANCH   1  13
ATOM      5  C   UNL     1      45.149   8.983  11.353  0.00  0.00    +0.000 C 
ATOM      6  C   UNL     1      45.015   7.579  11.884  0.00  0.00    +0.000 A 
ATOM      7  N   UNL     1      43.968   6.889  11.532  0.00  0.00    +0.000 NA
ATOM      8  N   UNL     1      43.830   5.594  12.008  0.00  0.00    +0.000 N 
ATOM      9  C   UNL     1      42.652   4.863  11.588  0.00  0.00    +0.000 C 
ATOM     10  C   UNL     1      44.735   4.938  12.853  0.00  0.00    +0.000 A 
ATOM     11  O   UNL     1      44.553   3.785  13.235  0.00  0.00    +0.000 OA
ATOM     12  C   UNL     1      45.906   5.711  13.247  0.00  0.00    +0.000 A 
ATOM     13  C   UNL     1      47.028   5.352  14.099  0.00  0.00    +0.000 A 
ATOM     14  C   UNL     1      47.901   6.434  14.178  0.00  0.00    +0.000 A 
ATOM     15  S   UNL     1      47.404   7.797  13.281  0.00  0.00    +0.000 S 
ATOM     16  C   UNL     1      46.010   6.998  12.756  0.00  0.00    +0.000 A 
ENDBRANCH   1  13
BRANCH   3  17
ATOM     17  C   UNL     1      47.821   3.033  17.005  0.00  0.00    +0.000 C 
BRANCH  17  18
ATOM     18  C   UNL     1      49.299   2.914  17.298  0.00  0.00    +0.000 A 
ATOM     19  C   UNL     1      49.974   1.701  17.103  0.00  0.00    +0.000 A 
ATOM     20  C   UNL     1      51.350   1.596  17.346  0.00  0.00    +0.000 A 
ATOM     21  C   UNL     1      52.090   2.704  17.784  0.00  0.00    +0.000 A 
ATOM     22  C   UNL     1      51.412   3.911  18.005  0.00  0.00    +0.000 A 
ATOM     23  C   UNL     1      50.032   4.011  17.776  0.00  0.00    +0.000 A 
BRANCH  21  24
ATOM     24  C   UNL     1      53.582   2.594  18.027  0.00  0.00    +0.000 C 
BRANCH  24  25
ATOM     25  C   UNL     1      54.173   1.206  17.937  0.00  0.00    +0.000 A 
ATOM     26  C   UNL     1      54.495   0.630  16.709  0.00  0.00    +0.000 A 
ATOM     27  N   UNL     1      54.919  -0.652  16.575  0.00  0.00    +0.000 NA
ATOM     28  C   UNL     1      55.012  -1.351  17.725  0.00  0.00    +0.000 A 
ATOM     29  C   UNL     1      54.703  -0.795  18.953  0.00  0.00    +0.000 A 
ATOM     30  N   UNL     1      54.275   0.484  19.087  0.00  0.00    +0.000 NA
ENDBRANCH  24  25
ENDBRANCH  21  24
ENDBRANCH  17  18
ENDBRANCH   3  17
TORSDOF 5
ENDMDL
MODEL 7
REMARK VINA RESULT:    -7.306      2.105      3.107
REMARK INTER + INTRA:          -9.843
REMARK INTER:                  -9.032
REMARK INTRA:                  -0.811
REMARK UNBOUND:                -0.402
REMARK  Name = 
REMARK  7 active torsions:
REMARK  status: ('A' for Active; 'I' for Inactive)
REMARK    1  A    between atoms: C_1  and  C_2
REMARK    2  A    between atoms: N_4  and  C_5
REMARK    3  A    between atoms: C_9  and  C_10
REMARK    4  A    between atoms: N_12  and  C_13
REMARK    5  A    between atoms: C_13  and  C_14
REMARK    6  A    between atoms: C_17  and  C_18
REMARK    7  A    between atoms: C_18  and  C_19
REMARK                            x       y       z     vdW  Elec       q    Type
REMARK                         _______ _______ _______ _____ _____    ______ ____
ROOT
ATOM      1  C   UNL     1      47.442   4.273  16.045  0.00  0.00    +0.000 C 
ATOM      2  O   UNL     1      46.367   4.072  16.613  0.00  0.00    +0.000 OA
ATOM      3  N   UNL     1      47.517   5.063  14.927  0.00  0.00    +0.000 N 
ATOM      4  H   UNL     1      48.410   5.222  14.467  0.00  0.00    +0.000 HD
ENDROOT
BRANCH   1  13
ATOM      5  C   UNL     1      53.107   2.593  18.455  0.00  0.00    +0.000 C 
ATOM      6  C   UNL     1      52.082   3.643  18.108  0.00  0.00    +0.000 A 
ATOM      7  N   UNL     1      52.365   4.886  18.379  0.00  0.00    +0.000 NA
ATOM      8  N   UNL     1      51.436   5.866  18.064  0.00  0.00    +0.000 N 
ATOM      9  C   UNL     1      51.794   7.233  18.378  0.00  0.00    +0.000 C 
ATOM     10  C   UNL     1      50.189   5.641  17.464  0.00  0.00    +0.000 A 
ATOM     11  O   UNL     1      49.414   6.559  17.207  0.00  0.00    +0.000 OA
ATOM     12  C   UNL     1      49.874   4.251  17.162  0.00  0.00    +0.000 A 
ATOM     13  C   UNL     1      48.692   3.664  16.553  0.00  0.00    +0.000 A 
ATOM     14  C   UNL     1      48.859   2.284  16.477  0.00  0.00    +0.000 A 
ATOM     15  S   UNL     1      50.346   1.727  17.099  0.00  0.00    +0.000 S 
ATOM     16  C   UNL     1      50.822   3.300  17.492  0.00  0.00    +0.000 A 
ENDBRANCH   1  13
BRANCH   3  17
ATOM     17  C   UNL     1      46.362   5.706  14.350  0.00  0.00    +0.000 C 
BRANCH  17  18
ATOM     18  C   UNL     1      45.925   5.065  13.053  0.00  0.00    +0.000 A 
ATOM     19  C   UNL     1      45.657   3.692  12.986  0.00  0.00    +0.000 A 
ATOM     20  C   UNL     1      45.224   3.101  11.792  0.00  0.00    +0.000 A 
ATOM     21  C   UNL     1      45.042   3.869  10.633  0.00  0.00    +0.000 A 
ATOM     22  C   UNL     1      45.335   5.238  10.690  0.00  0.00    +0.000 A 
ATOM     23  C   UNL     1      45.783   5.826  11.883  0.00  0.00    +0.000 A 
BRANCH  21  24
ATOM     24  C   UNL     1      44.554   3.232   9.346  0.00  0.00    +0.000 C 
BRANCH  24  25
ATOM     25  C   UNL     1      45.623   2.798   8.369  0.00  0.00    +0.000 A 
ATOM     26  C   UNL     1      46.047   1.473   8.294  0.00  0.00    +0.000 A 
ATOM     27  N   UNL     1      47.080   1.063   7.515  0.00  0.00    +0.000 NA
ATOM     28  C   UNL     1      47.684   2.035   6.802  0.00  0.00    +0.000 A 
ATOM     29  C   UNL     1      47.274   3.355   6.859  0.00  0.00    +0.000 A 
ATOM     30  N   UNL     1      46.245   3.765   7.641  0.00  0.00    +0.000 NA
ENDBRANCH  24  25
ENDBRANCH  21  24
ENDBRANCH  17  18
ENDBRANCH   3  17
TORSDOF 5
ENDMDL
MODEL 8
REMARK VINA RESULT:    -6.992      2.935      4.146
REMARK INTER + INTRA:          -9.438
REMARK INTER:                  -8.358
REMARK INTRA:                  -1.079
REMARK UNBOUND:                -0.402
REMARK  Name = 
REMARK  7 active torsions:
REMARK  status: ('A' for Active; 'I' for Inactive)
REMARK    1  A    between atoms: C_1  and  C_2
REMARK    2  A    between atoms: N_4  and  C_5
REMARK    3  A    between atoms: C_9  and  C_10
REMARK    4  A    between atoms: N_12  and  C_13
REMARK    5  A    between atoms: C_13  and  C_14
REMARK    6  A    between atoms: C_17  and  C_18
REMARK    7  A    between atoms: C_18  and  C_19
REMARK                            x       y       z     vdW  Elec       q    Type
REMARK                         _______ _______ _______ _____ _____    ______ ____
ROOT
ATOM      1  C   UNL     1      49.068   8.607  16.028  0.00  0.00    +0.000 C 
ATOM      2  O   UNL     1      48.400   9.642  16.010  0.00  0.00    +0.000 OA
ATOM      3  N   UNL     1      49.527   8.039  14.869  0.00  0.00    +0.000 N 
ATOM      4  H   UNL     1      50.078   7.184  14.896  0.00  0.00    +0.000 HD
ENDROOT
BRANCH   1  13
ATOM      5  C   UNL     1      50.134   4.893  21.107  0.00  0.00    +0.000 C 
ATOM      6  C   UNL     1      49.662   5.079  19.687  0.00  0.00    +0.000 A 
ATOM      7  N   UNL     1      49.212   4.035  19.050  0.00  0.00    +0.000 NA
ATOM      8  N   UNL     1      48.770   4.188  17.745  0.00  0.00    +0.000 N 
ATOM      9  C   UNL     1      48.275   3.002  17.078  0.00  0.00    +0.000 C 
ATOM     10  C   UNL     1      48.759   5.391  17.027  0.00  0.00    +0.000 A 
ATOM     11  O   UNL     1      48.349   5.457  15.871  0.00  0.00    +0.000 OA
ATOM     12  C   UNL     1      49.263   6.558  17.739  0.00  0.00    +0.000 A 
ATOM     13  C   UNL     1      49.396   7.940  17.308  0.00  0.00    +0.000 A 
ATOM     14  C   UNL     1      49.935   8.690  18.351  0.00  0.00    +0.000 A 
ATOM     15  S   UNL     1      50.261   7.788  19.761  0.00  0.00    +0.000 S 
ATOM     16  C   UNL     1      49.698   6.368  19.038  0.00  0.00    +0.000 A 
ENDBRANCH   1  13
BRANCH   3  17
ATOM     17  C   UNL     1      49.268   8.607  13.568  0.00  0.00    +0.000 C 
BRANCH  17  18
ATOM     18  C   UNL     1      47.957   8.139  12.979  0.00  0.00    +0.000 A 
ATOM     19  C   UNL     1      47.892   6.965  12.216  0.00  0.00    +0.000 A 
ATOM     20  C   UNL     1      46.674   6.513  11.693  0.00  0.00    +0.000 A 
ATOM     21  C   UNL     1      45.485   7.221  11.924  0.00  0.00    +0.000 A 
ATOM     22  C   UNL     1      45.552   8.409  12.664  0.00  0.00    +0.000 A 
ATOM     23  C   UNL     1      46.775   8.868  13.174  0.00  0.00    +0.000 A 
BRANCH  21  24
ATOM     24  C   UNL     1      44.163   6.720  11.375  0.00  0.00    +0.000 C 
BRANCH  24  25
ATOM     25  C   UNL     1      43.858   5.257  11.600  0.00  0.00    +0.000 A 
ATOM     26  C   UNL     1      43.588   4.756  12.872  0.00  0.00    +0.000 A 
ATOM     27  N   UNL     1      43.423   3.435  13.134  0.00  0.00    +0.000 NA
ATOM     28  C   UNL     1      43.537   2.618  12.067  0.00  0.00    +0.000 A 
ATOM     29  C   UNL     1      43.799   3.097  10.796  0.00  0.00    +0.000 A 
ATOM     30  N   UNL     1      43.969   4.416  10.535  0.00  0.00    +0.000 NA
ENDBRANCH  24  25
ENDBRANCH  21  24
ENDBRANCH  17  18
ENDBRANCH   3  17
TORSDOF 5
ENDMDL
MODEL 9
REMARK VINA RESULT:    -6.795      4.349      8.880
REMARK INTER + INTRA:          -9.184
REMARK INTER:                  -8.334
REMARK INTRA:                  -0.849
REMARK UNBOUND:                -0.402
REMARK  Name = 
REMARK  7 active torsions:
REMARK  status: ('A' for Active; 'I' for Inactive)
REMARK    1  A    between atoms: C_1  and  C_2
REMARK    2  A    between atoms: N_4  and  C_5
REMARK    3  A    between atoms: C_9  and  C_10
REMARK    4  A    between atoms: N_12  and  C_13
REMARK    5  A    between atoms: C_13  and  C_14
REMARK    6  A    between atoms: C_17  and  C_18
REMARK    7  A    between atoms: C_18  and  C_19
REMARK                            x       y       z     vdW  Elec       q    Type
REMARK                         _______ _______ _______ _____ _____    ______ ____
ROOT
ATOM      1  C   UNL     1      46.985   4.256  14.573  0.00  0.00    +0.000 C 
ATOM      2  O   UNL     1      47.279   3.218  13.978  0.00  0.00    +0.000 OA
ATOM      3  N   UNL     1      47.073   4.340  15.938  0.00  0.00    +0.000 N 
ATOM      4  H   UNL     1      46.828   5.203  16.419  0.00  0.00    +0.000 HD
ENDROOT
BRANCH   1  13
ATOM      5  C   UNL     1      45.859   9.826  11.670  0.00  0.00    +0.000 C 
ATOM      6  C   UNL     1      46.739   8.930  12.504  0.00  0.00    +0.000 A 
ATOM      7  N   UNL     1      47.881   9.404  12.915  0.00  0.00    +0.000 NA
ATOM      8  N   UNL     1      48.701   8.595  13.685  0.00  0.00    +0.000 N 
ATOM      9  C   UNL     1      49.959   9.165  14.124  0.00  0.00    +0.000 C 
ATOM     10  C   UNL     1      48.411   7.281  14.077  0.00  0.00    +0.000 A 
ATOM     11  O   UNL     1      49.184   6.620  14.767  0.00  0.00    +0.000 OA
ATOM     12  C   UNL     1      47.134   6.751  13.617  0.00  0.00    +0.000 A 
ATOM     13  C   UNL     1      46.523   5.450  13.830  0.00  0.00    +0.000 A 
ATOM     14  C   UNL     1      45.290   5.418  13.184  0.00  0.00    +0.000 A 
ATOM     15  S   UNL     1      44.891   6.863  12.371  0.00  0.00    +0.000 S 
ATOM     16  C   UNL     1      46.343   7.584  12.848  0.00  0.00    +0.000 A 
ENDBRANCH   1  13
BRANCH   3  17
ATOM     17  C   UNL     1      47.514   3.238  16.758  0.00  0.00    +0.000 C 
BRANCH  17  18
ATOM     18  C   UNL     1      48.990   3.304  17.078  0.00  0.00    +0.000 A 
ATOM     19  C   UNL     1      49.606   4.528  17.373  0.00  0.00    +0.000 A 
ATOM     20  C   UNL     1      50.967   4.588  17.699  0.00  0.00    +0.000 A 
ATOM     21  C   UNL     1      51.749   3.425  17.742  0.00  0.00    +0.000 A 
ATOM     22  C   UNL     1      51.141   2.204  17.421  0.00  0.00    +0.000 A 
ATOM     23  C   UNL     1      49.782   2.146  17.081  0.00  0.00    +0.000 A 
BRANCH  21  24
ATOM     24  C   UNL     1      53.217   3.489  18.114  0.00  0.00    +0.000 C 
BRANCH  24  25
ATOM     25  C   UNL     1      53.934   2.164  18.237  0.00  0.00    +0.000 A 
ATOM     26  C   UNL     1      54.279   1.635  19.480  0.00  0.00    +0.000 A 
ATOM     27  N   UNL     1      55.021   0.509  19.631  0.00  0.00    +0.000 NA
ATOM     28  C   UNL     1      55.413  -0.081  18.483  0.00  0.00    +0.000 A 
ATOM     29  C   UNL     1      55.075   0.425  17.241  0.00  0.00    +0.000 A 
ATOM     30  N   UNL     1      54.338   1.553  17.090  0.00  0.00    +0.000 NA
ENDBRANCH  24  25
ENDBRANCH  21  24
ENDBRANCH  17  18
ENDBRANCH   3  17
TORSDOF 5
ENDMDL
