MODEL 1
REMARK VINA RESULT:    -7.822      0.000      0.000
REMARK INTER + INTRA:         -12.871
REMARK INTER:                 -11.480
REMARK INTRA:                  -1.390
REMARK UNBOUND:                -1.390
REMARK  Name = 
REMARK  9 active torsions:
REMARK  status: ('A' for Active; 'I' for Inactive)
REMARK    1  A    between atoms: C_1  and  O_2
REMARK    2  A    between atoms: O_2  and  C_3
REMARK    3  A    between atoms: C_10  and  C_11
REMARK    4  A    between atoms: N_13  and  C_14
REMARK    5  A    between atoms: C_14  and  C_15
REMARK    6  A    between atoms: C_18  and  C_19
REMARK    7  A    between atoms: C_19  and  N_20
REMARK    8  A    between atoms: N_20  and  C_21
REMARK    9  A    between atoms: C_21  and  C_22
REMARK                            x       y       z     vdW  Elec       q    Type
REMARK                         _______ _______ _______ _____ _____    ______ ____
ROOT
ATOM      1  C   UNL     1      47.567   6.625  12.735  0.00  0.00    +0.000 A 
ATOM      2  C   UNL     1      46.881   7.383  11.779  0.00  0.00    +0.000 A 
ATOM      3  C   UNL     1      45.573   7.049  11.410  0.00  0.00    +0.000 A 
ATOM      4  C   UNL     1      44.920   5.953  11.992  0.00  0.00    +0.000 A 
ATOM      5  C   UNL     1      45.606   5.201  12.956  0.00  0.00    +0.000 A 
ATOM      6  C   UNL     1      46.913   5.536  13.326  0.00  0.00    +0.000 A 
ENDROOT
BRANCH   1   7
ATOM      7  C   UNL     1      48.962   7.003  13.163  0.00  0.00    +0.000 C 
BRANCH   7  10
ATOM      8  C   UNL     1      48.648   7.929  15.419  0.00  0.00    +0.000 C 
ATOM      9  O   UNL     1      48.110   8.934  14.958  0.00  0.00    +0.000 OA
ATOM     10  N   UNL     1      49.103   6.933  14.599  0.00  0.00    +0.000 N 
ATOM     11  H   UNL     1      49.582   6.130  14.984  0.00  0.00    +0.000 HD
BRANCH   8  19
ATOM     12  C   UNL     1      48.588   5.194  17.515  0.00  0.00    +0.000 A 
ATOM     13  N   UNL     1      48.627   4.320  18.541  0.00  0.00    +0.000 NA
ATOM     14  C   UNL     1      48.860   4.798  19.766  0.00  0.00    +0.000 A 
ATOM     15  N   UNL     1      49.060   6.068  20.103  0.00  0.00    +0.000 NA
ATOM     16  C   UNL     1      49.021   6.904  19.052  0.00  0.00    +0.000 A 
ATOM     17  S   UNL     1      49.254   8.567  19.299  0.00  0.00    +0.000 S 
ATOM     18  C   UNL     1      49.067   8.889  17.642  0.00  0.00    +0.000 A 
ATOM     19  C   UNL     1      48.833   7.757  16.870  0.00  0.00    +0.000 A 
ATOM     20  C   UNL     1      48.800   6.569  17.719  0.00  0.00    +0.000 A 
BRANCH  12  22
ATOM     21  C   UNL     1      47.688   3.446  16.253  0.00  0.00    +0.000 C 
ATOM     22  O   UNL     1      48.380   4.693  16.247  0.00  0.00    +0.000 OA
ENDBRANCH  12  22
ENDBRANCH   8  19
ENDBRANCH   7  10
ENDBRANCH   1   7
BRANCH   4  23
ATOM     23  C   UNL     1      43.497   5.608  11.612  0.00  0.00    +0.000 C 
BRANCH  23  24
ATOM     24  N   UNL     1      43.428   5.023  10.273  0.00  0.00    +0.000 NA
ATOM     25  H   UNL     1      44.038   5.555   9.651  0.00  0.00    +0.000 HD
BRANCH  24  26
ATOM     26  C   UNL     1      43.845   3.622  10.278  0.00  0.00    +0.000 C 
BRANCH  26  27
ATOM     27  C   UNL     1      44.894   3.368   9.227  0.00  0.00    +0.000 A 
ATOM     28  C   UNL     1      45.471   4.415   8.509  0.00  0.00    +0.000 A 
ATOM     29  N   UNL     1      46.417   4.252   7.555  0.00  0.00    +0.000 NA
ATOM     30  C   UNL     1      46.812   2.981   7.303  0.00  0.00    +0.000 A 
ATOM     31  C   UNL     1      46.309   1.873   7.966  0.00  0.00    +0.000 A 
ATOM     32 CL   UNL     1      46.864   0.292   7.593  0.00  0.00    +0.000 Cl
ATOM     33  C   UNL     1      45.340   2.071   8.943  0.00  0.00    +0.000 A 
ENDBRANCH  26  27
ENDBRANCH  24  26
ENDBRANCH  23  24
ENDBRANCH   4  23
TORSDOF 8
ENDMDL
MODEL 2
REMARK VINA RESULT:    -7.656      1.833      2.897
REMARK INTER + INTRA:         -12.627
REMARK INTER:                 -11.601
REMARK INTRA:                  -1.026
REMARK UNBOUND:                -1.390
REMARK  Name = 
REMARK  9 active torsions:
REMARK  status: ('A' for Active; 'I' for Inactive)
REMARK    1  A    between atoms: C_1  and  O_2
REMARK    2  A    between atoms: O_2  and  C_3
REMARK    3  A    between atoms: C_10  and  C_11
REMARK    4  A    between atoms: N_13  and  C_14
REMARK    5  A    between atoms: C_14  and  C_15
REMARK    6  A    between atoms: C_18  and  C_19
REMARK    7  A    between atoms: C_19  and  N_20
REMARK    8  A    between atoms: N_20  and  C_21
REMARK    9  A    between atoms: C_21  and  C_22
REMARK                            x       y       z     vdW  Elec       q    Type
REMARK                         _______ _______ _______ _____ _____    ______ ____
ROOT
ATOM      1  C   UNL     1      46.827   6.129  13.028  0.00  0.00    +0.000 A 
ATOM      2  C   UNL     1      46.356   4.826  13.229  0.00  0.00    +0.000 A 
ATOM      3  C   UNL     1      45.246   4.353  12.521  0.00  0.00    +0.000 A 
ATOM      4  C   UNL     1      44.584   5.170  11.593  0.00  0.00    +0.000 A 
ATOM      5  C   UNL     1      45.063   6.471  11.387  0.00  0.00    +0.000 A 
ATOM      6  C   UNL     1      46.175   6.944  12.093  0.00  0.00    +0.000 A 
ENDROOT
BRANCH   1   7
ATOM      7  C   UNL     1      48.045   6.630  13.761  0.00  0.00    +0.000 C 
BRANCH   7  10
ATOM      8  C   UNL     1      48.942   6.375  16.035  0.00  0.00    +0.000 C 
ATOM      9  O   UNL     1      50.092   6.330  15.603  0.00  0.00    +0.000 OA
ATOM     10  N   UNL     1      47.876   6.515  15.191  0.00  0.00    +0.000 N 
ATOM     11  H   UNL     1      46.932   6.509  15.552  0.00  0.00    +0.000 HD
BRANCH   8  19
ATOM     12  C   UNL     1      47.818   8.615  18.400  0.00  0.00    +0.000 A 
ATOM     13  N   UNL     1      47.395   9.263  19.505  0.00  0.00    +0.000 NA
ATOM     14  C   UNL     1      47.345   8.582  20.653  0.00  0.00    +0.000 A 
ATOM     15  N   UNL     1      47.673   7.308  20.841  0.00  0.00    +0.000 NA
ATOM     16  C   UNL     1      48.081   6.698  19.716  0.00  0.00    +0.000 A 
ATOM     17  S   UNL     1      48.543   5.065  19.771  0.00  0.00    +0.000 S 
ATOM     18  C   UNL     1      48.891   5.057  18.109  0.00  0.00    +0.000 A 
ATOM     19  C   UNL     1      48.663   6.275  17.478  0.00  0.00    +0.000 A 
ATOM     20  C   UNL     1      48.182   7.258  18.445  0.00  0.00    +0.000 A 
BRANCH  12  22
ATOM     21  C   UNL     1      49.094   9.938  16.958  0.00  0.00    +0.000 C 
ATOM     22  O   UNL     1      47.838   9.312  17.211  0.00  0.00    +0.000 OA
ENDBRANCH  12  22
ENDBRANCH   8  19
ENDBRANCH   7  10
ENDBRANCH   1   7
BRANCH   4  23
ATOM     23  C   UNL     1      43.399   4.650  10.809  0.00  0.00    +0.000 C 
BRANCH  23  24
ATOM     24  N   UNL     1      43.799   3.605   9.866  0.00  0.00    +0.000 NA
ATOM     25  H   UNL     1      42.959   3.185   9.467  0.00  0.00    +0.000 HD
BRANCH  24  26
ATOM     26  C   UNL     1      44.627   4.146   8.789  0.00  0.00    +0.000 C 
BRANCH  26  27
ATOM     27  C   UNL     1      45.488   3.070   8.180  0.00  0.00    +0.000 A 
ATOM     28  C   UNL     1      45.562   1.795   8.740  0.00  0.00    +0.000 A 
ATOM     29  N   UNL     1      46.315   0.787   8.240  0.00  0.00    +0.000 NA
ATOM     30  C   UNL     1      47.031   1.062   7.123  0.00  0.00    +0.000 A 
ATOM     31  C   UNL     1      47.020   2.292   6.484  0.00  0.00    +0.000 A 
ATOM     32 CL   UNL     1      47.952   2.560   5.068  0.00  0.00    +0.000 Cl
ATOM     33  C   UNL     1      46.235   3.307   7.019  0.00  0.00    +0.000 A 
ENDBRANCH  26  27
ENDBRANCH  24  26
ENDBRANCH  23  24
ENDBRANCH   4  23
TORSDOF 8
ENDMDL
MODEL 3
REMARK VINA RESULT:    -7.157      2.203      2.642
REMARK INTER + INTRA:         -11.895
REMARK INTER:                 -10.918
REMARK INTRA:                  -0.977
REMARK UNBOUND:                -1.390
REMARK  Name = 
REMARK  9 active torsions:
REMARK  status: ('A' for Active; 'I' for Inactive)
REMARK    1  A    between atoms: C_1  and  O_2
REMARK    2  A    between atoms: O_2  and  C_3
REMARK    3  A    between atoms: C_10  and  C_11
REMARK    4  A    between atoms: N_13  and  C_14
REMARK    5  A    between atoms: C_14  and  C_15
REMARK    6  A    between atoms: C_18  and  C_19
REMARK    7  A    between atoms: C_19  and  N_20
REMARK    8  A    between atoms: N_20  and  C_21
REMARK    9  A    between atoms: C_21  and  C_22
REMARK                            x       y       z     vdW  Elec       q    Type
REMARK                         _______ _______ _______ _____ _____    ______ ____
ROOT
ATOM      1  C   UNL     1      47.432   7.247  13.752  0.00  0.00    +0.000 A 
ATOM      2  C   UNL     1      47.507   5.849  13.712  0.00  0.00    +0.000 A 
ATOM      3  C   UNL     1      46.684   5.117  12.849  0.00  0.00    +0.000 A 
ATOM      4  C   UNL     1      45.771   5.765  12.004  0.00  0.00    +0.000 A 
ATOM      5  C   UNL     1      45.704   7.165  12.040  0.00  0.00    +0.000 A 
ATOM      6  C   UNL     1      46.529   7.898  12.901  0.00  0.00    +0.000 A 
ENDROOT
BRANCH   1   7
ATOM      7  C   UNL     1      48.342   8.042  14.653  0.00  0.00    +0.000 C 
BRANCH   7  10
ATOM      8  C   UNL     1      49.509   7.047  16.574  0.00  0.00    +0.000 C 
ATOM      9  O   UNL     1      48.763   7.628  17.359  0.00  0.00    +0.000 OA
ATOM     10  N   UNL     1      49.372   7.204  15.222  0.00  0.00    +0.000 N 
ATOM     11  H   UNL     1      50.016   6.755  14.586  0.00  0.00    +0.000 HD
BRANCH   8  19
ATOM     12  C   UNL     1      49.801   3.631  16.924  0.00  0.00    +0.000 A 
ATOM     13  N   UNL     1      50.184   2.358  17.152  0.00  0.00    +0.000 NA
ATOM     14  C   UNL     1      51.407   2.148  17.647  0.00  0.00    +0.000 A 
ATOM     15  N   UNL     1      52.314   3.070  17.951  0.00  0.00    +0.000 NA
ATOM     16  C   UNL     1      51.896   4.322  17.701  0.00  0.00    +0.000 A 
ATOM     17  S   UNL     1      52.928   5.629  18.034  0.00  0.00    +0.000 S 
ATOM     18  C   UNL     1      51.767   6.746  17.498  0.00  0.00    +0.000 A 
ATOM     19  C   UNL     1      50.586   6.163  17.053  0.00  0.00    +0.000 A 
ATOM     20  C   UNL     1      50.664   4.710  17.182  0.00  0.00    +0.000 A 
BRANCH  12  22
ATOM     21  C   UNL     1      47.515   3.188  17.114  0.00  0.00    +0.000 C 
ATOM     22  O   UNL     1      48.550   3.842  16.382  0.00  0.00    +0.000 OA
ENDBRANCH  12  22
ENDBRANCH   8  19
ENDBRANCH   7  10
ENDBRANCH   1   7
BRANCH   4  23
ATOM     23  C   UNL     1      44.900   4.974  11.053  0.00  0.00    +0.000 C 
BRANCH  23  24
ATOM     24  N   UNL     1      45.343   5.129   9.668  0.00  0.00    +0.000 NA
ATOM     25  H   UNL     1      46.329   4.873   9.608  0.00  0.00    +0.000 HD
BRANCH  24  26
ATOM     26  C   UNL     1      44.568   4.285   8.760  0.00  0.00    +0.000 C 
BRANCH  26  27
ATOM     27  C   UNL     1      45.415   3.169   8.207  0.00  0.00    +0.000 A 
ATOM     28  C   UNL     1      45.483   1.928   8.838  0.00  0.00    +0.000 A 
ATOM     29  N   UNL     1      46.223   0.886   8.391  0.00  0.00    +0.000 NA
ATOM     30  C   UNL     1      46.931   1.090   7.254  0.00  0.00    +0.000 A 
ATOM     31  C   UNL     1      46.925   2.281   6.546  0.00  0.00    +0.000 A 
ATOM     32 CL   UNL     1      47.846   2.459   5.109  0.00  0.00    +0.000 Cl
ATOM     33  C   UNL     1      46.153   3.332   7.028  0.00  0.00    +0.000 A 
ENDBRANCH  26  27
ENDBRANCH  24  26
ENDBRANCH  23  24
ENDBRANCH   4  23
TORSDOF 8
ENDMDL
MODEL 4
REMARK VINA RESULT:    -7.061      1.666      2.155
REMARK INTER + INTRA:         -11.753
REMARK INTER:                 -10.498
REMARK INTRA:                  -1.256
REMARK UNBOUND:                -1.390
REMARK  Name = 
REMARK  9 active torsions:
REMARK  status: ('A' for Active; 'I' for Inactive)
REMARK    1  A    between atoms: C_1  and  O_2
REMARK    2  A    between atoms: O_2  and  C_3
REMARK    3  A    between atoms: C_10  and  C_11
REMARK    4  A    between atoms: N_13  and  C_14
REMARK    5  A    between atoms: C_14  and  C_15
REMARK    6  A    between atoms: C_18  and  C_19
REMARK    7  A    between atoms: C_19  and  N_20
REMARK    8  A    between atoms: N_20  and  C_21
REMARK    9  A    between atoms: C_21  and  C_22
REMARK                            x       y       z     vdW  Elec       q    Type
REMARK                         _______ _______ _______ _____ _____    ______ ____
ROOT
ATOM      1  C   UNL     1      47.671   6.928  13.425  0.00  0.00    +0.000 A 
ATOM      2  C   UNL     1      46.747   7.848  12.914  0.00  0.00    +0.000 A 
ATOM      3  C   UNL     1      45.536   7.411  12.365  0.00  0.00    +0.000 A 
ATOM      4  C   UNL     1      45.219   6.046  12.320  0.00  0.00    +0.000 A 
ATOM      5  C   UNL     1      46.141   5.127  12.841  0.00  0.00    +0.000 A 
ATOM      6  C   UNL     1      47.352   5.565  13.392  0.00  0.00    +0.000 A 
ENDROOT
BRANCH   1   7
ATOM      7  C   UNL     1      48.959   7.397  14.051  0.00  0.00    +0.000 C 
BRANCH   7  10
ATOM      8  C   UNL     1      50.425   6.747  15.914  0.00  0.00    +0.000 C 
ATOM      9  O   UNL     1      51.380   7.321  15.396  0.00  0.00    +0.000 OA
ATOM     10  N   UNL     1      49.198   6.732  15.311  0.00  0.00    +0.000 N 
ATOM     11  H   UNL     1      48.429   6.222  15.725  0.00  0.00    +0.000 HD
BRANCH   8  19
ATOM     12  C   UNL     1      48.622   6.797  18.851  0.00  0.00    +0.000 A 
ATOM     13  N   UNL     1      48.109   6.617  20.085  0.00  0.00    +0.000 NA
ATOM     14  C   UNL     1      48.729   5.763  20.905  0.00  0.00    +0.000 A 
ATOM     15  N   UNL     1      49.821   5.053  20.641  0.00  0.00    +0.000 NA
ATOM     16  C   UNL     1      50.294   5.256  19.400  0.00  0.00    +0.000 A 
ATOM     17  S   UNL     1      51.688   4.431  18.893  0.00  0.00    +0.000 S 
ATOM     18  C   UNL     1      51.630   5.171  17.366  0.00  0.00    +0.000 A 
ATOM     19  C   UNL     1      50.561   6.046  17.203  0.00  0.00    +0.000 A 
ATOM     20  C   UNL     1      49.765   6.099  18.426  0.00  0.00    +0.000 A 
BRANCH  12  22
ATOM     21  C   UNL     1      48.394   9.007  18.129  0.00  0.00    +0.000 C 
ATOM     22  O   UNL     1      47.961   7.655  17.996  0.00  0.00    +0.000 OA
ENDBRANCH  12  22
ENDBRANCH   8  19
ENDBRANCH   7  10
ENDBRANCH   1   7
BRANCH   4  23
ATOM     23  C   UNL     1      43.899   5.575  11.751  0.00  0.00    +0.000 C 
BRANCH  23  24
ATOM     24  N   UNL     1      44.017   5.240  10.332  0.00  0.00    +0.000 NA
ATOM     25  H   UNL     1      44.893   5.624   9.977  0.00  0.00    +0.000 HD
BRANCH  24  26
ATOM     26  C   UNL     1      44.004   3.793  10.122  0.00  0.00    +0.000 C 
BRANCH  26  27
ATOM     27  C   UNL     1      45.011   3.391   9.077  0.00  0.00    +0.000 A 
ATOM     28  C   UNL     1      45.624   4.338   8.257  0.00  0.00    +0.000 A 
ATOM     29  N   UNL     1      46.537   4.041   7.302  0.00  0.00    +0.000 NA
ATOM     30  C   UNL     1      46.858   2.732   7.157  0.00  0.00    +0.000 A 
ATOM     31  C   UNL     1      46.314   1.716   7.926  0.00  0.00    +0.000 A 
ATOM     32 CL   UNL     1      46.776   0.081   7.683  0.00  0.00    +0.000 Cl
ATOM     33  C   UNL     1      45.381   2.052   8.900  0.00  0.00    +0.000 A 
ENDBRANCH  26  27
ENDBRANCH  24  26
ENDBRANCH  23  24
ENDBRANCH   4  23
TORSDOF 8
ENDMDL
MODEL 5
REMARK VINA RESULT:    -6.964      2.161      2.242
REMARK INTER + INTRA:         -11.612
REMARK INTER:                 -10.442
REMARK INTRA:                  -1.169
REMARK UNBOUND:                -1.390
REMARK  Name = 
REMARK  9 active torsions:
REMARK  status: ('A' for Active; 'I' for Inactive)
REMARK    1  A    between atoms: C_1  and  O_2
REMARK    2  A    between atoms: O_2  and  C_3
REMARK    3  A    between atoms: C_10  and  C_11
REMARK    4  A    between atoms: N_13  and  C_14
REMARK    5  A    between atoms: C_14  and  C_15
REMARK    6  A    between atoms: C_18  and  C_19
REMARK    7  A    between atoms: C_19  and  N_20
REMARK    8  A    between atoms: N_20  and  C_21
REMARK    9  A    between atoms: C_21  and  C_22
REMARK                            x       y       z     vdW  Elec       q    Type
REMARK                         _______ _______ _______ _____ _____    ______ ____
ROOT
ATOM      1  C   UNL     1      47.686   7.263  13.174  0.00  0.00    +0.000 A 
ATOM      2  C   UNL     1      46.514   7.748  12.580  0.00  0.00    +0.000 A 
ATOM      3  C   UNL     1      45.413   6.906  12.387  0.00  0.00    +0.000 A 
ATOM      4  C   UNL     1      45.456   5.563  12.789  0.00  0.00    +0.000 A 
ATOM      5  C   UNL     1      46.627   5.083  13.392  0.00  0.00    +0.000 A 
ATOM      6  C   UNL     1      47.728   5.925  13.587  0.00  0.00    +0.000 A 
ENDROOT
BRANCH   1   7
ATOM      7  C   UNL     1      48.860   8.176  13.418  0.00  0.00    +0.000 C 
BRANCH   7  10
ATOM      8  C   UNL     1      50.257   7.711  15.387  0.00  0.00    +0.000 C 
ATOM      9  O   UNL     1      49.644   8.547  16.049  0.00  0.00    +0.000 OA
ATOM     10  N   UNL     1      49.936   7.474  14.079  0.00  0.00    +0.000 N 
ATOM     11  H   UNL     1      50.473   6.816  13.531  0.00  0.00    +0.000 HD
BRANCH   8  19
ATOM     12  C   UNL     1      50.403   4.984  17.488  0.00  0.00    +0.000 A 
ATOM     13  N   UNL     1      50.747   3.945  18.275  0.00  0.00    +0.000 NA
ATOM     14  C   UNL     1      52.047   3.696  18.456  0.00  0.00    +0.000 A 
ATOM     15  N   UNL     1      53.068   4.372  17.940  0.00  0.00    +0.000 NA
ATOM     16  C   UNL     1      52.682   5.393  17.157  0.00  0.00    +0.000 A 
ATOM     17  S   UNL     1      53.858   6.368  16.416  0.00  0.00    +0.000 S 
ATOM     18  C   UNL     1      52.667   7.330  15.681  0.00  0.00    +0.000 A 
ATOM     19  C   UNL     1      51.365   6.936  15.970  0.00  0.00    +0.000 A 
ATOM     20  C   UNL     1      51.378   5.778  16.860  0.00  0.00    +0.000 A 
BRANCH  12  22
ATOM     21  C   UNL     1      48.336   4.029  16.965  0.00  0.00    +0.000 C 
ATOM     22  O   UNL     1      49.060   5.217  17.277  0.00  0.00    +0.000 OA
ENDBRANCH  12  22
ENDBRANCH   8  19
ENDBRANCH   7  10
ENDBRANCH   1   7
BRANCH   4  23
ATOM     23  C   UNL     1      44.256   4.660  12.604  0.00  0.00    +0.000 C 
BRANCH  23  24
ATOM     24  N   UNL     1      43.764   4.700  11.227  0.00  0.00    +0.000 NA
ATOM     25  H   UNL     1      44.375   5.304  10.678  0.00  0.00    +0.000 HD
BRANCH  24  26
ATOM     26  C   UNL     1      43.737   3.367  10.629  0.00  0.00    +0.000 C 
BRANCH  26  27
ATOM     27  C   UNL     1      44.724   3.264   9.496  0.00  0.00    +0.000 A 
ATOM     28  C   UNL     1      45.149   4.395   8.799  0.00  0.00    +0.000 A 
ATOM     29  N   UNL     1      46.033   4.369   7.774  0.00  0.00    +0.000 NA
ATOM     30  C   UNL     1      46.521   3.154   7.425  0.00  0.00    +0.000 A 
ATOM     31  C   UNL     1      46.171   1.972   8.059  0.00  0.00    +0.000 A 
ATOM     32 CL   UNL     1      46.838   0.472   7.560  0.00  0.00    +0.000 Cl
ATOM     33  C   UNL     1      45.263   2.031   9.110  0.00  0.00    +0.000 A 
ENDBRANCH  26  27
ENDBRANCH  24  26
ENDBRANCH  23  24
ENDBRANCH   4  23
TORSDOF 8
ENDMDL
MODEL 6
REMARK VINA RESULT:    -6.544      3.787      5.330
REMARK INTER + INTRA:         -10.995
REMARK INTER:                  -9.810
REMARK INTRA:                  -1.185
REMARK UNBOUND:                -1.390
REMARK  Name = 
REMARK  9 active torsions:
REMARK  status: ('A' for Active; 'I' for Inactive)
REMARK    1  A    between atoms: C_1  and  O_2
REMARK    2  A    between atoms: O_2  and  C_3
REMARK    3  A    between atoms: C_10  and  C_11
REMARK    4  A    between atoms: N_13  and  C_14
REMARK    5  A    between atoms: C_14  and  C_15
REMARK    6  A    between atoms: C_18  and  C_19
REMARK    7  A    between atoms: C_19  and  N_20
REMARK    8  A    between atoms: N_20  and  C_21
REMARK    9  A    between atoms: C_21  and  C_22
REMARK                            x       y       z     vdW  Elec       q    Type
REMARK                         _______ _______ _______ _____ _____    ______ ____
ROOT
ATOM      1  C   UNL     1      47.216   6.977  13.266  0.00  0.00    +0.000 A 
ATOM      2  C   UNL     1      45.964   7.320  12.741  0.00  0.00    +0.000 A 
ATOM      3  C   UNL     1      44.979   6.344  12.554  0.00  0.00    +0.000 A 
ATOM      4  C   UNL     1      45.221   5.005  12.891  0.00  0.00    +0.000 A 
ATOM      5  C   UNL     1      46.472   4.665  13.425  0.00  0.00    +0.000 A 
ATOM      6  C   UNL     1      47.456   5.642  13.615  0.00  0.00    +0.000 A 
ENDROOT
BRANCH   1   7
ATOM      7  C   UNL     1      48.267   8.031  13.504  0.00  0.00    +0.000 C 
BRANCH   7  10
ATOM      8  C   UNL     1      50.216   8.562  12.104  0.00  0.00    +0.000 C 
ATOM      9  O   UNL     1      49.799   9.703  11.914  0.00  0.00    +0.000 OA
ATOM     10  N   UNL     1      49.515   7.673  12.871  0.00  0.00    +0.000 N 
ATOM     11  H   UNL     1      49.844   6.724  12.987  0.00  0.00    +0.000 HD
BRANCH   8  19
ATOM     12  C   UNL     1      53.524   8.874  13.018  0.00  0.00    +0.000 A 
ATOM     13  N   UNL     1      54.867   8.838  13.137  0.00  0.00    +0.000 NA
ATOM     14  C   UNL     1      55.565   8.208  12.189  0.00  0.00    +0.000 A 
ATOM     15  N   UNL     1      55.080   7.599  11.111  0.00  0.00    +0.000 NA
ATOM     16  C   UNL     1      53.740   7.652  11.035  0.00  0.00    +0.000 A 
ATOM     17  S   UNL     1      52.950   6.927   9.719  0.00  0.00    +0.000 S 
ATOM     18  C   UNL     1      51.429   7.397  10.311  0.00  0.00    +0.000 A 
ATOM     19  C   UNL     1      51.482   8.101  11.509  0.00  0.00    +0.000 A 
ATOM     20  C   UNL     1      52.870   8.257  11.938  0.00  0.00    +0.000 A 
BRANCH  12  22
ATOM     21  C   UNL     1      52.483   8.620  15.094  0.00  0.00    +0.000 C 
ATOM     22  O   UNL     1      52.804   9.497  14.016  0.00  0.00    +0.000 OA
ENDBRANCH  12  22
ENDBRANCH   8  19
ENDBRANCH   7  10
ENDBRANCH   1   7
BRANCH   4  23
ATOM     23  C   UNL     1      44.146   3.954  12.713  0.00  0.00    +0.000 C 
BRANCH  23  24
ATOM     24  N   UNL     1      44.612   2.850  11.876  0.00  0.00    +0.000 NA
ATOM     25  H   UNL     1      44.436   1.972  12.364  0.00  0.00    +0.000 HD
BRANCH  24  26
ATOM     26  C   UNL     1      43.927   2.831  10.584  0.00  0.00    +0.000 C 
BRANCH  26  27
ATOM     27  C   UNL     1      44.895   3.082   9.457  0.00  0.00    +0.000 A 
ATOM     28  C   UNL     1      45.174   4.374   9.013  0.00  0.00    +0.000 A 
ATOM     29  N   UNL     1      46.033   4.664   8.008  0.00  0.00    +0.000 NA
ATOM     30  C   UNL     1      46.648   3.613   7.414  0.00  0.00    +0.000 A 
ATOM     31  C   UNL     1      46.448   2.293   7.786  0.00  0.00    +0.000 A 
ATOM     32 CL   UNL     1      47.270   1.016   6.987  0.00  0.00    +0.000 Cl
ATOM     33  C   UNL     1      45.562   2.026   8.823  0.00  0.00    +0.000 A 
ENDBRANCH  26  27
ENDBRANCH  24  26
ENDBRANCH  23  24
ENDBRANCH   4  23
TORSDOF 8
ENDMDL
MODEL 7
REMARK VINA RESULT:    -6.411      2.767      3.420
REMARK INTER + INTRA:         -10.800
REMARK INTER:                  -9.874
REMARK INTRA:                  -0.926
REMARK UNBOUND:                -1.390
REMARK  Name = 
REMARK  9 active torsions:
REMARK  status: ('A' for Active; 'I' for Inactive)
REMARK    1  A    between atoms: C_1  and  O_2
REMARK    2  A    between atoms: O_2  and  C_3
REMARK    3  A    between atoms: C_10  and  C_11
REMARK    4  A    between atoms: N_13  and  C_14
REMARK    5  A    between atoms: C_14  and  C_15
REMARK    6  A    between atoms: C_18  and  C_19
REMARK    7  A    between atoms: C_19  and  N_20
REMARK    8  A    between atoms: N_20  and  C_21
REMARK    9  A    between atoms: C_21  and  C_22
REMARK                            x       y       z     vdW  Elec       q    Type
REMARK                         _______ _______ _______ _____ _____    ______ ____
ROOT
ATOM      1  C   UNL     1      46.833   8.718  12.649  0.00  0.00    +0.000 A 
ATOM      2  C   UNL     1      47.504   7.530  12.333  0.00  0.00    +0.000 A 
ATOM      3  C   UNL     1      46.823   6.468  11.728  0.00  0.00    +0.000 A 
ATOM      4  C   UNL     1      45.459   6.570  11.422  0.00  0.00    +0.000 A 
ATOM      5  C   UNL     1      44.792   7.764  11.731  0.00  0.00    +0.000 A 
ATOM      6  C   UNL     1      45.473   8.828  12.333  0.00  0.00    +0.000 A 
ENDROOT
BRANCH   1   7
ATOM      7  C   UNL     1      47.571   9.879  13.266  0.00  0.00    +0.000 C 
BRANCH   7  10
ATOM      8  C   UNL     1      49.999   9.507  13.178  0.00  0.00    +0.000 C 
ATOM      9  O   UNL     1      50.046   9.922  12.022  0.00  0.00    +0.000 OA
ATOM     10  N   UNL     1      48.816   9.448  13.860  0.00  0.00    +0.000 N 
ATOM     11  H   UNL     1      48.781   9.065  14.795  0.00  0.00    +0.000 HD
BRANCH   8  19
ATOM     12  C   UNL     1      50.625   7.019  15.479  0.00  0.00    +0.000 A 
ATOM     13  N   UNL     1      51.145   6.138  16.358  0.00  0.00    +0.000 NA
ATOM     14  C   UNL     1      52.451   6.215  16.627  0.00  0.00    +0.000 A 
ATOM     15  N   UNL     1      53.322   7.081  16.119  0.00  0.00    +0.000 NA
ATOM     16  C   UNL     1      52.766   7.934  15.244  0.00  0.00    +0.000 A 
ATOM     17  S   UNL     1      53.733   9.114  14.498  0.00  0.00    +0.000 S 
ATOM     18  C   UNL     1      52.406   9.722  13.630  0.00  0.00    +0.000 A 
ATOM     19  C   UNL     1      51.214   9.051  13.876  0.00  0.00    +0.000 A 
ATOM     20  C   UNL     1      51.432   7.983  14.848  0.00  0.00    +0.000 A 
BRANCH  12  22
ATOM     21  C   UNL     1      48.558   6.160  16.146  0.00  0.00    +0.000 C 
ATOM     22  O   UNL     1      49.283   6.916  15.178  0.00  0.00    +0.000 OA
ENDBRANCH  12  22
ENDBRANCH   8  19
ENDBRANCH   7  10
ENDBRANCH   1   7
BRANCH   4  23
ATOM     23  C   UNL     1      44.729   5.431  10.744  0.00  0.00    +0.000 C 
BRANCH  23  24
ATOM     24  N   UNL     1      45.323   5.112   9.446  0.00  0.00    +0.000 NA
ATOM     25  H   UNL     1      46.265   4.752   9.597  0.00  0.00    +0.000 HD
BRANCH  24  26
ATOM     26  C   UNL     1      44.533   4.114   8.728  0.00  0.00    +0.000 C 
BRANCH  26  27
ATOM     27  C   UNL     1      45.420   3.053   8.130  0.00  0.00    +0.000 A 
ATOM     28  C   UNL     1      45.527   1.788   8.706  0.00  0.00    +0.000 A 
ATOM     29  N   UNL     1      46.304   0.793   8.217  0.00  0.00    +0.000 NA
ATOM     30  C   UNL     1      47.011   1.071   7.095  0.00  0.00    +0.000 A 
ATOM     31  C   UNL     1      46.968   2.292   6.441  0.00  0.00    +0.000 A 
ATOM     32 CL   UNL     1      47.889   2.566   5.019  0.00  0.00    +0.000 Cl
ATOM     33  C   UNL     1      46.158   3.293   6.964  0.00  0.00    +0.000 A 
ENDBRANCH  26  27
ENDBRANCH  24  26
ENDBRANCH  23  24
ENDBRANCH   4  23
TORSDOF 8
ENDMDL
MODEL 8
REMARK VINA RESULT:    -6.261      2.448      3.393
REMARK INTER + INTRA:         -10.579
REMARK INTER:                  -9.854
REMARK INTRA:                  -0.726
REMARK UNBOUND:                -1.390
REMARK  Name = 
REMARK  9 active torsions:
REMARK  status: ('A' for Active; 'I' for Inactive)
REMARK    1  A    between atoms: C_1  and  O_2
REMARK    2  A    between atoms: O_2  and  C_3
REMARK    3  A    between atoms: C_10  and  C_11
REMARK    4  A    between atoms: N_13  and  C_14
REMARK    5  A    between atoms: C_14  and  C_15
REMARK    6  A    between atoms: C_18  and  C_19
REMARK    7  A    between atoms: C_19  and  N_20
REMARK    8  A    between atoms: N_20  and  C_21
REMARK    9  A    between atoms: C_21  and  C_22
REMARK                            x       y       z     vdW  Elec       q    Type
REMARK                         _______ _______ _______ _____ _____    ______ ____
ROOT
ATOM      1  C   UNL     1      46.057   7.230  12.159  0.00  0.00    +0.000 A 
ATOM      2  C   UNL     1      46.275   5.861  12.361  0.00  0.00    +0.000 A 
ATOM      3  C   UNL     1      45.320   4.921  11.957  0.00  0.00    +0.000 A 
ATOM      4  C   UNL     1      44.130   5.326  11.339  0.00  0.00    +0.000 A 
ATOM      5  C   UNL     1      43.917   6.696  11.129  0.00  0.00    +0.000 A 
ATOM      6  C   UNL     1      44.873   7.637  11.531  0.00  0.00    +0.000 A 
ENDROOT
BRANCH   1   7
ATOM      7  C   UNL     1      47.099   8.243  12.558  0.00  0.00    +0.000 C 
BRANCH   7  10
ATOM      8  C   UNL     1      49.051   7.483  13.842  0.00  0.00    +0.000 C 
ATOM      9  O   UNL     1      49.733   7.429  12.821  0.00  0.00    +0.000 OA
ATOM     10  N   UNL     1      47.740   7.869  13.796  0.00  0.00    +0.000 N 
ATOM     11  H   UNL     1      47.177   7.870  14.636  0.00  0.00    +0.000 HD
BRANCH   8  19
ATOM     12  C   UNL     1      52.188   7.768  15.241  0.00  0.00    +0.000 A 
ATOM     13  N   UNL     1      53.288   7.766  16.022  0.00  0.00    +0.000 NA
ATOM     14  C   UNL     1      53.181   7.263  17.255  0.00  0.00    +0.000 A 
ATOM     15  N   UNL     1      52.091   6.750  17.817  0.00  0.00    +0.000 NA
ATOM     16  C   UNL     1      51.019   6.779  17.009  0.00  0.00    +0.000 A 
ATOM     17  S   UNL     1      49.538   6.160  17.563  0.00  0.00    +0.000 S 
ATOM     18  C   UNL     1      48.777   6.530  16.092  0.00  0.00    +0.000 A 
ATOM     19  C   UNL     1      49.614   7.130  15.157  0.00  0.00    +0.000 A 
ATOM     20  C   UNL     1      50.959   7.273  15.709  0.00  0.00    +0.000 A 
BRANCH  12  22
ATOM     21  C   UNL     1      52.269   9.743  13.995  0.00  0.00    +0.000 C 
ATOM     22  O   UNL     1      52.294   8.318  13.980  0.00  0.00    +0.000 OA
ENDBRANCH  12  22
ENDBRANCH   8  19
ENDBRANCH   7  10
ENDBRANCH   1   7
BRANCH   4  23
ATOM     23  C   UNL     1      43.109   4.308  10.879  0.00  0.00    +0.000 C 
BRANCH  23  24
ATOM     24  N   UNL     1      43.715   3.296  10.014  0.00  0.00    +0.000 NA
ATOM     25  H   UNL     1      42.986   2.660   9.693  0.00  0.00    +0.000 HD
BRANCH  24  26
ATOM     26  C   UNL     1      44.370   3.905   8.857  0.00  0.00    +0.000 C 
BRANCH  26  27
ATOM     27  C   UNL     1      45.336   2.943   8.216  0.00  0.00    +0.000 A 
ATOM     28  C   UNL     1      45.507   1.650   8.708  0.00  0.00    +0.000 A 
ATOM     29  N   UNL     1      46.356   0.740   8.177  0.00  0.00    +0.000 NA
ATOM     30  C   UNL     1      47.073   1.137   7.098  0.00  0.00    +0.000 A 
ATOM     31  C   UNL     1      46.971   2.395   6.526  0.00  0.00    +0.000 A 
ATOM     32 CL   UNL     1      47.910   2.821   5.154  0.00  0.00    +0.000 Cl
ATOM     33  C   UNL     1      46.088   3.307   7.092  0.00  0.00    +0.000 A 
ENDBRANCH  26  27
ENDBRANCH  24  26
ENDBRANCH  23  24
ENDBRANCH   4  23
TORSDOF 8
ENDMDL
MODEL 9
REMARK VINA RESULT:    -6.057      4.640      6.784
REMARK INTER + INTRA:         -10.279
REMARK INTER:                  -9.088
REMARK INTRA:                  -1.191
REMARK UNBOUND:                -1.390
REMARK  Name = 
REMARK  9 active torsions:
REMARK  status: ('A' for Active; 'I' for Inactive)
REMARK    1  A    between atoms: C_1  and  O_2
REMARK    2  A    between atoms: O_2  and  C_3
REMARK    3  A    between atoms: C_10  and  C_11
REMARK    4  A    between atoms: N_13  and  C_14
REMARK    5  A    between atoms: C_14  and  C_15
REMARK    6  A    between atoms: C_18  and  C_19
REMARK    7  A    between atoms: C_19  and  N_20
REMARK    8  A    between atoms: N_20  and  C_21
REMARK    9  A    between atoms: C_21  and  C_22
REMARK                            x       y       z     vdW  Elec       q    Type
REMARK                         _______ _______ _______ _____ _____    ______ ____
ROOT
ATOM      1  C   UNL     1      48.674   7.360  12.651  0.00  0.00    +0.000 A 
ATOM      2  C   UNL     1      48.361   6.089  13.149  0.00  0.00    +0.000 A 
ATOM      3  C   UNL     1      47.090   5.539  12.947  0.00  0.00    +0.000 A 
ATOM      4  C   UNL     1      46.106   6.243  12.239  0.00  0.00    +0.000 A 
ATOM      5  C   UNL     1      46.425   7.511  11.734  0.00  0.00    +0.000 A 
ATOM      6  C   UNL     1      47.697   8.061  11.934  0.00  0.00    +0.000 A 
ENDROOT
BRANCH   1   7
ATOM      7  C   UNL     1      50.053   7.940  12.834  0.00  0.00    +0.000 C 
BRANCH   7  10
ATOM      8  C   UNL     1      51.667   9.265  11.537  0.00  0.00    +0.000 C 
ATOM      9  O   UNL     1      52.239   9.620  12.565  0.00  0.00    +0.000 OA
ATOM     10  N   UNL     1      50.576   8.442  11.585  0.00  0.00    +0.000 N 
ATOM     11  H   UNL     1      50.087   8.189  10.737  0.00  0.00    +0.000 HD
BRANCH   8  19
ATOM     12  C   UNL     1      52.779   7.617   8.722  0.00  0.00    +0.000 A 
ATOM     13  N   UNL     1      53.232   7.239   7.509  0.00  0.00    +0.000 NA
ATOM     14  C   UNL     1      53.513   8.194   6.618  0.00  0.00    +0.000 A 
ATOM     15  N   UNL     1      53.397   9.507   6.791  0.00  0.00    +0.000 NA
ATOM     16  C   UNL     1      52.935   9.839   8.008  0.00  0.00    +0.000 A 
ATOM     17  S   UNL     1      52.728  11.477   8.404  0.00  0.00    +0.000 S 
ATOM     18  C   UNL     1      52.173  11.081   9.959  0.00  0.00    +0.000 A 
ATOM     19  C   UNL     1      52.127   9.714  10.212  0.00  0.00    +0.000 A 
ATOM     20  C   UNL     1      52.589   8.972   9.041  0.00  0.00    +0.000 A 
BRANCH  12  22
ATOM     21  C   UNL     1      53.611   5.998  10.187  0.00  0.00    +0.000 C 
ATOM     22  O   UNL     1      52.459   6.627   9.628  0.00  0.00    +0.000 OA
ENDBRANCH  12  22
ENDBRANCH   8  19
ENDBRANCH   7  10
ENDBRANCH   1   7
BRANCH   4  23
ATOM     23  C   UNL     1      44.741   5.637  11.998  0.00  0.00    +0.000 C 
BRANCH  23  24
ATOM     24  N   UNL     1      44.821   4.185  11.840  0.00  0.00    +0.000 NA
ATOM     25  H   UNL     1      44.463   3.743  12.686  0.00  0.00    +0.000 HD
BRANCH  24  26
ATOM     26  C   UNL     1      44.042   3.730  10.689  0.00  0.00    +0.000 C 
BRANCH  26  27
ATOM     27  C   UNL     1      44.935   3.458   9.507  0.00  0.00    +0.000 A 
ATOM     28  C   UNL     1      45.400   4.491   8.695  0.00  0.00    +0.000 A 
ATOM     29  N   UNL     1      46.204   4.313   7.622  0.00  0.00    +0.000 NA
ATOM     30  C   UNL     1      46.568   3.038   7.342  0.00  0.00    +0.000 A 
ATOM     31  C   UNL     1      46.169   1.942   8.090  0.00  0.00    +0.000 A 
ATOM     32 CL   UNL     1      46.677   0.356   7.674  0.00  0.00    +0.000 Cl
ATOM     33  C   UNL     1      45.345   2.157   9.189  0.00  0.00    +0.000 A 
ENDBRANCH  26  27
ENDBRANCH  24  26
ENDBRANCH  23  24
ENDBRANCH   4  23
TORSDOF 8
ENDMDL
