MODEL 1
REMARK VINA RESULT:    -7.125      0.000      0.000
REMARK INTER + INTRA:         -11.291
REMARK INTER:                 -10.040
REMARK INTRA:                  -1.251
REMARK UNBOUND:                -1.251
REMARK  Name = 
REMARK  7 active torsions:
REMARK  status: ('A' for Active; 'I' for Inactive)
REMARK    1  A    between atoms: C_2  and  C_19
REMARK    2  A    between atoms: N_3  and  C_4
REMARK    3  A    between atoms: C_4  and  C_5
REMARK    4  A    between atoms: C_8  and  C_9
REMARK    5  A    between atoms: C_9  and  N_10
REMARK    6  A    between atoms: N_10  and  C_11
REMARK    7  A    between atoms: C_11  and  C_12
REMARK                            x       y       z     vdW  Elec       q    Type
REMARK                         _______ _______ _______ _____ _____    ______ ____
ROOT
ATOM      1  C   UNL     1      47.251   6.947  13.063  0.00  0.00    +0.000 C 
ENDROOT
BRANCH   1   2
ATOM      2  C   UNL     1      46.391   5.911  12.405  0.00  0.00    +0.000 A 
ATOM      3  C   UNL     1      45.893   4.826  13.129  0.00  0.00    +0.000 A 
ATOM      4  C   UNL     1      45.057   3.904  12.509  0.00  0.00    +0.000 A 
ATOM      5  C   UNL     1      44.746   4.075  11.164  0.00  0.00    +0.000 A 
ATOM      6  N   UNL     1      45.244   5.103  10.425  0.00  0.00    +0.000 NA
ATOM      7  C   UNL     1      46.053   5.986  11.059  0.00  0.00    +0.000 A 
BRANCH   5   8
ATOM      8  C   UNL     1      43.829   3.089  10.466  0.00  0.00    +0.000 C 
BRANCH   8   9
ATOM      9  N   UNL     1      44.503   1.873   9.992  0.00  0.00    +0.000 NA
ATOM     10  H   UNL     1      43.828   1.119  10.139  0.00  0.00    +0.000 HD
BRANCH   9  11
ATOM     11  C   UNL     1      44.850   1.911   8.564  0.00  0.00    +0.000 C 
BRANCH  11  12
ATOM     12  C   UNL     1      46.331   2.346   8.361  0.00  0.00    +0.000 C 
ATOM     13  C   UNL     1      47.134   1.454   7.417  0.00  0.00    +0.000 C 
ATOM     14  C   UNL     1      46.783   1.982   6.042  0.00  0.00    +0.000 C 
ATOM     15  C   UNL     1      46.519   3.462   6.269  0.00  0.00    +0.000 C 
ATOM     16  N   UNL     1      46.476   3.664   7.719  0.00  0.00    +0.000 NA
ATOM     17  H   UNL     1      45.731   4.303   7.987  0.00  0.00    +0.000 HD
ENDBRANCH  11  12
ENDBRANCH   9  11
ENDBRANCH   8   9
ENDBRANCH   5   8
ENDBRANCH   1   2
BRANCH   1  20
ATOM     18  O   UNL     1      49.794   7.006  14.264  0.00  0.00    +0.000 OA
ATOM     19  C   UNL     1      48.821   6.700  14.946  0.00  0.00    +0.000 C 
ATOM     20  N   UNL     1      47.552   6.620  14.431  0.00  0.00    +0.000 N 
ATOM     21  H   UNL     1      46.764   6.539  15.064  0.00  0.00    +0.000 HD
BRANCH  19  22
ATOM     22  C   UNL     1      48.960   6.351  16.362  0.00  0.00    +0.000 A 
ATOM     23  C   UNL     1      49.439   7.286  17.270  0.00  0.00    +0.000 A 
ATOM     24  S   UNL     1      49.501   6.705  18.873  0.00  0.00    +0.000 S 
ATOM     25  C   UNL     1      48.863   5.198  18.408  0.00  0.00    +0.000 A 
ATOM     26  N   UNL     1      48.616   4.227  19.332  0.00  0.00    +0.000 NA
ATOM     27  C   UNL     1      48.097   3.147  18.838  0.00  0.00    +0.000 A 
ATOM     28  N   UNL     1      47.820   2.947  17.512  0.00  0.00    +0.000 N 
ATOM     29  C   UNL     1      48.122   3.868  16.542  0.00  0.00    +0.000 A 
ATOM     30  O   UNL     1      47.996   3.601  15.352  0.00  0.00    +0.000 OA
ATOM     31  C   UNL     1      48.645   5.123  17.048  0.00  0.00    +0.000 A 
ATOM     32  H   UNL     1      47.458   2.062  17.189  0.00  0.00    +0.000 HD
ENDBRANCH  19  22
ENDBRANCH   1  20
TORSDOF 7
ENDMDL
MODEL 2
REMARK VINA RESULT:    -6.949      4.246      9.084
REMARK INTER + INTRA:         -11.043
REMARK INTER:                 -10.214
REMARK INTRA:                  -0.829
REMARK UNBOUND:                -1.251
REMARK  Name = 
REMARK  7 active torsions:
REMARK  status: ('A' for Active; 'I' for Inactive)
REMARK    1  A    between atoms: C_2  and  C_19
REMARK    2  A    between atoms: N_3  and  C_4
REMARK    3  A    between atoms: C_4  and  C_5
REMARK    4  A    between atoms: C_8  and  C_9
REMARK    5  A    between atoms: C_9  and  N_10
REMARK    6  A    between atoms: N_10  and  C_11
REMARK    7  A    between atoms: C_11  and  C_12
REMARK                            x       y       z     vdW  Elec       q    Type
REMARK                         _______ _______ _______ _____ _____    ______ ____
ROOT
ATOM      1  C   UNL     1      47.145   3.404  16.820  0.00  0.00    +0.000 C 
ENDROOT
BRANCH   1   2
ATOM      2  C   UNL     1      48.614   3.455  17.114  0.00  0.00    +0.000 A 
ATOM      3  C   UNL     1      49.205   4.614  17.621  0.00  0.00    +0.000 A 
ATOM      4  C   UNL     1      50.560   4.624  17.932  0.00  0.00    +0.000 A 
ATOM      5  C   UNL     1      51.308   3.472  17.713  0.00  0.00    +0.000 A 
ATOM      6  N   UNL     1      50.767   2.339  17.188  0.00  0.00    +0.000 NA
ATOM      7  C   UNL     1      49.443   2.361  16.899  0.00  0.00    +0.000 A 
BRANCH   5   8
ATOM      8  C   UNL     1      52.787   3.451  18.052  0.00  0.00    +0.000 C 
BRANCH   8   9
ATOM      9  N   UNL     1      53.187   2.340  18.926  0.00  0.00    +0.000 NA
ATOM     10  H   UNL     1      52.349   1.763  19.024  0.00  0.00    +0.000 HD
BRANCH   9  11
ATOM     11  C   UNL     1      54.259   1.506  18.363  0.00  0.00    +0.000 C 
BRANCH  11  12
ATOM     12  C   UNL     1      53.673   0.271  17.617  0.00  0.00    +0.000 C 
ATOM     13  C   UNL     1      54.694  -0.539  16.824  0.00  0.00    +0.000 C 
ATOM     14  C   UNL     1      55.312  -1.451  17.864  0.00  0.00    +0.000 C 
ATOM     15  C   UNL     1      54.190  -1.688  18.862  0.00  0.00    +0.000 C 
ATOM     16  N   UNL     1      53.117  -0.753  18.519  0.00  0.00    +0.000 NA
ATOM     17  H   UNL     1      52.697  -0.342  19.350  0.00  0.00    +0.000 HD
ENDBRANCH  11  12
ENDBRANCH   9  11
ENDBRANCH   8   9
ENDBRANCH   5   8
ENDBRANCH   1   2
BRANCH   1  20
ATOM     18  O   UNL     1      47.217   3.083  14.027  0.00  0.00    +0.000 OA
ATOM     19  C   UNL     1      46.789   4.134  14.494  0.00  0.00    +0.000 C 
ATOM     20  N   UNL     1      46.747   4.381  15.843  0.00  0.00    +0.000 N 
ATOM     21  H   UNL     1      46.227   5.181  16.185  0.00  0.00    +0.000 HD
BRANCH  19  22
ATOM     22  C   UNL     1      46.334   5.225  13.630  0.00  0.00    +0.000 A 
ATOM     23  C   UNL     1      47.165   6.308  13.372  0.00  0.00    +0.000 A 
ATOM     24  S   UNL     1      46.472   7.460  12.323  0.00  0.00    +0.000 S 
ATOM     25  C   UNL     1      45.054   6.535  12.156  0.00  0.00    +0.000 A 
ATOM     26  N   UNL     1      44.044   6.943  11.339  0.00  0.00    +0.000 NA
ATOM     27  C   UNL     1      43.043   6.121  11.284  0.00  0.00    +0.000 A 
ATOM     28  N   UNL     1      42.956   4.946  11.981  0.00  0.00    +0.000 N 
ATOM     29  C   UNL     1      43.915   4.536  12.870  0.00  0.00    +0.000 A 
ATOM     30  O   UNL     1      43.741   3.555  13.584  0.00  0.00    +0.000 OA
ATOM     31  C   UNL     1      45.090   5.388  12.921  0.00  0.00    +0.000 A 
ATOM     32  H   UNL     1      42.126   4.374  11.927  0.00  0.00    +0.000 HD
ENDBRANCH  19  22
ENDBRANCH   1  20
TORSDOF 7
ENDMDL
MODEL 3
REMARK VINA RESULT:    -6.919      1.375      1.797
REMARK INTER + INTRA:         -11.001
REMARK INTER:                 -10.181
REMARK INTRA:                  -0.820
REMARK UNBOUND:                -1.251
REMARK  Name = 
REMARK  7 active torsions:
REMARK  status: ('A' for Active; 'I' for Inactive)
REMARK    1  A    between atoms: C_2  and  C_19
REMARK    2  A    between atoms: N_3  and  C_4
REMARK    3  A    between atoms: C_4  and  C_5
REMARK    4  A    between atoms: C_8  and  C_9
REMARK    5  A    between atoms: C_9  and  N_10
REMARK    6  A    between atoms: N_10  and  C_11
REMARK    7  A    between atoms: C_11  and  C_12
REMARK                            x       y       z     vdW  Elec       q    Type
REMARK                         _______ _______ _______ _____ _____    ______ ____
ROOT
ATOM      1  C   UNL     1      47.864   6.752  13.743  0.00  0.00    +0.000 C 
ENDROOT
BRANCH   1   2
ATOM      2  C   UNL     1      46.749   5.815  13.384  0.00  0.00    +0.000 A 
ATOM      3  C   UNL     1      45.595   6.281  12.752  0.00  0.00    +0.000 A 
ATOM      4  C   UNL     1      44.595   5.387  12.384  0.00  0.00    +0.000 A 
ATOM      5  C   UNL     1      44.763   4.037  12.673  0.00  0.00    +0.000 A 
ATOM      6  N   UNL     1      45.861   3.558  13.318  0.00  0.00    +0.000 NA
ATOM      7  C   UNL     1      46.818   4.455  13.659  0.00  0.00    +0.000 A 
BRANCH   5   8
ATOM      8  C   UNL     1      43.693   3.037  12.275  0.00  0.00    +0.000 C 
BRANCH   8   9
ATOM      9  N   UNL     1      43.619   2.780  10.831  0.00  0.00    +0.000 NA
ATOM     10  H   UNL     1      43.175   3.611  10.433  0.00  0.00    +0.000 HD
BRANCH   9  11
ATOM     11  C   UNL     1      44.934   2.609  10.196  0.00  0.00    +0.000 C 
BRANCH  11  12
ATOM     12  C   UNL     1      44.786   2.077   8.740  0.00  0.00    +0.000 C 
ATOM     13  C   UNL     1      44.806   3.155   7.660  0.00  0.00    +0.000 C 
ATOM     14  C   UNL     1      46.283   3.401   7.428  0.00  0.00    +0.000 C 
ATOM     15  C   UNL     1      46.932   2.056   7.713  0.00  0.00    +0.000 C 
ATOM     16  N   UNL     1      45.899   1.210   8.314  0.00  0.00    +0.000 NA
ATOM     17  H   UNL     1      46.267   0.656   9.084  0.00  0.00    +0.000 HD
ENDBRANCH  11  12
ENDBRANCH   9  11
ENDBRANCH   8   9
ENDBRANCH   5   8
ENDBRANCH   1   2
BRANCH   1  20
ATOM     18  O   UNL     1      50.412   7.017  14.903  0.00  0.00    +0.000 OA
ATOM     19  C   UNL     1      49.435   6.897  15.635  0.00  0.00    +0.000 C 
ATOM     20  N   UNL     1      48.162   6.735  15.149  0.00  0.00    +0.000 N 
ATOM     21  H   UNL     1      47.374   6.818  15.783  0.00  0.00    +0.000 HD
BRANCH  19  22
ATOM     22  C   UNL     1      49.570   6.873  17.093  0.00  0.00    +0.000 A 
ATOM     23  C   UNL     1      50.058   7.984  17.769  0.00  0.00    +0.000 A 
ATOM     24  S   UNL     1      50.115   7.777  19.462  0.00  0.00    +0.000 S 
ATOM     25  C   UNL     1      49.464   6.209  19.346  0.00  0.00    +0.000 A 
ATOM     26  N   UNL     1      49.210   5.472  20.463  0.00  0.00    +0.000 NA
ATOM     27  C   UNL     1      48.681   4.313  20.223  0.00  0.00    +0.000 A 
ATOM     28  N   UNL     1      48.403   3.823  18.975  0.00  0.00    +0.000 N 
ATOM     29  C   UNL     1      48.712   4.500  17.824  0.00  0.00    +0.000 A 
ATOM     30  O   UNL     1      48.583   3.974  16.724  0.00  0.00    +0.000 OA
ATOM     31  C   UNL     1      49.246   5.833  18.037  0.00  0.00    +0.000 A 
ATOM     32  H   UNL     1      48.033   2.891  18.858  0.00  0.00    +0.000 HD
ENDBRANCH  19  22
ENDBRANCH   1  20
TORSDOF 7
ENDMDL
MODEL 4
REMARK VINA RESULT:    -6.568      2.945      8.518
REMARK INTER + INTRA:         -10.507
REMARK INTER:                  -9.353
REMARK INTRA:                  -1.154
REMARK UNBOUND:                -1.251
REMARK  Name = 
REMARK  7 active torsions:
REMARK  status: ('A' for Active; 'I' for Inactive)
REMARK    1  A    between atoms: C_2  and  C_19
REMARK    2  A    between atoms: N_3  and  C_4
REMARK    3  A    between atoms: C_4  and  C_5
REMARK    4  A    between atoms: C_8  and  C_9
REMARK    5  A    between atoms: C_9  and  N_10
REMARK    6  A    between atoms: N_10  and  C_11
REMARK    7  A    between atoms: C_11  and  C_12
REMARK                            x       y       z     vdW  Elec       q    Type
REMARK                         _______ _______ _______ _____ _____    ______ ____
ROOT
ATOM      1  C   UNL     1      47.189   7.842  12.164  0.00  0.00    +0.000 C 
ENDROOT
BRANCH   1   2
ATOM      2  C   UNL     1      47.922   7.834  13.471  0.00  0.00    +0.000 A 
ATOM      3  C   UNL     1      47.800   8.895  14.370  0.00  0.00    +0.000 A 
ATOM      4  C   UNL     1      48.451   8.843  15.598  0.00  0.00    +0.000 A 
ATOM      5  C   UNL     1      49.230   7.731  15.899  0.00  0.00    +0.000 A 
ATOM      6  N   UNL     1      49.395   6.698  15.030  0.00  0.00    +0.000 NA
ATOM      7  C   UNL     1      48.745   6.777  13.843  0.00  0.00    +0.000 A 
BRANCH   5   8
ATOM      8  C   UNL     1      49.943   7.644  17.236  0.00  0.00    +0.000 C 
BRANCH   8   9
ATOM      9  N   UNL     1      49.218   6.872  18.254  0.00  0.00    +0.000 NA
ATOM     10  H   UNL     1      48.253   6.831  17.920  0.00  0.00    +0.000 HD
BRANCH   9  11
ATOM     11  C   UNL     1      49.712   5.497  18.412  0.00  0.00    +0.000 C 
BRANCH  11  12
ATOM     12  C   UNL     1      48.547   4.519  18.744  0.00  0.00    +0.000 C 
ATOM     13  C   UNL     1      47.295   4.704  17.890  0.00  0.00    +0.000 C 
ATOM     14  C   UNL     1      47.604   3.919  16.631  0.00  0.00    +0.000 C 
ATOM     15  C   UNL     1      48.507   2.794  17.108  0.00  0.00    +0.000 C 
ATOM     16  N   UNL     1      48.874   3.105  18.491  0.00  0.00    +0.000 NA
ATOM     17  H   UNL     1      49.853   2.901  18.675  0.00  0.00    +0.000 HD
ENDBRANCH  11  12
ENDBRANCH   9  11
ENDBRANCH   8   9
ENDBRANCH   5   8
ENDBRANCH   1   2
BRANCH   1  20
ATOM     18  O   UNL     1      44.444   7.437  11.702  0.00  0.00    +0.000 OA
ATOM     19  C   UNL     1      45.205   6.476  11.645  0.00  0.00    +0.000 C 
ATOM     20  N   UNL     1      46.552   6.583  11.885  0.00  0.00    +0.000 N 
ATOM     21  H   UNL     1      47.161   5.806  11.655  0.00  0.00    +0.000 HD
BRANCH  19  22
ATOM     22  C   UNL     1      44.712   5.127  11.359  0.00  0.00    +0.000 A 
ATOM     23  C   UNL     1      43.941   4.450  12.296  0.00  0.00    +0.000 A 
ATOM     24  S   UNL     1      43.437   2.907  11.772  0.00  0.00    +0.000 S 
ATOM     25  C   UNL     1      44.208   3.107  10.268  0.00  0.00    +0.000 A 
ATOM     26  N   UNL     1      44.127   2.145   9.307  0.00  0.00    +0.000 NA
ATOM     27  C   UNL     1      44.732   2.450   8.201  0.00  0.00    +0.000 A 
ATOM     28  N   UNL     1      45.418   3.613   7.980  0.00  0.00    +0.000 N 
ATOM     29  C   UNL     1      45.587   4.573   8.945  0.00  0.00    +0.000 A 
ATOM     30  O   UNL     1      46.327   5.533   8.763  0.00  0.00    +0.000 OA
ATOM     31  C   UNL     1      44.874   4.311  10.182  0.00  0.00    +0.000 A 
ATOM     32  H   UNL     1      45.906   3.767   7.110  0.00  0.00    +0.000 HD
ENDBRANCH  19  22
ENDBRANCH   1  20
TORSDOF 7
ENDMDL
MODEL 5
REMARK VINA RESULT:    -6.539      3.334      8.005
REMARK INTER + INTRA:         -10.465
REMARK INTER:                  -9.074
REMARK INTRA:                  -1.391
REMARK UNBOUND:                -1.251
REMARK  Name = 
REMARK  7 active torsions:
REMARK  status: ('A' for Active; 'I' for Inactive)
REMARK    1  A    between atoms: C_2  and  C_19
REMARK    2  A    between atoms: N_3  and  C_4
REMARK    3  A    between atoms: C_4  and  C_5
REMARK    4  A    between atoms: C_8  and  C_9
REMARK    5  A    between atoms: C_9  and  N_10
REMARK    6  A    between atoms: N_10  and  C_11
REMARK    7  A    between atoms: C_11  and  C_12
REMARK                            x       y       z     vdW  Elec       q    Type
REMARK                         _______ _______ _______ _____ _____    ______ ____
ROOT
ATOM      1  C   UNL     1      48.307   8.131  11.896  0.00  0.00    +0.000 C 
ENDROOT
BRANCH   1   2
ATOM      2  C   UNL     1      48.532   8.013  13.373  0.00  0.00    +0.000 A 
ATOM      3  C   UNL     1      48.168   9.046  14.240  0.00  0.00    +0.000 A 
ATOM      4  C   UNL     1      48.341   8.894  15.611  0.00  0.00    +0.000 A 
ATOM      5  C   UNL     1      48.893   7.712  16.092  0.00  0.00    +0.000 A 
ATOM      6  N   UNL     1      49.289   6.703  15.270  0.00  0.00    +0.000 NA
ATOM      7  C   UNL     1      49.104   6.880  13.939  0.00  0.00    +0.000 A 
BRANCH   5   8
ATOM      8  C   UNL     1      49.084   7.516  17.585  0.00  0.00    +0.000 C 
BRANCH   8   9
ATOM      9  N   UNL     1      49.945   6.379  17.936  0.00  0.00    +0.000 NA
ATOM     10  H   UNL     1      50.692   6.776  18.509  0.00  0.00    +0.000 HD
BRANCH   9  11
ATOM     11  C   UNL     1      49.260   5.343  18.722  0.00  0.00    +0.000 C 
BRANCH  11  12
ATOM     12  C   UNL     1      49.382   3.949  18.037  0.00  0.00    +0.000 C 
ATOM     13  C   UNL     1      48.328   2.933  18.467  0.00  0.00    +0.000 C 
ATOM     14  C   UNL     1      47.135   3.265  17.595  0.00  0.00    +0.000 C 
ATOM     15  C   UNL     1      47.751   3.801  16.313  0.00  0.00    +0.000 C 
ATOM     16  N   UNL     1      49.178   3.990  16.579  0.00  0.00    +0.000 NA
ATOM     17  H   UNL     1      49.526   4.854  16.168  0.00  0.00    +0.000 HD
ENDBRANCH  11  12
ENDBRANCH   9  11
ENDBRANCH   8   9
ENDBRANCH   5   8
ENDBRANCH   1   2
BRANCH   1  20
ATOM     18  O   UNL     1      45.507   7.917  11.748  0.00  0.00    +0.000 OA
ATOM     19  C   UNL     1      46.198   7.004  11.305  0.00  0.00    +0.000 C 
ATOM     20  N   UNL     1      47.568   7.018  11.364  0.00  0.00    +0.000 N 
ATOM     21  H   UNL     1      48.095   6.335  10.831  0.00  0.00    +0.000 HD
BRANCH  19  22
ATOM     22  C   UNL     1      45.595   5.805  10.718  0.00  0.00    +0.000 A 
ATOM     23  C   UNL     1      45.801   5.501   9.379  0.00  0.00    +0.000 A 
ATOM     24  S   UNL     1      45.045   4.053   8.888  0.00  0.00    +0.000 S 
ATOM     25  C   UNL     1      44.445   3.772  10.454  0.00  0.00    +0.000 A 
ATOM     26  N   UNL     1      43.729   2.648  10.739  0.00  0.00    +0.000 NA
ATOM     27  C   UNL     1      43.368   2.551  11.980  0.00  0.00    +0.000 A 
ATOM     28  N   UNL     1      43.643   3.477  12.950  0.00  0.00    +0.000 N 
ATOM     29  C   UNL     1      44.294   4.656  12.690  0.00  0.00    +0.000 A 
ATOM     30  O   UNL     1      44.396   5.527  13.547  0.00  0.00    +0.000 OA
ATOM     31  C   UNL     1      44.778   4.786  11.328  0.00  0.00    +0.000 A 
ATOM     32  H   UNL     1      43.291   3.361  13.889  0.00  0.00    +0.000 HD
ENDBRANCH  19  22
ENDBRANCH   1  20
TORSDOF 7
ENDMDL
MODEL 6
REMARK VINA RESULT:    -6.371      2.012      2.419
REMARK INTER + INTRA:         -10.229
REMARK INTER:                  -9.535
REMARK INTRA:                  -0.695
REMARK UNBOUND:                -1.251
REMARK  Name = 
REMARK  7 active torsions:
REMARK  status: ('A' for Active; 'I' for Inactive)
REMARK    1  A    between atoms: C_2  and  C_19
REMARK    2  A    between atoms: N_3  and  C_4
REMARK    3  A    between atoms: C_4  and  C_5
REMARK    4  A    between atoms: C_8  and  C_9
REMARK    5  A    between atoms: C_9  and  N_10
REMARK    6  A    between atoms: N_10  and  C_11
REMARK    7  A    between atoms: C_11  and  C_12
REMARK                            x       y       z     vdW  Elec       q    Type
REMARK                         _______ _______ _______ _____ _____    ______ ____
ROOT
ATOM      1  C   UNL     1      47.553   7.674  13.500  0.00  0.00    +0.000 C 
ENDROOT
BRANCH   1   2
ATOM      2  C   UNL     1      46.583   6.567  13.217  0.00  0.00    +0.000 A 
ATOM      3  C   UNL     1      46.934   5.232  13.431  0.00  0.00    +0.000 A 
ATOM      4  C   UNL     1      46.002   4.225  13.208  0.00  0.00    +0.000 A 
ATOM      5  C   UNL     1      44.733   4.571  12.758  0.00  0.00    +0.000 A 
ATOM      6  N   UNL     1      44.373   5.859  12.508  0.00  0.00    +0.000 NA
ATOM      7  C   UNL     1      45.303   6.818  12.738  0.00  0.00    +0.000 A 
BRANCH   5   8
ATOM      8  C   UNL     1      43.693   3.493  12.516  0.00  0.00    +0.000 C 
BRANCH   8   9
ATOM      9  N   UNL     1      43.492   3.160  11.099  0.00  0.00    +0.000 NA
ATOM     10  H   UNL     1      42.983   3.956  10.708  0.00  0.00    +0.000 HD
BRANCH   9  11
ATOM     11  C   UNL     1      44.746   2.999  10.349  0.00  0.00    +0.000 C 
BRANCH  11  12
ATOM     12  C   UNL     1      44.484   2.355   8.956  0.00  0.00    +0.000 C 
ATOM     13  C   UNL     1      44.847   3.239   7.766  0.00  0.00    +0.000 C 
ATOM     14  C   UNL     1      46.336   3.016   7.597  0.00  0.00    +0.000 C 
ATOM     15  C   UNL     1      46.553   1.587   8.069  0.00  0.00    +0.000 C 
ATOM     16  N   UNL     1      45.302   1.158   8.697  0.00  0.00    +0.000 NA
ATOM     17  H   UNL     1      45.473   0.621   9.545  0.00  0.00    +0.000 HD
ENDBRANCH  11  12
ENDBRANCH   9  11
ENDBRANCH   8   9
ENDBRANCH   5   8
ENDBRANCH   1   2
BRANCH   1  20
ATOM     18  O   UNL     1      48.530   8.420  16.030  0.00  0.00    +0.000 OA
ATOM     19  C   UNL     1      49.155   7.595  15.370  0.00  0.00    +0.000 C 
ATOM     20  N   UNL     1      48.762   7.199  14.117  0.00  0.00    +0.000 N 
ATOM     21  H   UNL     1      49.205   6.393  13.689  0.00  0.00    +0.000 HD
BRANCH  19  22
ATOM     22  C   UNL     1      50.401   7.006  15.865  0.00  0.00    +0.000 A 
ATOM     23  C   UNL     1      51.625   7.563  15.518  0.00  0.00    +0.000 A 
ATOM     24  S   UNL     1      52.959   6.759  16.213  0.00  0.00    +0.000 S 
ATOM     25  C   UNL     1      51.943   5.660  17.022  0.00  0.00    +0.000 A 
ATOM     26  N   UNL     1      52.458   4.707  17.848  0.00  0.00    +0.000 NA
ATOM     27  C   UNL     1      51.564   3.966  18.424  0.00  0.00    +0.000 A 
ATOM     28  N   UNL     1      50.213   4.081  18.236  0.00  0.00    +0.000 N 
ATOM     29  C   UNL     1      49.657   4.976  17.358  0.00  0.00    +0.000 A 
ATOM     30  O   UNL     1      48.458   4.956  17.104  0.00  0.00    +0.000 OA
ATOM     31  C   UNL     1      50.611   5.876  16.735  0.00  0.00    +0.000 A 
ATOM     32  H   UNL     1      49.573   3.440  18.682  0.00  0.00    +0.000 HD
ENDBRANCH  19  22
ENDBRANCH   1  20
TORSDOF 7
ENDMDL
MODEL 7
REMARK VINA RESULT:    -6.223      3.296      4.705
REMARK INTER + INTRA:         -10.021
REMARK INTER:                  -9.078
REMARK INTRA:                  -0.943
REMARK UNBOUND:                -1.251
REMARK  Name = 
REMARK  7 active torsions:
REMARK  status: ('A' for Active; 'I' for Inactive)
REMARK    1  A    between atoms: C_2  and  C_19
REMARK    2  A    between atoms: N_3  and  C_4
REMARK    3  A    between atoms: C_4  and  C_5
REMARK    4  A    between atoms: C_8  and  C_9
REMARK    5  A    between atoms: C_9  and  N_10
REMARK    6  A    between atoms: N_10  and  C_11
REMARK    7  A    between atoms: C_11  and  C_12
REMARK                            x       y       z     vdW  Elec       q    Type
REMARK                         _______ _______ _______ _____ _____    ______ ____
ROOT
ATOM      1  C   UNL     1      47.583   5.956  14.026  0.00  0.00    +0.000 C 
ENDROOT
BRANCH   1   2
ATOM      2  C   UNL     1      46.642   5.400  13.000  0.00  0.00    +0.000 A 
ATOM      3  C   UNL     1      46.333   6.119  11.844  0.00  0.00    +0.000 A 
ATOM      4  C   UNL     1      45.496   5.563  10.882  0.00  0.00    +0.000 A 
ATOM      5  C   UNL     1      44.968   4.295  11.104  0.00  0.00    +0.000 A 
ATOM      6  N   UNL     1      45.225   3.585  12.235  0.00  0.00    +0.000 NA
ATOM      7  C   UNL     1      46.046   4.153  13.151  0.00  0.00    +0.000 A 
BRANCH   5   8
ATOM      8  C   UNL     1      44.060   3.660  10.068  0.00  0.00    +0.000 C 
BRANCH   8   9
ATOM      9  N   UNL     1      44.133   4.285   8.741  0.00  0.00    +0.000 NA
ATOM     10  H   UNL     1      44.764   5.082   8.855  0.00  0.00    +0.000 HD
BRANCH   9  11
ATOM     11  C   UNL     1      44.687   3.403   7.704  0.00  0.00    +0.000 C 
BRANCH  11  12
ATOM     12  C   UNL     1      46.243   3.454   7.699  0.00  0.00    +0.000 C 
ATOM     13  C   UNL     1      46.927   2.090   7.683  0.00  0.00    +0.000 C 
ATOM     14  C   UNL     1      46.928   1.710   6.216  0.00  0.00    +0.000 C 
ATOM     15  C   UNL     1      47.014   3.041   5.488  0.00  0.00    +0.000 C 
ATOM     16  N   UNL     1      46.808   4.085   6.494  0.00  0.00    +0.000 NA
ATOM     17  H   UNL     1      46.217   4.835   6.142  0.00  0.00    +0.000 HD
ENDBRANCH  11  12
ENDBRANCH   9  11
ENDBRANCH   8   9
ENDBRANCH   5   8
ENDBRANCH   1   2
BRANCH   1  20
ATOM     18  O   UNL     1      47.557   8.767  13.944  0.00  0.00    +0.000 OA
ATOM     19  C   UNL     1      48.516   8.167  13.468  0.00  0.00    +0.000 C 
ATOM     20  N   UNL     1      48.593   6.798  13.443  0.00  0.00    +0.000 N 
ATOM     21  H   UNL     1      49.473   6.354  13.204  0.00  0.00    +0.000 HD
BRANCH  19  22
ATOM     22  C   UNL     1      49.634   8.882  12.847  0.00  0.00    +0.000 A 
ATOM     23  C   UNL     1      49.427   9.652  11.710  0.00  0.00    +0.000 A 
ATOM     24  S   UNL     1      50.838  10.430  11.152  0.00  0.00    +0.000 S 
ATOM     25  C   UNL     1      51.762   9.787  12.428  0.00  0.00    +0.000 A 
ATOM     26  N   UNL     1      53.080  10.104  12.567  0.00  0.00    +0.000 NA
ATOM     27  C   UNL     1      53.645   9.570  13.604  0.00  0.00    +0.000 A 
ATOM     28  N   UNL     1      53.020   8.741  14.497  0.00  0.00    +0.000 N 
ATOM     29  C   UNL     1      51.717   8.338  14.352  0.00  0.00    +0.000 A 
ATOM     30  O   UNL     1      51.232   7.484  15.084  0.00  0.00    +0.000 OA
ATOM     31  C   UNL     1      51.017   8.959  13.242  0.00  0.00    +0.000 A 
ATOM     32  H   UNL     1      53.533   8.323  15.259  0.00  0.00    +0.000 HD
ENDBRANCH  19  22
ENDBRANCH   1  20
TORSDOF 7
ENDMDL
MODEL 8
REMARK VINA RESULT:    -6.178      3.487      8.692
REMARK INTER + INTRA:          -9.958
REMARK INTER:                  -8.521
REMARK INTRA:                  -1.437
REMARK UNBOUND:                -1.251
REMARK  Name = 
REMARK  7 active torsions:
REMARK  status: ('A' for Active; 'I' for Inactive)
REMARK    1  A    between atoms: C_2  and  C_19
REMARK    2  A    between atoms: N_3  and  C_4
REMARK    3  A    between atoms: C_4  and  C_5
REMARK    4  A    between atoms: C_8  and  C_9
REMARK    5  A    between atoms: C_9  and  N_10
REMARK    6  A    between atoms: N_10  and  C_11
REMARK    7  A    between atoms: C_11  and  C_12
REMARK                            x       y       z     vdW  Elec       q    Type
REMARK                         _______ _______ _______ _____ _____    ______ ____
ROOT
ATOM      1  C   UNL     1      48.406   7.107  14.481  0.00  0.00    +0.000 C 
ENDROOT
BRANCH   1   2
ATOM      2  C   UNL     1      48.563   6.664  15.905  0.00  0.00    +0.000 A 
ATOM      3  C   UNL     1      48.968   7.562  16.895  0.00  0.00    +0.000 A 
ATOM      4  C   UNL     1      49.060   7.141  18.218  0.00  0.00    +0.000 A 
ATOM      5  C   UNL     1      48.760   5.818  18.524  0.00  0.00    +0.000 A 
ATOM      6  N   UNL     1      48.396   4.913  17.576  0.00  0.00    +0.000 NA
ATOM      7  C   UNL     1      48.312   5.355  16.298  0.00  0.00    +0.000 A 
BRANCH   5   8
ATOM      8  C   UNL     1      48.842   5.334  19.960  0.00  0.00    +0.000 C 
BRANCH   8   9
ATOM      9  N   UNL     1      49.939   4.391  20.214  0.00  0.00    +0.000 NA
ATOM     10  H   UNL     1      49.957   3.777  19.397  0.00  0.00    +0.000 HD
BRANCH   9  11
ATOM     11  C   UNL     1      51.254   5.037  20.335  0.00  0.00    +0.000 C 
BRANCH  11  12
ATOM     12  C   UNL     1      52.324   4.291  19.485  0.00  0.00    +0.000 C 
ATOM     13  C   UNL     1      51.897   3.977  18.053  0.00  0.00    +0.000 C 
ATOM     14  C   UNL     1      52.189   5.262  17.305  0.00  0.00    +0.000 C 
ATOM     15  C   UNL     1      53.380   5.857  18.040  0.00  0.00    +0.000 C 
ATOM     16  N   UNL     1      53.552   5.074  19.265  0.00  0.00    +0.000 NA
ATOM     17  H   UNL     1      53.776   5.666  20.061  0.00  0.00    +0.000 HD
ENDBRANCH  11  12
ENDBRANCH   9  11
ENDBRANCH   8   9
ENDBRANCH   5   8
ENDBRANCH   1   2
BRANCH   1  20
ATOM     18  O   UNL     1      47.775   6.976  11.744  0.00  0.00    +0.000 OA
ATOM     19  C   UNL     1      46.928   6.642  12.566  0.00  0.00    +0.000 C 
ATOM     20  N   UNL     1      47.145   6.703  13.919  0.00  0.00    +0.000 N 
ATOM     21  H   UNL     1      46.489   6.254  14.548  0.00  0.00    +0.000 HD
BRANCH  19  22
ATOM     22  C   UNL     1      45.596   6.194  12.152  0.00  0.00    +0.000 A 
ATOM     23  C   UNL     1      44.700   7.092  11.586  0.00  0.00    +0.000 A 
ATOM     24  S   UNL     1      43.215   6.380  11.142  0.00  0.00    +0.000 S 
ATOM     25  C   UNL     1      43.733   4.846  11.664  0.00  0.00    +0.000 A 
ATOM     26  N   UNL     1      42.934   3.751  11.525  0.00  0.00    +0.000 NA
ATOM     27  C   UNL     1      43.475   2.646  11.933  0.00  0.00    +0.000 A 
ATOM     28  N   UNL     1      44.726   2.541  12.479  0.00  0.00    +0.000 N 
ATOM     29  C   UNL     1      45.532   3.627  12.706  0.00  0.00    +0.000 A 
ATOM     30  O   UNL     1      46.583   3.519  13.327  0.00  0.00    +0.000 OA
ATOM     31  C   UNL     1      45.001   4.883  12.207  0.00  0.00    +0.000 A 
ATOM     32  H   UNL     1      45.068   1.654  12.819  0.00  0.00    +0.000 HD
ENDBRANCH  19  22
ENDBRANCH   1  20
TORSDOF 7
ENDMDL
MODEL 9
REMARK VINA RESULT:    -6.075      3.767      8.635
REMARK INTER + INTRA:          -9.813
REMARK INTER:                  -8.883
REMARK INTRA:                  -0.929
REMARK UNBOUND:                -1.251
REMARK  Name = 
REMARK  7 active torsions:
REMARK  status: ('A' for Active; 'I' for Inactive)
REMARK    1  A    between atoms: C_2  and  C_19
REMARK    2  A    between atoms: N_3  and  C_4
REMARK    3  A    between atoms: C_4  and  C_5
REMARK    4  A    between atoms: C_8  and  C_9
REMARK    5  A    between atoms: C_9  and  N_10
REMARK    6  A    between atoms: N_10  and  C_11
REMARK    7  A    between atoms: C_11  and  C_12
REMARK                            x       y       z     vdW  Elec       q    Type
REMARK                         _______ _______ _______ _____ _____    ______ ____
ROOT
ATOM      1  C   UNL     1      47.196   3.395  16.793  0.00  0.00    +0.000 C 
ENDROOT
BRANCH   1   2
ATOM      2  C   UNL     1      48.624   3.561  17.219  0.00  0.00    +0.000 A 
ATOM      3  C   UNL     1      49.546   2.525  17.059  0.00  0.00    +0.000 A 
ATOM      4  C   UNL     1      50.877   2.719  17.416  0.00  0.00    +0.000 A 
ATOM      5  C   UNL     1      51.258   3.947  17.945  0.00  0.00    +0.000 A 
ATOM      6  N   UNL     1      50.376   4.963  18.144  0.00  0.00    +0.000 NA
ATOM      7  C   UNL     1      49.088   4.744  17.783  0.00  0.00    +0.000 A 
BRANCH   5   8
ATOM      8  C   UNL     1      52.705   4.189  18.334  0.00  0.00    +0.000 C 
BRANCH   8   9
ATOM      9  N   UNL     1      53.180   5.552  18.061  0.00  0.00    +0.000 NA
ATOM     10  H   UNL     1      54.062   5.634  18.571  0.00  0.00    +0.000 HD
BRANCH   9  11
ATOM     11  C   UNL     1      53.444   5.809  16.638  0.00  0.00    +0.000 C 
BRANCH  11  12
ATOM     12  C   UNL     1      52.769   7.134  16.175  0.00  0.00    +0.000 C 
ATOM     13  C   UNL     1      53.452   8.405  16.672  0.00  0.00    +0.000 C 
ATOM     14  C   UNL     1      54.573   8.620  15.677  0.00  0.00    +0.000 C 
ATOM     15  C   UNL     1      54.031   8.046  14.377  0.00  0.00    +0.000 C 
ATOM     16  N   UNL     1      52.799   7.331  14.715  0.00  0.00    +0.000 NA
ATOM     17  H   UNL     1      52.724   6.451  14.209  0.00  0.00    +0.000 HD
ENDBRANCH  11  12
ENDBRANCH   9  11
ENDBRANCH   8   9
ENDBRANCH   5   8
ENDBRANCH   1   2
BRANCH   1  20
ATOM     18  O   UNL     1      47.196   3.039  14.003  0.00  0.00    +0.000 OA
ATOM     19  C   UNL     1      46.805   4.106  14.467  0.00  0.00    +0.000 C 
ATOM     20  N   UNL     1      46.800   4.370  15.813  0.00  0.00    +0.000 N 
ATOM     21  H   UNL     1      46.308   5.187  16.157  0.00  0.00    +0.000 HD
BRANCH  19  22
ATOM     22  C   UNL     1      46.357   5.198  13.600  0.00  0.00    +0.000 A 
ATOM     23  C   UNL     1      47.199   6.269  13.329  0.00  0.00    +0.000 A 
ATOM     24  S   UNL     1      46.513   7.423  12.278  0.00  0.00    +0.000 S 
ATOM     25  C   UNL     1      45.082   6.516  12.128  0.00  0.00    +0.000 A 
ATOM     26  N   UNL     1      44.070   6.931  11.316  0.00  0.00    +0.000 NA
ATOM     27  C   UNL     1      43.058   6.122  11.274  0.00  0.00    +0.000 A 
ATOM     28  N   UNL     1      42.963   4.952  11.979  0.00  0.00    +0.000 N 
ATOM     29  C   UNL     1      43.924   4.535  12.863  0.00  0.00    +0.000 A 
ATOM     30  O   UNL     1      43.743   3.560  13.584  0.00  0.00    +0.000 OA
ATOM     31  C   UNL     1      45.109   5.372  12.900  0.00  0.00    +0.000 A 
ATOM     32  H   UNL     1      42.124   4.391  11.935  0.00  0.00    +0.000 HD
ENDBRANCH  19  22
ENDBRANCH   1  20
TORSDOF 7
ENDMDL
