MODEL 1
REMARK VINA RESULT:    -8.285      0.000      0.000
REMARK INTER + INTRA:         -11.835
REMARK INTER:                 -11.191
REMARK INTRA:                  -0.644
REMARK UNBOUND:                -0.644
REMARK  Name = 
REMARK  7 active torsions:
REMARK  status: ('A' for Active; 'I' for Inactive)
REMARK    1  A    between atoms: C_1  and  O_2
REMARK    2  A    between atoms: O_2  and  C_3
REMARK    3  A    between atoms: C_5  and  C_6
REMARK    4  A    between atoms: C_11  and  O_12
REMARK    5  A    between atoms: O_12  and  C_13
REMARK    6  A    between atoms: C_13  and  C_14
REMARK    7  A    between atoms: C_19  and  C_20
REMARK                            x       y       z     vdW  Elec       q    Type
REMARK                         _______ _______ _______ _____ _____    ______ ____
ROOT
ATOM      1  O   UNL     1      43.423   5.127   9.908  0.00  0.00    +0.000 OA
ENDROOT
BRANCH   1   7
ATOM      2  C   UNL     1      44.209   2.744   9.854  0.00  0.00    +0.000 A 
ATOM      3  C   UNL     1      45.115   1.847   9.270  0.00  0.00    +0.000 A 
ATOM      4  C   UNL     1      45.995   2.248   8.258  0.00  0.00    +0.000 A 
ATOM      5  C   UNL     1      45.966   3.574   7.821  0.00  0.00    +0.000 A 
ATOM      6  C   UNL     1      45.080   4.482   8.415  0.00  0.00    +0.000 A 
ATOM      7  C   UNL     1      44.203   4.090   9.433  0.00  0.00    +0.000 A 
BRANCH   4   8
ATOM      8  C   UNL     1      46.900   1.202   7.698  0.00  0.00    +0.000 C 
ATOM      9  N   UNL     1      47.983   1.591   6.964  0.00  0.00    +0.000 N 
ATOM     10  O   UNL     1      46.692   0.007   7.885  0.00  0.00    +0.000 OA
ATOM     11  H   UNL     1      48.235   2.546   6.751  0.00  0.00    +0.000 HD
ATOM     12  H   UNL     1      48.568   0.856   6.593  0.00  0.00    +0.000 HD
ENDBRANCH   4   8
BRANCH   2  14
ATOM     13  C   UNL     1      43.659   2.298  12.141  0.00  0.00    +0.000 C 
ATOM     14  O   UNL     1      43.282   2.328  10.772  0.00  0.00    +0.000 OA
ENDBRANCH   2  14
ENDBRANCH   1   7
BRANCH   1  15
ATOM     15  C   UNL     1      43.465   5.352  11.315  0.00  0.00    +0.000 C 
BRANCH  15  16
ATOM     16  C   UNL     1      44.734   6.018  11.796  0.00  0.00    +0.000 A 
ATOM     17  C   UNL     1      44.925   7.377  11.508  0.00  0.00    +0.000 A 
ATOM     18  C   UNL     1      46.011   8.057  12.034  0.00  0.00    +0.000 A 
ATOM     19  F   UNL     1      46.170   9.358  11.753  0.00  0.00    +0.000 F 
ATOM     20  C   UNL     1      46.913   7.422  12.878  0.00  0.00    +0.000 A 
ATOM     21  C   UNL     1      46.729   6.072  13.210  0.00  0.00    +0.000 A 
ATOM     22  C   UNL     1      45.645   5.374  12.643  0.00  0.00    +0.000 A 
BRANCH  21  23
ATOM     23  C   UNL     1      47.657   5.408  14.209  0.00  0.00    +0.000 C 
ATOM     24  C   UNL     1      46.905   4.434  15.126  0.00  0.00    +0.000 C 
ATOM     25  C   UNL     1      47.806   3.921  16.244  0.00  0.00    +0.000 C 
ATOM     26  C   UNL     1      48.496   5.080  16.949  0.00  0.00    +0.000 C 
ATOM     27  O   UNL     1      49.263   5.837  16.015  0.00  0.00    +0.000 OA
ATOM     28  C   UNL     1      48.436   6.454  15.026  0.00  0.00    +0.000 C 
ENDBRANCH  21  23
ENDBRANCH  15  16
ENDBRANCH   1  15
TORSDOF 6
ENDMDL
MODEL 2
REMARK VINA RESULT:    -8.009      3.011      6.878
REMARK INTER + INTRA:         -11.462
REMARK INTER:                 -10.335
REMARK INTRA:                  -1.127
REMARK UNBOUND:                -0.644
REMARK  Name = 
REMARK  7 active torsions:
REMARK  status: ('A' for Active; 'I' for Inactive)
REMARK    1  A    between atoms: C_1  and  O_2
REMARK    2  A    between atoms: O_2  and  C_3
REMARK    3  A    between atoms: C_5  and  C_6
REMARK    4  A    between atoms: C_11  and  O_12
REMARK    5  A    between atoms: O_12  and  C_13
REMARK    6  A    between atoms: C_13  and  C_14
REMARK    7  A    between atoms: C_19  and  C_20
REMARK                            x       y       z     vdW  Elec       q    Type
REMARK                         _______ _______ _______ _____ _____    ______ ____
ROOT
ATOM      1  O   UNL     1      44.892   6.986  12.638  0.00  0.00    +0.000 OA
ENDROOT
BRANCH   1   7
ATOM      2  C   UNL     1      47.277   6.231  12.820  0.00  0.00    +0.000 A 
ATOM      3  C   UNL     1      48.619   6.621  12.694  0.00  0.00    +0.000 A 
ATOM      4  C   UNL     1      48.970   7.907  12.265  0.00  0.00    +0.000 A 
ATOM      5  C   UNL     1      47.959   8.819  11.956  0.00  0.00    +0.000 A 
ATOM      6  C   UNL     1      46.617   8.443  12.100  0.00  0.00    +0.000 A 
ATOM      7  C   UNL     1      46.257   7.163  12.536  0.00  0.00    +0.000 A 
BRANCH   4   8
ATOM      8  C   UNL     1      50.428   8.203  12.150  0.00  0.00    +0.000 C 
ATOM      9  N   UNL     1      51.213   7.372  11.404  0.00  0.00    +0.000 N 
ATOM     10  O   UNL     1      50.931   9.174  12.709  0.00  0.00    +0.000 OA
ATOM     11  H   UNL     1      50.894   6.549  10.913  0.00  0.00    +0.000 HD
ATOM     12  H   UNL     1      52.196   7.598  11.356  0.00  0.00    +0.000 HD
ENDBRANCH   4   8
BRANCH   2  14
ATOM     13  C   UNL     1      46.781   4.615  14.516  0.00  0.00    +0.000 C 
ATOM     14  O   UNL     1      46.935   4.945  13.144  0.00  0.00    +0.000 OA
ENDBRANCH   2  14
ENDBRANCH   1   7
BRANCH   1  15
ATOM     15  C   UNL     1      44.212   6.631  11.436  0.00  0.00    +0.000 C 
BRANCH  15  16
ATOM     16  C   UNL     1      44.331   5.170  11.068  0.00  0.00    +0.000 A 
ATOM     17  C   UNL     1      43.652   4.227  11.853  0.00  0.00    +0.000 A 
ATOM     18  C   UNL     1      43.631   2.893  11.481  0.00  0.00    +0.000 A 
ATOM     19  F   UNL     1      42.969   2.009  12.242  0.00  0.00    +0.000 F 
ATOM     20  C   UNL     1      44.251   2.465  10.315  0.00  0.00    +0.000 A 
ATOM     21  C   UNL     1      44.910   3.391   9.492  0.00  0.00    +0.000 A 
ATOM     22  C   UNL     1      44.961   4.741   9.893  0.00  0.00    +0.000 A 
BRANCH  21  23
ATOM     23  C   UNL     1      45.500   2.940   8.170  0.00  0.00    +0.000 C 
ATOM     24  C   UNL     1      46.216   1.589   8.296  0.00  0.00    +0.000 C 
ATOM     25  C   UNL     1      46.966   1.240   7.015  0.00  0.00    +0.000 C 
ATOM     26  C   UNL     1      47.842   2.405   6.574  0.00  0.00    +0.000 C 
ATOM     27  O   UNL     1      47.045   3.569   6.370  0.00  0.00    +0.000 OA
ATOM     28  C   UNL     1      46.434   4.014   7.583  0.00  0.00    +0.000 C 
ENDBRANCH  21  23
ENDBRANCH  15  16
ENDBRANCH   1  15
TORSDOF 6
ENDMDL
MODEL 3
REMARK VINA RESULT:    -7.961      2.247      3.151
REMARK INTER + INTRA:         -11.397
REMARK INTER:                 -10.613
REMARK INTRA:                  -0.784
REMARK UNBOUND:                -0.644
REMARK  Name = 
REMARK  7 active torsions:
REMARK  status: ('A' for Active; 'I' for Inactive)
REMARK    1  A    between atoms: C_1  and  O_2
REMARK    2  A    between atoms: O_2  and  C_3
REMARK    3  A    between atoms: C_5  and  C_6
REMARK    4  A    between atoms: C_11  and  O_12
REMARK    5  A    between atoms: O_12  and  C_13
REMARK    6  A    between atoms: C_13  and  C_14
REMARK    7  A    between atoms: C_19  and  C_20
REMARK                            x       y       z     vdW  Elec       q    Type
REMARK                         _______ _______ _______ _____ _____    ______ ____
ROOT
ATOM      1  O   UNL     1      43.677   5.454  10.272  0.00  0.00    +0.000 OA
ENDROOT
BRANCH   1   7
ATOM      2  C   UNL     1      44.179   3.010  10.006  0.00  0.00    +0.000 A 
ATOM      3  C   UNL     1      44.993   2.068   9.359  0.00  0.00    +0.000 A 
ATOM      4  C   UNL     1      45.950   2.454   8.413  0.00  0.00    +0.000 A 
ATOM      5  C   UNL     1      46.093   3.809   8.107  0.00  0.00    +0.000 A 
ATOM      6  C   UNL     1      45.299   4.757   8.764  0.00  0.00    +0.000 A 
ATOM      7  C   UNL     1      44.346   4.380   9.718  0.00  0.00    +0.000 A 
BRANCH   4   8
ATOM      8  C   UNL     1      46.744   1.363   7.776  0.00  0.00    +0.000 C 
ATOM      9  N   UNL     1      47.779   1.697   6.951  0.00  0.00    +0.000 N 
ATOM     10  O   UNL     1      46.488   0.180   7.980  0.00  0.00    +0.000 OA
ATOM     11  H   UNL     1      48.063   2.638   6.718  0.00  0.00    +0.000 HD
ATOM     12  H   UNL     1      48.289   0.933   6.530  0.00  0.00    +0.000 HD
ENDBRANCH   4   8
BRANCH   2  14
ATOM     13  C   UNL     1      43.536   2.144  12.143  0.00  0.00    +0.000 C 
ATOM     14  O   UNL     1      43.177   2.624  10.857  0.00  0.00    +0.000 OA
ENDBRANCH   2  14
ENDBRANCH   1   7
BRANCH   1  15
ATOM     15  C   UNL     1      43.658   5.517  11.696  0.00  0.00    +0.000 C 
BRANCH  15  16
ATOM     16  C   UNL     1      45.011   5.766  12.322  0.00  0.00    +0.000 A 
ATOM     17  C   UNL     1      45.451   4.894  13.328  0.00  0.00    +0.000 A 
ATOM     18  C   UNL     1      46.733   5.010  13.842  0.00  0.00    +0.000 A 
ATOM     19  F   UNL     1      47.136   4.161  14.798  0.00  0.00    +0.000 F 
ATOM     20  C   UNL     1      47.615   5.965  13.355  0.00  0.00    +0.000 A 
ATOM     21  C   UNL     1      47.214   6.829  12.326  0.00  0.00    +0.000 A 
ATOM     22  C   UNL     1      45.898   6.733  11.832  0.00  0.00    +0.000 A 
BRANCH  21  23
ATOM     23  C   UNL     1      48.209   7.803  11.727  0.00  0.00    +0.000 C 
ATOM     24  C   UNL     1      49.656   7.323  11.905  0.00  0.00    +0.000 C 
ATOM     25  C   UNL     1      50.651   8.395  11.473  0.00  0.00    +0.000 C 
ATOM     26  C   UNL     1      50.320   9.728  12.131  0.00  0.00    +0.000 C 
ATOM     27  O   UNL     1      48.995  10.128  11.790  0.00  0.00    +0.000 OA
ATOM     28  C   UNL     1      48.017   9.219  12.301  0.00  0.00    +0.000 C 
ENDBRANCH  21  23
ENDBRANCH  15  16
ENDBRANCH   1  15
TORSDOF 6
ENDMDL
MODEL 4
REMARK VINA RESULT:    -7.629      3.491      7.300
REMARK INTER + INTRA:         -10.949
REMARK INTER:                 -10.022
REMARK INTRA:                  -0.927
REMARK UNBOUND:                -0.644
REMARK  Name = 
REMARK  7 active torsions:
REMARK  status: ('A' for Active; 'I' for Inactive)
REMARK    1  A    between atoms: C_1  and  O_2
REMARK    2  A    between atoms: O_2  and  C_3
REMARK    3  A    between atoms: C_5  and  C_6
REMARK    4  A    between atoms: C_11  and  O_12
REMARK    5  A    between atoms: O_12  and  C_13
REMARK    6  A    between atoms: C_13  and  C_14
REMARK    7  A    between atoms: C_19  and  C_20
REMARK                            x       y       z     vdW  Elec       q    Type
REMARK                         _______ _______ _______ _____ _____    ______ ____
ROOT
ATOM      1  O   UNL     1      44.993   6.960  12.542  0.00  0.00    +0.000 OA
ENDROOT
BRANCH   1   7
ATOM      2  C   UNL     1      46.810   8.675  12.312  0.00  0.00    +0.000 A 
ATOM      3  C   UNL     1      48.197   8.883  12.286  0.00  0.00    +0.000 A 
ATOM      4  C   UNL     1      49.099   7.832  12.492  0.00  0.00    +0.000 A 
ATOM      5  C   UNL     1      48.602   6.549  12.729  0.00  0.00    +0.000 A 
ATOM      6  C   UNL     1      47.219   6.329  12.735  0.00  0.00    +0.000 A 
ATOM      7  C   UNL     1      46.311   7.373  12.522  0.00  0.00    +0.000 A 
BRANCH   4   8
ATOM      8  C   UNL     1      50.551   8.175  12.461  0.00  0.00    +0.000 C 
ATOM      9  N   UNL     1      51.314   7.915  13.563  0.00  0.00    +0.000 N 
ATOM     10  O   UNL     1      51.070   8.681  11.469  0.00  0.00    +0.000 OA
ATOM     11  H   UNL     1      50.979   7.508  14.424  0.00  0.00    +0.000 HD
ATOM     12  H   UNL     1      52.290   8.169  13.510  0.00  0.00    +0.000 HD
ENDBRANCH   4   8
BRANCH   2  14
ATOM     13  C   UNL     1      46.417  10.965  11.736  0.00  0.00    +0.000 C 
ATOM     14  O   UNL     1      45.929   9.719  12.210  0.00  0.00    +0.000 OA
ENDBRANCH   2  14
ENDBRANCH   1   7
BRANCH   1  15
ATOM     15  C   UNL     1      44.411   6.652  11.278  0.00  0.00    +0.000 C 
BRANCH  15  16
ATOM     16  C   UNL     1      44.461   5.185  10.916  0.00  0.00    +0.000 A 
ATOM     17  C   UNL     1      43.714   4.283  11.686  0.00  0.00    +0.000 A 
ATOM     18  C   UNL     1      43.631   2.950  11.316  0.00  0.00    +0.000 A 
ATOM     19  F   UNL     1      42.904   2.106  12.063  0.00  0.00    +0.000 F 
ATOM     20  C   UNL     1      44.256   2.486  10.167  0.00  0.00    +0.000 A 
ATOM     21  C   UNL     1      44.983   3.372   9.359  0.00  0.00    +0.000 A 
ATOM     22  C   UNL     1      45.096   4.719   9.758  0.00  0.00    +0.000 A 
BRANCH  21  23
ATOM     23  C   UNL     1      45.580   2.886   8.053  0.00  0.00    +0.000 C 
ATOM     24  C   UNL     1      46.235   1.507   8.203  0.00  0.00    +0.000 C 
ATOM     25  C   UNL     1      46.996   1.117   6.940  0.00  0.00    +0.000 C 
ATOM     26  C   UNL     1      47.930   2.240   6.510  0.00  0.00    +0.000 C 
ATOM     27  O   UNL     1      47.187   3.435   6.280  0.00  0.00    +0.000 OA
ATOM     28  C   UNL     1      46.571   3.915   7.477  0.00  0.00    +0.000 C 
ENDBRANCH  21  23
ENDBRANCH  15  16
ENDBRANCH   1  15
TORSDOF 6
ENDMDL
MODEL 5
REMARK VINA RESULT:    -7.554      3.113      7.412
REMARK INTER + INTRA:         -10.848
REMARK INTER:                 -10.053
REMARK INTRA:                  -0.795
REMARK UNBOUND:                -0.644
REMARK  Name = 
REMARK  7 active torsions:
REMARK  status: ('A' for Active; 'I' for Inactive)
REMARK    1  A    between atoms: C_1  and  O_2
REMARK    2  A    between atoms: O_2  and  C_3
REMARK    3  A    between atoms: C_5  and  C_6
REMARK    4  A    between atoms: C_11  and  O_12
REMARK    5  A    between atoms: O_12  and  C_13
REMARK    6  A    between atoms: C_13  and  C_14
REMARK    7  A    between atoms: C_19  and  C_20
REMARK                            x       y       z     vdW  Elec       q    Type
REMARK                         _______ _______ _______ _____ _____    ______ ____
ROOT
ATOM      1  O   UNL     1      47.651   6.581  12.464  0.00  0.00    +0.000 OA
ENDROOT
BRANCH   1   7
ATOM      2  C   UNL     1      48.468   6.681  14.834  0.00  0.00    +0.000 A 
ATOM      3  C   UNL     1      48.484   6.021  16.072  0.00  0.00    +0.000 A 
ATOM      4  C   UNL     1      47.785   4.825  16.275  0.00  0.00    +0.000 A 
ATOM      5  C   UNL     1      47.054   4.280  15.217  0.00  0.00    +0.000 A 
ATOM      6  C   UNL     1      47.051   4.921  13.971  0.00  0.00    +0.000 A 
ATOM      7  C   UNL     1      47.754   6.112  13.759  0.00  0.00    +0.000 A 
BRANCH   4   8
ATOM      8  C   UNL     1      47.859   4.225  17.638  0.00  0.00    +0.000 C 
ATOM      9  N   UNL     1      47.239   3.031  17.868  0.00  0.00    +0.000 N 
ATOM     10  O   UNL     1      48.465   4.779  18.551  0.00  0.00    +0.000 OA
ATOM     11  H   UNL     1      46.714   2.502  17.186  0.00  0.00    +0.000 HD
ATOM     12  H   UNL     1      47.302   2.659  18.805  0.00  0.00    +0.000 HD
ENDBRANCH   4   8
BRANCH   2  14
ATOM     13  C   UNL     1      48.326   9.065  14.989  0.00  0.00    +0.000 C 
ATOM     14  O   UNL     1      49.069   7.900  14.665  0.00  0.00    +0.000 OA
ENDBRANCH   2  14
ENDBRANCH   1   7
BRANCH   1  15
ATOM     15  C   UNL     1      46.394   7.147  12.098  0.00  0.00    +0.000 C 
BRANCH  15  16
ATOM     16  C   UNL     1      45.417   6.154  11.511  0.00  0.00    +0.000 A 
ATOM     17  C   UNL     1      44.073   6.231  11.903  0.00  0.00    +0.000 A 
ATOM     18  C   UNL     1      43.122   5.424  11.299  0.00  0.00    +0.000 A 
ATOM     19  F   UNL     1      41.841   5.519  11.683  0.00  0.00    +0.000 F 
ATOM     20  C   UNL     1      43.469   4.550  10.278  0.00  0.00    +0.000 A 
ATOM     21  C   UNL     1      44.801   4.475   9.843  0.00  0.00    +0.000 A 
ATOM     22  C   UNL     1      45.771   5.270  10.484  0.00  0.00    +0.000 A 
BRANCH  21  23
ATOM     23  C   UNL     1      45.161   3.594   8.662  0.00  0.00    +0.000 C 
ATOM     24  C   UNL     1      45.563   2.182   9.106  0.00  0.00    +0.000 C 
ATOM     25  C   UNL     1      46.105   1.369   7.935  0.00  0.00    +0.000 C 
ATOM     26  C   UNL     1      47.180   2.151   7.193  0.00  0.00    +0.000 C 
ATOM     27  O   UNL     1      46.650   3.388   6.722  0.00  0.00    +0.000 OA
ATOM     28  C   UNL     1      46.259   4.242   7.799  0.00  0.00    +0.000 C 
ENDBRANCH  21  23
ENDBRANCH  15  16
ENDBRANCH   1  15
TORSDOF 6
ENDMDL
MODEL 6
REMARK VINA RESULT:    -7.370      1.570      1.920
REMARK INTER + INTRA:         -10.599
REMARK INTER:                  -9.856
REMARK INTRA:                  -0.743
REMARK UNBOUND:                -0.644
REMARK  Name = 
REMARK  7 active torsions:
REMARK  status: ('A' for Active; 'I' for Inactive)
REMARK    1  A    between atoms: C_1  and  O_2
REMARK    2  A    between atoms: O_2  and  C_3
REMARK    3  A    between atoms: C_5  and  C_6
REMARK    4  A    between atoms: C_11  and  O_12
REMARK    5  A    between atoms: O_12  and  C_13
REMARK    6  A    between atoms: C_13  and  C_14
REMARK    7  A    between atoms: C_19  and  C_20
REMARK                            x       y       z     vdW  Elec       q    Type
REMARK                         _______ _______ _______ _____ _____    ______ ____
ROOT
ATOM      1  O   UNL     1      43.719   5.372  10.263  0.00  0.00    +0.000 OA
ENDROOT
BRANCH   1   7
ATOM      2  C   UNL     1      44.242   2.933   9.985  0.00  0.00    +0.000 A 
ATOM      3  C   UNL     1      45.057   2.001   9.327  0.00  0.00    +0.000 A 
ATOM      4  C   UNL     1      45.999   2.399   8.370  0.00  0.00    +0.000 A 
ATOM      5  C   UNL     1      46.125   3.755   8.065  0.00  0.00    +0.000 A 
ATOM      6  C   UNL     1      45.330   4.695   8.734  0.00  0.00    +0.000 A 
ATOM      7  C   UNL     1      44.392   4.306   9.698  0.00  0.00    +0.000 A 
BRANCH   4   8
ATOM      8  C   UNL     1      46.797   1.318   7.722  0.00  0.00    +0.000 C 
ATOM      9  N   UNL     1      47.861   1.662   6.938  0.00  0.00    +0.000 N 
ATOM     10  O   UNL     1      46.519   0.132   7.879  0.00  0.00    +0.000 OA
ATOM     11  H   UNL     1      48.165   2.605   6.744  0.00  0.00    +0.000 HD
ATOM     12  H   UNL     1      48.372   0.904   6.508  0.00  0.00    +0.000 HD
ENDBRANCH   4   8
BRANCH   2  14
ATOM     13  C   UNL     1      43.553   2.484  12.234  0.00  0.00    +0.000 C 
ATOM     14  O   UNL     1      43.254   2.536  10.847  0.00  0.00    +0.000 OA
ENDBRANCH   2  14
ENDBRANCH   1   7
BRANCH   1  15
ATOM     15  C   UNL     1      44.095   5.719  11.594  0.00  0.00    +0.000 C 
BRANCH  15  16
ATOM     16  C   UNL     1      44.965   6.951  11.688  0.00  0.00    +0.000 A 
ATOM     17  C   UNL     1      44.411   8.188  11.328  0.00  0.00    +0.000 A 
ATOM     18  C   UNL     1      45.130   9.357  11.516  0.00  0.00    +0.000 A 
ATOM     19  F   UNL     1      44.579  10.530  11.172  0.00  0.00    +0.000 F 
ATOM     20  C   UNL     1      46.395   9.336  12.089  0.00  0.00    +0.000 A 
ATOM     21  C   UNL     1      46.961   8.117  12.490  0.00  0.00    +0.000 A 
ATOM     22  C   UNL     1      46.242   6.926  12.263  0.00  0.00    +0.000 A 
BRANCH  21  23
ATOM     23  C   UNL     1      48.297   8.104  13.207  0.00  0.00    +0.000 C 
ATOM     24  C   UNL     1      48.392   6.952  14.216  0.00  0.00    +0.000 C 
ATOM     25  C   UNL     1      49.656   7.064  15.063  0.00  0.00    +0.000 C 
ATOM     26  C   UNL     1      49.782   8.461  15.654  0.00  0.00    +0.000 C 
ATOM     27  O   UNL     1      49.807   9.434  14.612  0.00  0.00    +0.000 OA
ATOM     28  C   UNL     1      48.581   9.460  13.879  0.00  0.00    +0.000 C 
ENDBRANCH  21  23
ENDBRANCH  15  16
ENDBRANCH   1  15
TORSDOF 6
ENDMDL
MODEL 7
REMARK VINA RESULT:    -7.235      3.123      7.387
REMARK INTER + INTRA:         -10.416
REMARK INTER:                  -9.541
REMARK INTRA:                  -0.875
REMARK UNBOUND:                -0.644
REMARK  Name = 
REMARK  7 active torsions:
REMARK  status: ('A' for Active; 'I' for Inactive)
REMARK    1  A    between atoms: C_1  and  O_2
REMARK    2  A    between atoms: O_2  and  C_3
REMARK    3  A    between atoms: C_5  and  C_6
REMARK    4  A    between atoms: C_11  and  O_12
REMARK    5  A    between atoms: O_12  and  C_13
REMARK    6  A    between atoms: C_13  and  C_14
REMARK    7  A    between atoms: C_19  and  C_20
REMARK                            x       y       z     vdW  Elec       q    Type
REMARK                         _______ _______ _______ _____ _____    ______ ____
ROOT
ATOM      1  O   UNL     1      47.523   4.982  13.430  0.00  0.00    +0.000 OA
ENDROOT
BRANCH   1   7
ATOM      2  C   UNL     1      48.745   6.963  14.366  0.00  0.00    +0.000 A 
ATOM      3  C   UNL     1      48.971   8.341  14.233  0.00  0.00    +0.000 A 
ATOM      4  C   UNL     1      48.400   9.080  13.190  0.00  0.00    +0.000 A 
ATOM      5  C   UNL     1      47.587   8.426  12.262  0.00  0.00    +0.000 A 
ATOM      6  C   UNL     1      47.338   7.055  12.401  0.00  0.00    +0.000 A 
ATOM      7  C   UNL     1      47.899   6.311  13.445  0.00  0.00    +0.000 A 
BRANCH   4   8
ATOM      8  C   UNL     1      48.727  10.535  13.138  0.00  0.00    +0.000 C 
ATOM      9  N   UNL     1      48.526  11.215  11.971  0.00  0.00    +0.000 N 
ATOM     10  O   UNL     1      49.168  11.129  14.118  0.00  0.00    +0.000 OA
ATOM     11  H   UNL     1      48.174  10.816  11.113  0.00  0.00    +0.000 HD
ATOM     12  H   UNL     1      48.767  12.196  11.970  0.00  0.00    +0.000 HD
ENDBRANCH   4   8
BRANCH   2  14
ATOM     13  C   UNL     1      48.658   5.874  16.496  0.00  0.00    +0.000 C 
ATOM     14  O   UNL     1      49.383   6.224  15.326  0.00  0.00    +0.000 OA
ENDBRANCH   2  14
ENDBRANCH   1   7
BRANCH   1  15
ATOM     15  C   UNL     1      46.200   4.697  13.878  0.00  0.00    +0.000 C 
BRANCH  15  16
ATOM     16  C   UNL     1      45.182   4.582  12.766  0.00  0.00    +0.000 A 
ATOM     17  C   UNL     1      43.929   5.187  12.944  0.00  0.00    +0.000 A 
ATOM     18  C   UNL     1      43.013   5.213  11.905  0.00  0.00    +0.000 A 
ATOM     19  F   UNL     1      41.824   5.804  12.094  0.00  0.00    +0.000 F 
ATOM     20  C   UNL     1      43.321   4.673  10.664  0.00  0.00    +0.000 A 
ATOM     21  C   UNL     1      44.579   4.091  10.447  0.00  0.00    +0.000 A 
ATOM     22  C   UNL     1      45.495   4.033  11.516  0.00  0.00    +0.000 A 
BRANCH  21  23
ATOM     23  C   UNL     1      44.951   3.592   9.065  0.00  0.00    +0.000 C 
ATOM     24  C   UNL     1      45.576   2.191   9.113  0.00  0.00    +0.000 C 
ATOM     25  C   UNL     1      46.120   1.782   7.748  0.00  0.00    +0.000 C 
ATOM     26  C   UNL     1      47.013   2.876   7.178  0.00  0.00    +0.000 C 
ATOM     27  O   UNL     1      46.283   4.095   7.065  0.00  0.00    +0.000 OA
ATOM     28  C   UNL     1      45.875   4.590   8.343  0.00  0.00    +0.000 C 
ENDBRANCH  21  23
ENDBRANCH  15  16
ENDBRANCH   1  15
TORSDOF 6
ENDMDL
MODEL 8
REMARK VINA RESULT:    -6.875      3.269      7.445
REMARK INTER + INTRA:          -9.930
REMARK INTER:                  -9.188
REMARK INTRA:                  -0.743
REMARK UNBOUND:                -0.644
REMARK  Name = 
REMARK  7 active torsions:
REMARK  status: ('A' for Active; 'I' for Inactive)
REMARK    1  A    between atoms: C_1  and  O_2
REMARK    2  A    between atoms: O_2  and  C_3
REMARK    3  A    between atoms: C_5  and  C_6
REMARK    4  A    between atoms: C_11  and  O_12
REMARK    5  A    between atoms: O_12  and  C_13
REMARK    6  A    between atoms: C_13  and  C_14
REMARK    7  A    between atoms: C_19  and  C_20
REMARK                            x       y       z     vdW  Elec       q    Type
REMARK                         _______ _______ _______ _____ _____    ______ ____
ROOT
ATOM      1  O   UNL     1      47.776   6.726  12.115  0.00  0.00    +0.000 OA
ENDROOT
BRANCH   1   7
ATOM      2  C   UNL     1      47.846   5.958  14.503  0.00  0.00    +0.000 A 
ATOM      3  C   UNL     1      48.524   6.070  15.725  0.00  0.00    +0.000 A 
ATOM      4  C   UNL     1      49.678   6.852  15.855  0.00  0.00    +0.000 A 
ATOM      5  C   UNL     1      50.163   7.535  14.737  0.00  0.00    +0.000 A 
ATOM      6  C   UNL     1      49.479   7.446  13.518  0.00  0.00    +0.000 A 
ATOM      7  C   UNL     1      48.321   6.673  13.383  0.00  0.00    +0.000 A 
BRANCH   4   8
ATOM      8  C   UNL     1      50.326   6.880  17.199  0.00  0.00    +0.000 C 
ATOM      9  N   UNL     1      51.208   5.891  17.527  0.00  0.00    +0.000 N 
ATOM     10  O   UNL     1      50.083   7.770  18.009  0.00  0.00    +0.000 OA
ATOM     11  H   UNL     1      51.468   5.117  16.933  0.00  0.00    +0.000 HD
ATOM     12  H   UNL     1      51.619   5.937  18.448  0.00  0.00    +0.000 HD
ENDBRANCH   4   8
BRANCH   2  14
ATOM     13  C   UNL     1      47.015   3.814  13.837  0.00  0.00    +0.000 C 
ATOM     14  O   UNL     1      46.777   5.116  14.352  0.00  0.00    +0.000 OA
ENDBRANCH   2  14
ENDBRANCH   1   7
BRANCH   1  15
ATOM     15  C   UNL     1      46.452   7.247  12.019  0.00  0.00    +0.000 C 
BRANCH  15  16
ATOM     16  C   UNL     1      45.439   6.263  11.482  0.00  0.00    +0.000 A 
ATOM     17  C   UNL     1      44.101   6.399  11.880  0.00  0.00    +0.000 A 
ATOM     18  C   UNL     1      43.120   5.600  11.317  0.00  0.00    +0.000 A 
ATOM     19  F   UNL     1      41.846   5.752  11.706  0.00  0.00    +0.000 F 
ATOM     20  C   UNL     1      43.430   4.672  10.332  0.00  0.00    +0.000 A 
ATOM     21  C   UNL     1      44.755   4.536   9.890  0.00  0.00    +0.000 A 
ATOM     22  C   UNL     1      45.756   5.325  10.491  0.00  0.00    +0.000 A 
BRANCH  21  23
ATOM     23  C   UNL     1      45.076   3.595   8.746  0.00  0.00    +0.000 C 
ATOM     24  C   UNL     1      45.461   2.197   9.247  0.00  0.00    +0.000 C 
ATOM     25  C   UNL     1      45.965   1.320   8.106  0.00  0.00    +0.000 C 
ATOM     26  C   UNL     1      47.040   2.047   7.309  0.00  0.00    +0.000 C 
ATOM     27  O   UNL     1      46.525   3.271   6.791  0.00  0.00    +0.000 OA
ATOM     28  C   UNL     1      46.170   4.181   7.834  0.00  0.00    +0.000 C 
ENDBRANCH  21  23
ENDBRANCH  15  16
ENDBRANCH   1  15
TORSDOF 6
ENDMDL
MODEL 9
REMARK VINA RESULT:    -6.791      3.372      8.113
REMARK INTER + INTRA:          -9.817
REMARK INTER:                  -8.962
REMARK INTRA:                  -0.855
REMARK UNBOUND:                -0.644
REMARK  Name = 
REMARK  7 active torsions:
REMARK  status: ('A' for Active; 'I' for Inactive)
REMARK    1  A    between atoms: C_1  and  O_2
REMARK    2  A    between atoms: O_2  and  C_3
REMARK    3  A    between atoms: C_5  and  C_6
REMARK    4  A    between atoms: C_11  and  O_12
REMARK    5  A    between atoms: O_12  and  C_13
REMARK    6  A    between atoms: C_13  and  C_14
REMARK    7  A    between atoms: C_19  and  C_20
REMARK                            x       y       z     vdW  Elec       q    Type
REMARK                         _______ _______ _______ _____ _____    ______ ____
ROOT
ATOM      1  O   UNL     1      47.659   4.409  16.565  0.00  0.00    +0.000 OA
ENDROOT
BRANCH   1   7
ATOM      2  C   UNL     1      49.967   4.843  17.448  0.00  0.00    +0.000 A 
ATOM      3  C   UNL     1      51.197   4.258  17.784  0.00  0.00    +0.000 A 
ATOM      4  C   UNL     1      51.401   2.876  17.692  0.00  0.00    +0.000 A 
ATOM      5  C   UNL     1      50.351   2.064  17.257  0.00  0.00    +0.000 A 
ATOM      6  C   UNL     1      49.127   2.643  16.899  0.00  0.00    +0.000 A 
ATOM      7  C   UNL     1      48.919   4.024  16.980  0.00  0.00    +0.000 A 
BRANCH   4   8
ATOM      8  C   UNL     1      52.744   2.365  18.094  0.00  0.00    +0.000 C 
ATOM      9  N   UNL     1      52.868   1.057  18.465  0.00  0.00    +0.000 N 
ATOM     10  O   UNL     1      53.733   3.093  18.096  0.00  0.00    +0.000 OA
ATOM     11  H   UNL     1      52.116   0.384  18.500  0.00  0.00    +0.000 HD
ATOM     12  H   UNL     1      53.790   0.749  18.740  0.00  0.00    +0.000 HD
ENDBRANCH   4   8
BRANCH   2  14
ATOM     13  C   UNL     1      50.039   7.067  16.565  0.00  0.00    +0.000 C 
ATOM     14  O   UNL     1      49.738   6.181  17.632  0.00  0.00    +0.000 OA
ENDBRANCH   2  14
ENDBRANCH   1   7
BRANCH   1  15
ATOM     15  C   UNL     1      47.150   3.752  15.407  0.00  0.00    +0.000 C 
BRANCH  15  16
ATOM     16  C   UNL     1      46.845   4.680  14.254  0.00  0.00    +0.000 A 
ATOM     17  C   UNL     1      47.522   5.906  14.187  0.00  0.00    +0.000 A 
ATOM     18  C   UNL     1      47.367   6.732  13.086  0.00  0.00    +0.000 A 
ATOM     19  F   UNL     1      48.030   7.896  13.039  0.00  0.00    +0.000 F 
ATOM     20  C   UNL     1      46.567   6.354  12.015  0.00  0.00    +0.000 A 
ATOM     21  C   UNL     1      45.903   5.119  12.039  0.00  0.00    +0.000 A 
ATOM     22  C   UNL     1      46.034   4.299  13.177  0.00  0.00    +0.000 A 
BRANCH  21  23
ATOM     23  C   UNL     1      45.111   4.665  10.829  0.00  0.00    +0.000 C 
ATOM     24  C   UNL     1      44.919   3.142  10.811  0.00  0.00    +0.000 C 
ATOM     25  C   UNL     1      44.292   2.680   9.500  0.00  0.00    +0.000 C 
ATOM     26  C   UNL     1      45.051   3.256   8.312  0.00  0.00    +0.000 C 
ATOM     27  O   UNL     1      45.053   4.680   8.375  0.00  0.00    +0.000 OA
ATOM     28  C   UNL     1      45.757   5.160   9.522  0.00  0.00    +0.000 C 
ENDBRANCH  21  23
ENDBRANCH  15  16
ENDBRANCH   1  15
TORSDOF 6
ENDMDL
