MODEL 1
REMARK VINA RESULT:    -7.981      0.000      0.000
REMARK INTER + INTRA:         -11.324
REMARK INTER:                 -10.548
REMARK INTRA:                  -0.777
REMARK UNBOUND:                -0.777
REMARK  Name = 
REMARK  6 active torsions:
REMARK  status: ('A' for Active; 'I' for Inactive)
REMARK    1  A    between atoms: N_1  and  C_2
REMARK    2  A    between atoms: C_2  and  C_3
REMARK    3  A    between atoms: C_3  and  C_4
REMARK    4  A    between atoms: C_7  and  C_8
REMARK    5  A    between atoms: C_8  and  N_9
REMARK    6  A    between atoms: C_14  and  C_15
REMARK                            x       y       z     vdW  Elec       q    Type
REMARK                         _______ _______ _______ _____ _____    ______ ____
ROOT
ATOM      1  N   UNL     1      43.727   4.449  10.639  0.00  0.00    +0.000 N 
ATOM      2  C   UNL     1      43.208   3.383  11.325  0.00  0.00    +0.000 A 
ATOM      3  N   UNL     1      43.625   2.237  10.839  0.00  0.00    +0.000 NA
ATOM      4  C   UNL     1      44.427   2.569   9.780  0.00  0.00    +0.000 A 
ATOM      5  C   UNL     1      45.240   1.743   8.992  0.00  0.00    +0.000 A 
ATOM      6  C   UNL     1      46.031   2.320   7.984  0.00  0.00    +0.000 A 
ATOM      7  C   UNL     1      45.900   3.690   7.699  0.00  0.00    +0.000 A 
ATOM      8  C   UNL     1      45.093   4.532   8.478  0.00  0.00    +0.000 A 
ATOM      9  C   UNL     1      44.419   3.944   9.555  0.00  0.00    +0.000 A 
ENDROOT
BRANCH   6  10
ATOM     10  C   UNL     1      47.067   1.494   7.264  0.00  0.00    +0.000 C 
ATOM     11  F   UNL     1      48.324   2.017   7.320  0.00  0.00    +0.000 F 
ATOM     12  F   UNL     1      47.165   0.224   7.745  0.00  0.00    +0.000 F 
ATOM     13  F   UNL     1      46.783   1.367   5.936  0.00  0.00    +0.000 F 
ENDBRANCH   6  10
BRANCH   1  14
ATOM     14  C   UNL     1      43.900   5.792  11.183  0.00  0.00    +0.000 C 
BRANCH  14  18
ATOM     15  C   UNL     1      47.749   6.459  13.076  0.00  0.00    +0.000 A 
ATOM     16  C   UNL     1      46.821   5.575  13.641  0.00  0.00    +0.000 A 
ATOM     17  C   UNL     1      45.578   5.361  13.031  0.00  0.00    +0.000 A 
ATOM     18  C   UNL     1      45.226   6.039  11.855  0.00  0.00    +0.000 A 
ATOM     19  C   UNL     1      46.145   6.934  11.298  0.00  0.00    +0.000 A 
ATOM     20  C   UNL     1      47.385   7.135  11.901  0.00  0.00    +0.000 A 
BRANCH  15  21
ATOM     21  C   UNL     1      49.081   6.788  13.716  0.00  0.00    +0.000 C 
BRANCH  21  22
ATOM     22  C   UNL     1      49.068   7.113  15.217  0.00  0.00    +0.000 C 
BRANCH  22  23
ATOM     23  N   UNL     1      49.681   6.028  15.986  0.00  0.00    +0.000 NA
ATOM     24  H   UNL     1      49.084   5.794  16.779  0.00  0.00    +0.000 HD
ATOM     25  H   UNL     1      50.566   6.346  16.384  0.00  0.00    +0.000 HD
ENDBRANCH  22  23
ENDBRANCH  21  22
ENDBRANCH  15  21
ENDBRANCH  14  18
ENDBRANCH   1  14
TORSDOF 6
ENDMDL
MODEL 2
REMARK VINA RESULT:    -7.892      1.163      1.481
REMARK INTER + INTRA:         -11.206
REMARK INTER:                 -10.343
REMARK INTRA:                  -0.863
REMARK UNBOUND:                -0.777
REMARK  Name = 
REMARK  6 active torsions:
REMARK  status: ('A' for Active; 'I' for Inactive)
REMARK    1  A    between atoms: N_1  and  C_2
REMARK    2  A    between atoms: C_2  and  C_3
REMARK    3  A    between atoms: C_3  and  C_4
REMARK    4  A    between atoms: C_7  and  C_8
REMARK    5  A    between atoms: C_8  and  N_9
REMARK    6  A    between atoms: C_14  and  C_15
REMARK                            x       y       z     vdW  Elec       q    Type
REMARK                         _______ _______ _______ _____ _____    ______ ____
ROOT
ATOM      1  N   UNL     1      43.673   4.393  10.899  0.00  0.00    +0.000 N 
ATOM      2  C   UNL     1      43.181   3.262  11.494  0.00  0.00    +0.000 A 
ATOM      3  N   UNL     1      43.615   2.170  10.908  0.00  0.00    +0.000 NA
ATOM      4  C   UNL     1      44.400   2.609   9.875  0.00  0.00    +0.000 A 
ATOM      5  C   UNL     1      45.221   1.870   9.013  0.00  0.00    +0.000 A 
ATOM      6  C   UNL     1      45.992   2.548   8.052  0.00  0.00    +0.000 A 
ATOM      7  C   UNL     1      45.832   3.934   7.888  0.00  0.00    +0.000 A 
ATOM      8  C   UNL     1      45.016   4.690   8.744  0.00  0.00    +0.000 A 
ATOM      9  C   UNL     1      44.364   3.998   9.770  0.00  0.00    +0.000 A 
ENDROOT
BRANCH   6  10
ATOM     10  C   UNL     1      47.035   1.808   7.255  0.00  0.00    +0.000 C 
ATOM     11  F   UNL     1      47.301   0.556   7.723  0.00  0.00    +0.000 F 
ATOM     12  F   UNL     1      46.696   1.655   5.945  0.00  0.00    +0.000 F 
ATOM     13  F   UNL     1      48.233   2.460   7.254  0.00  0.00    +0.000 F 
ENDBRANCH   6  10
BRANCH   1  14
ATOM     14  C   UNL     1      43.825   5.687  11.556  0.00  0.00    +0.000 C 
BRANCH  14  18
ATOM     15  C   UNL     1      47.891   6.599  12.771  0.00  0.00    +0.000 A 
ATOM     16  C   UNL     1      47.241   5.459  13.260  0.00  0.00    +0.000 A 
ATOM     17  C   UNL     1      45.928   5.165  12.870  0.00  0.00    +0.000 A 
ATOM     18  C   UNL     1      45.228   6.013  11.998  0.00  0.00    +0.000 A 
ATOM     19  C   UNL     1      45.870   7.160  11.522  0.00  0.00    +0.000 A 
ATOM     20  C   UNL     1      47.181   7.443  11.903  0.00  0.00    +0.000 A 
BRANCH  15  21
ATOM     21  C   UNL     1      49.283   7.013  13.203  0.00  0.00    +0.000 C 
BRANCH  21  22
ATOM     22  C   UNL     1      50.030   7.995  12.290  0.00  0.00    +0.000 C 
BRANCH  22  23
ATOM     23  N   UNL     1      50.945   7.279  11.399  0.00  0.00    +0.000 NA
ATOM     24  H   UNL     1      51.866   7.718  11.432  0.00  0.00    +0.000 HD
ATOM     25  H   UNL     1      50.626   7.367  10.434  0.00  0.00    +0.000 HD
ENDBRANCH  22  23
ENDBRANCH  21  22
ENDBRANCH  15  21
ENDBRANCH  14  18
ENDBRANCH   1  14
TORSDOF 6
ENDMDL
MODEL 3
REMARK VINA RESULT:    -7.451      3.523      6.715
REMARK INTER + INTRA:         -10.623
REMARK INTER:                 -10.055
REMARK INTRA:                  -0.568
REMARK UNBOUND:                -0.777
REMARK  Name = 
REMARK  6 active torsions:
REMARK  status: ('A' for Active; 'I' for Inactive)
REMARK    1  A    between atoms: N_1  and  C_2
REMARK    2  A    between atoms: C_2  and  C_3
REMARK    3  A    between atoms: C_3  and  C_4
REMARK    4  A    between atoms: C_7  and  C_8
REMARK    5  A    between atoms: C_8  and  N_9
REMARK    6  A    between atoms: C_14  and  C_15
REMARK                            x       y       z     vdW  Elec       q    Type
REMARK                         _______ _______ _______ _____ _____    ______ ____
ROOT
ATOM      1  N   UNL     1      43.702   5.093  11.925  0.00  0.00    +0.000 N 
ATOM      2  C   UNL     1      43.162   6.297  11.557  0.00  0.00    +0.000 A 
ATOM      3  N   UNL     1      43.963   7.300  11.836  0.00  0.00    +0.000 NA
ATOM      4  C   UNL     1      45.055   6.728  12.431  0.00  0.00    +0.000 A 
ATOM      5  C   UNL     1      46.271   7.319  12.801  0.00  0.00    +0.000 A 
ATOM      6  C   UNL     1      47.285   6.515  13.350  0.00  0.00    +0.000 A 
ATOM      7  C   UNL     1      47.020   5.164  13.635  0.00  0.00    +0.000 A 
ATOM      8  C   UNL     1      45.810   4.556  13.270  0.00  0.00    +0.000 A 
ATOM      9  C   UNL     1      44.873   5.359  12.608  0.00  0.00    +0.000 A 
ENDROOT
BRANCH   6  10
ATOM     10  C   UNL     1      48.669   7.074  13.562  0.00  0.00    +0.000 C 
ATOM     11  F   UNL     1      49.259   6.658  14.719  0.00  0.00    +0.000 F 
ATOM     12  F   UNL     1      49.534   6.752  12.561  0.00  0.00    +0.000 F 
ATOM     13  F   UNL     1      48.664   8.436  13.624  0.00  0.00    +0.000 F 
ENDBRANCH   6  10
BRANCH   1  14
ATOM     14  C   UNL     1      43.359   3.805  11.333  0.00  0.00    +0.000 C 
BRANCH  14  18
ATOM     15  C   UNL     1      45.617   2.729   7.785  0.00  0.00    +0.000 A 
ATOM     16  C   UNL     1      45.250   1.752   8.719  0.00  0.00    +0.000 A 
ATOM     17  C   UNL     1      44.523   2.099   9.865  0.00  0.00    +0.000 A 
ATOM     18  C   UNL     1      44.163   3.432  10.114  0.00  0.00    +0.000 A 
ATOM     19  C   UNL     1      44.541   4.411   9.191  0.00  0.00    +0.000 A 
ATOM     20  C   UNL     1      45.254   4.060   8.046  0.00  0.00    +0.000 A 
BRANCH  15  21
ATOM     21  C   UNL     1      46.459   2.436   6.561  0.00  0.00    +0.000 C 
BRANCH  21  22
ATOM     22  C   UNL     1      47.858   1.854   6.805  0.00  0.00    +0.000 C 
BRANCH  22  23
ATOM     23  N   UNL     1      48.611   1.775   5.551  0.00  0.00    +0.000 NA
ATOM     24  H   UNL     1      47.964   1.650   4.773  0.00  0.00    +0.000 HD
ATOM     25  H   UNL     1      49.206   0.945   5.559  0.00  0.00    +0.000 HD
ENDBRANCH  22  23
ENDBRANCH  21  22
ENDBRANCH  15  21
ENDBRANCH  14  18
ENDBRANCH   1  14
TORSDOF 6
ENDMDL
MODEL 4
REMARK VINA RESULT:    -6.596      4.390      7.528
REMARK INTER + INTRA:          -9.493
REMARK INTER:                  -8.831
REMARK INTRA:                  -0.662
REMARK UNBOUND:                -0.777
REMARK  Name = 
REMARK  6 active torsions:
REMARK  status: ('A' for Active; 'I' for Inactive)
REMARK    1  A    between atoms: N_1  and  C_2
REMARK    2  A    between atoms: C_2  and  C_3
REMARK    3  A    between atoms: C_3  and  C_4
REMARK    4  A    between atoms: C_7  and  C_8
REMARK    5  A    between atoms: C_8  and  N_9
REMARK    6  A    between atoms: C_14  and  C_15
REMARK                            x       y       z     vdW  Elec       q    Type
REMARK                         _______ _______ _______ _____ _____    ______ ____
ROOT
ATOM      1  N   UNL     1      45.881   4.899  12.190  0.00  0.00    +0.000 N 
ATOM      2  C   UNL     1      45.744   4.060  13.264  0.00  0.00    +0.000 A 
ATOM      3  N   UNL     1      46.465   4.452  14.289  0.00  0.00    +0.000 NA
ATOM      4  C   UNL     1      47.117   5.576  13.857  0.00  0.00    +0.000 A 
ATOM      5  C   UNL     1      47.906   6.476  14.586  0.00  0.00    +0.000 A 
ATOM      6  C   UNL     1      48.432   7.607  13.937  0.00  0.00    +0.000 A 
ATOM      7  C   UNL     1      48.265   7.750  12.549  0.00  0.00    +0.000 A 
ATOM      8  C   UNL     1      47.477   6.860  11.804  0.00  0.00    +0.000 A 
ATOM      9  C   UNL     1      46.863   5.817  12.509  0.00  0.00    +0.000 A 
ENDROOT
BRANCH   6  10
ATOM     10  C   UNL     1      49.105   8.696  14.733  0.00  0.00    +0.000 C 
ATOM     11  F   UNL     1      50.272   8.307  15.320  0.00  0.00    +0.000 F 
ATOM     12  F   UNL     1      49.408   9.793  13.986  0.00  0.00    +0.000 F 
ATOM     13  F   UNL     1      48.317   9.145  15.750  0.00  0.00    +0.000 F 
ENDBRANCH   6  10
BRANCH   1  14
ATOM     14  C   UNL     1      44.895   5.071  11.129  0.00  0.00    +0.000 C 
BRANCH  14  18
ATOM     15  C   UNL     1      45.934   3.089   7.410  0.00  0.00    +0.000 A 
ATOM     16  C   UNL     1      46.315   4.417   7.640  0.00  0.00    +0.000 A 
ATOM     17  C   UNL     1      45.979   5.058   8.839  0.00  0.00    +0.000 A 
ATOM     18  C   UNL     1      45.237   4.394   9.828  0.00  0.00    +0.000 A 
ATOM     19  C   UNL     1      44.842   3.073   9.594  0.00  0.00    +0.000 A 
ATOM     20  C   UNL     1      45.189   2.435   8.404  0.00  0.00    +0.000 A 
BRANCH  15  21
ATOM     21  C   UNL     1      46.206   2.359   6.112  0.00  0.00    +0.000 C 
BRANCH  21  22
ATOM     22  C   UNL     1      47.494   2.730   5.363  0.00  0.00    +0.000 C 
BRANCH  22  23
ATOM     23  N   UNL     1      48.580   1.813   5.716  0.00  0.00    +0.000 NA
ATOM     24  H   UNL     1      48.952   2.063   6.632  0.00  0.00    +0.000 HD
ATOM     25  H   UNL     1      49.352   1.925   5.058  0.00  0.00    +0.000 HD
ENDBRANCH  22  23
ENDBRANCH  21  22
ENDBRANCH  15  21
ENDBRANCH  14  18
ENDBRANCH   1  14
TORSDOF 6
ENDMDL
MODEL 5
REMARK VINA RESULT:    -6.084      2.543      3.507
REMARK INTER + INTRA:          -8.817
REMARK INTER:                  -8.097
REMARK INTRA:                  -0.720
REMARK UNBOUND:                -0.777
REMARK  Name = 
REMARK  6 active torsions:
REMARK  status: ('A' for Active; 'I' for Inactive)
REMARK    1  A    between atoms: N_1  and  C_2
REMARK    2  A    between atoms: C_2  and  C_3
REMARK    3  A    between atoms: C_3  and  C_4
REMARK    4  A    between atoms: C_7  and  C_8
REMARK    5  A    between atoms: C_8  and  N_9
REMARK    6  A    between atoms: C_14  and  C_15
REMARK                            x       y       z     vdW  Elec       q    Type
REMARK                         _______ _______ _______ _____ _____    ______ ____
ROOT
ATOM      1  N   UNL     1      45.500   5.918  13.105  0.00  0.00    +0.000 N 
ATOM      2  C   UNL     1      45.992   5.022  14.017  0.00  0.00    +0.000 A 
ATOM      3  N   UNL     1      45.988   3.794  13.551  0.00  0.00    +0.000 NA
ATOM      4  C   UNL     1      45.449   3.891  12.297  0.00  0.00    +0.000 A 
ATOM      5  C   UNL     1      45.340   2.909  11.303  0.00  0.00    +0.000 A 
ATOM      6  C   UNL     1      44.798   3.256  10.053  0.00  0.00    +0.000 A 
ATOM      7  C   UNL     1      44.260   4.541   9.863  0.00  0.00    +0.000 A 
ATOM      8  C   UNL     1      44.363   5.537  10.846  0.00  0.00    +0.000 A 
ATOM      9  C   UNL     1      45.025   5.191  12.030  0.00  0.00    +0.000 A 
ENDROOT
BRANCH   6  10
ATOM     10  C   UNL     1      44.858   2.285   8.902  0.00  0.00    +0.000 C 
ATOM     11  F   UNL     1      44.093   1.171   9.081  0.00  0.00    +0.000 F 
ATOM     12  F   UNL     1      44.455   2.832   7.721  0.00  0.00    +0.000 F 
ATOM     13  F   UNL     1      46.124   1.828   8.686  0.00  0.00    +0.000 F 
ENDBRANCH   6  10
BRANCH   1  14
ATOM     14  C   UNL     1      45.822   7.340  13.069  0.00  0.00    +0.000 C 
BRANCH  14  18
ATOM     15  C   UNL     1      50.043   8.186  12.513  0.00  0.00    +0.000 A 
ATOM     16  C   UNL     1      49.421   8.444  13.741  0.00  0.00    +0.000 A 
ATOM     17  C   UNL     1      48.058   8.172  13.921  0.00  0.00    +0.000 A 
ATOM     18  C   UNL     1      47.281   7.657  12.872  0.00  0.00    +0.000 A 
ATOM     19  C   UNL     1      47.897   7.414  11.641  0.00  0.00    +0.000 A 
ATOM     20  C   UNL     1      49.256   7.673  11.469  0.00  0.00    +0.000 A 
BRANCH  15  21
ATOM     21  C   UNL     1      51.493   8.517  12.229  0.00  0.00    +0.000 C 
BRANCH  21  22
ATOM     22  C   UNL     1      52.008   8.220  10.814  0.00  0.00    +0.000 C 
BRANCH  22  23
ATOM     23  N   UNL     1      52.621   6.891  10.754  0.00  0.00    +0.000 NA
ATOM     24  H   UNL     1      52.077   6.292  10.133  0.00  0.00    +0.000 HD
ATOM     25  H   UNL     1      52.580   6.452  11.675  0.00  0.00    +0.000 HD
ENDBRANCH  22  23
ENDBRANCH  21  22
ENDBRANCH  15  21
ENDBRANCH  14  18
ENDBRANCH   1  14
TORSDOF 6
ENDMDL
MODEL 6
REMARK VINA RESULT:    -5.907      4.505      7.684
REMARK INTER + INTRA:          -8.583
REMARK INTER:                  -8.034
REMARK INTRA:                  -0.550
REMARK UNBOUND:                -0.777
REMARK  Name = 
REMARK  6 active torsions:
REMARK  status: ('A' for Active; 'I' for Inactive)
REMARK    1  A    between atoms: N_1  and  C_2
REMARK    2  A    between atoms: C_2  and  C_3
REMARK    3  A    between atoms: C_3  and  C_4
REMARK    4  A    between atoms: C_7  and  C_8
REMARK    5  A    between atoms: C_8  and  N_9
REMARK    6  A    between atoms: C_14  and  C_15
REMARK                            x       y       z     vdW  Elec       q    Type
REMARK                         _______ _______ _______ _____ _____    ______ ____
ROOT
ATOM      1  N   UNL     1      46.547   5.143  13.822  0.00  0.00    +0.000 N 
ATOM      2  C   UNL     1      46.889   4.399  14.920  0.00  0.00    +0.000 A 
ATOM      3  N   UNL     1      47.914   4.913  15.562  0.00  0.00    +0.000 NA
ATOM      4  C   UNL     1      48.267   6.020  14.838  0.00  0.00    +0.000 A 
ATOM      5  C   UNL     1      49.205   7.015  15.146  0.00  0.00    +0.000 A 
ATOM      6  C   UNL     1      49.360   8.105  14.272  0.00  0.00    +0.000 A 
ATOM      7  C   UNL     1      48.670   8.115  13.047  0.00  0.00    +0.000 A 
ATOM      8  C   UNL     1      47.726   7.128  12.724  0.00  0.00    +0.000 A 
ATOM      9  C   UNL     1      47.505   6.128  13.678  0.00  0.00    +0.000 A 
ENDROOT
BRANCH   6  10
ATOM     10  C   UNL     1      50.201   9.289  14.674  0.00  0.00    +0.000 C 
ATOM     11  F   UNL     1      49.510  10.463  14.726  0.00  0.00    +0.000 F 
ATOM     12  F   UNL     1      50.782   9.140  15.897  0.00  0.00    +0.000 F 
ATOM     13  F   UNL     1      51.226   9.507  13.801  0.00  0.00    +0.000 F 
ENDBRANCH   6  10
BRANCH   1  14
ATOM     14  C   UNL     1      45.222   5.175  13.212  0.00  0.00    +0.000 C 
BRANCH  14  18
ATOM     15  C   UNL     1      45.131   3.775   9.105  0.00  0.00    +0.000 A 
ATOM     16  C   UNL     1      45.375   5.124   9.392  0.00  0.00    +0.000 A 
ATOM     17  C   UNL     1      45.403   5.577  10.717  0.00  0.00    +0.000 A 
ATOM     18  C   UNL     1      45.168   4.697  11.785  0.00  0.00    +0.000 A 
ATOM     19  C   UNL     1      44.909   3.353  11.500  0.00  0.00    +0.000 A 
ATOM     20  C   UNL     1      44.894   2.904  10.180  0.00  0.00    +0.000 A 
BRANCH  15  21
ATOM     21  C   UNL     1      45.021   3.231   7.696  0.00  0.00    +0.000 C 
BRANCH  21  22
ATOM     22  C   UNL     1      46.334   2.877   6.984  0.00  0.00    +0.000 C 
BRANCH  22  23
ATOM     23  N   UNL     1      46.929   4.068   6.374  0.00  0.00    +0.000 NA
ATOM     24  H   UNL     1      47.427   3.803   5.524  0.00  0.00    +0.000 HD
ATOM     25  H   UNL     1      47.632   4.461   7.002  0.00  0.00    +0.000 HD
ENDBRANCH  22  23
ENDBRANCH  21  22
ENDBRANCH  15  21
ENDBRANCH  14  18
ENDBRANCH   1  14
TORSDOF 6
ENDMDL
MODEL 7
REMARK VINA RESULT:    -5.628      3.980      6.457
REMARK INTER + INTRA:          -8.214
REMARK INTER:                  -7.560
REMARK INTRA:                  -0.655
REMARK UNBOUND:                -0.777
REMARK  Name = 
REMARK  6 active torsions:
REMARK  status: ('A' for Active; 'I' for Inactive)
REMARK    1  A    between atoms: N_1  and  C_2
REMARK    2  A    between atoms: C_2  and  C_3
REMARK    3  A    between atoms: C_3  and  C_4
REMARK    4  A    between atoms: C_7  and  C_8
REMARK    5  A    between atoms: C_8  and  N_9
REMARK    6  A    between atoms: C_14  and  C_15
REMARK                            x       y       z     vdW  Elec       q    Type
REMARK                         _______ _______ _______ _____ _____    ______ ____
ROOT
ATOM      1  N   UNL     1      48.566   6.635  14.577  0.00  0.00    +0.000 N 
ATOM      2  C   UNL     1      49.064   7.554  13.692  0.00  0.00    +0.000 A 
ATOM      3  N   UNL     1      48.419   7.533  12.548  0.00  0.00    +0.000 NA
ATOM      4  C   UNL     1      47.482   6.545  12.686  0.00  0.00    +0.000 A 
ATOM      5  C   UNL     1      46.436   6.192  11.822  0.00  0.00    +0.000 A 
ATOM      6  C   UNL     1      45.549   5.170  12.202  0.00  0.00    +0.000 A 
ATOM      7  C   UNL     1      45.798   4.436  13.375  0.00  0.00    +0.000 A 
ATOM      8  C   UNL     1      46.839   4.777  14.252  0.00  0.00    +0.000 A 
ATOM      9  C   UNL     1      47.623   5.883  13.903  0.00  0.00    +0.000 A 
ENDROOT
BRANCH   6  10
ATOM     10  C   UNL     1      44.299   4.910  11.400  0.00  0.00    +0.000 C 
ATOM     11  F   UNL     1      43.655   6.043  11.002  0.00  0.00    +0.000 F 
ATOM     12  F   UNL     1      44.534   4.192  10.266  0.00  0.00    +0.000 F 
ATOM     13  F   UNL     1      43.379   4.195  12.107  0.00  0.00    +0.000 F 
ENDBRANCH   6  10
BRANCH   1  14
ATOM     14  C   UNL     1      48.671   6.728  16.030  0.00  0.00    +0.000 C 
BRANCH  14  18
ATOM     15  C   UNL     1      51.383   3.832  17.792  0.00  0.00    +0.000 A 
ATOM     16  C   UNL     1      50.010   3.564  17.710  0.00  0.00    +0.000 A 
ATOM     17  C   UNL     1      49.135   4.499  17.143  0.00  0.00    +0.000 A 
ATOM     18  C   UNL     1      49.606   5.731  16.663  0.00  0.00    +0.000 A 
ATOM     19  C   UNL     1      50.974   6.006  16.759  0.00  0.00    +0.000 A 
ATOM     20  C   UNL     1      51.844   5.069  17.313  0.00  0.00    +0.000 A 
BRANCH  15  21
ATOM     21  C   UNL     1      52.374   2.897  18.452  0.00  0.00    +0.000 C 
BRANCH  21  22
ATOM     22  C   UNL     1      52.719   1.606  17.697  0.00  0.00    +0.000 C 
BRANCH  22  23
ATOM     23  N   UNL     1      51.829   0.516  18.103  0.00  0.00    +0.000 NA
ATOM     24  H   UNL     1      52.370  -0.342  18.211  0.00  0.00    +0.000 HD
ATOM     25  H   UNL     1      51.152   0.331  17.361  0.00  0.00    +0.000 HD
ENDBRANCH  22  23
ENDBRANCH  21  22
ENDBRANCH  15  21
ENDBRANCH  14  18
ENDBRANCH   1  14
TORSDOF 6
ENDMDL
MODEL 8
REMARK VINA RESULT:    -5.480      3.374      5.170
REMARK INTER + INTRA:          -8.018
REMARK INTER:                  -7.268
REMARK INTRA:                  -0.750
REMARK UNBOUND:                -0.777
REMARK  Name = 
REMARK  6 active torsions:
REMARK  status: ('A' for Active; 'I' for Inactive)
REMARK    1  A    between atoms: N_1  and  C_2
REMARK    2  A    between atoms: C_2  and  C_3
REMARK    3  A    between atoms: C_3  and  C_4
REMARK    4  A    between atoms: C_7  and  C_8
REMARK    5  A    between atoms: C_8  and  N_9
REMARK    6  A    between atoms: C_14  and  C_15
REMARK                            x       y       z     vdW  Elec       q    Type
REMARK                         _______ _______ _______ _____ _____    ______ ____
ROOT
ATOM      1  N   UNL     1      47.300   6.911  13.907  0.00  0.00    +0.000 N 
ATOM      2  C   UNL     1      47.870   5.908  14.646  0.00  0.00    +0.000 A 
ATOM      3  N   UNL     1      47.402   4.727  14.314  0.00  0.00    +0.000 NA
ATOM      4  C   UNL     1      46.473   4.973  13.339  0.00  0.00    +0.000 A 
ATOM      5  C   UNL     1      45.772   4.063  12.536  0.00  0.00    +0.000 A 
ATOM      6  C   UNL     1      44.902   4.552  11.546  0.00  0.00    +0.000 A 
ATOM      7  C   UNL     1      44.653   5.933  11.462  0.00  0.00    +0.000 A 
ATOM      8  C   UNL     1      45.347   6.858  12.256  0.00  0.00    +0.000 A 
ATOM      9  C   UNL     1      46.301   6.341  13.141  0.00  0.00    +0.000 A 
ENDROOT
BRANCH   6  10
ATOM     10  C   UNL     1      44.296   3.612  10.534  0.00  0.00    +0.000 C 
ATOM     11  F   UNL     1      43.788   4.240   9.436  0.00  0.00    +0.000 F 
ATOM     12  F   UNL     1      45.183   2.691  10.065  0.00  0.00    +0.000 F 
ATOM     13  F   UNL     1      43.261   2.897  11.058  0.00  0.00    +0.000 F 
ENDBRANCH   6  10
BRANCH   1  14
ATOM     14  C   UNL     1      47.912   8.209  13.642  0.00  0.00    +0.000 C 
BRANCH  14  18
ATOM     15  C   UNL     1      51.737   8.111  11.592  0.00  0.00    +0.000 A 
ATOM     16  C   UNL     1      50.575   7.661  10.952  0.00  0.00    +0.000 A 
ATOM     17  C   UNL     1      49.341   7.691  11.614  0.00  0.00    +0.000 A 
ATOM     18  C   UNL     1      49.242   8.152  12.936  0.00  0.00    +0.000 A 
ATOM     19  C   UNL     1      50.403   8.587  13.581  0.00  0.00    +0.000 A 
ATOM     20  C   UNL     1      51.628   8.567  12.915  0.00  0.00    +0.000 A 
BRANCH  15  21
ATOM     21  C   UNL     1      53.112   8.045  10.961  0.00  0.00    +0.000 C 
BRANCH  21  22
ATOM     22  C   UNL     1      53.339   6.954   9.905  0.00  0.00    +0.000 C 
BRANCH  22  23
ATOM     23  N   UNL     1      53.591   5.661  10.543  0.00  0.00    +0.000 NA
ATOM     24  H   UNL     1      53.041   4.939  10.077  0.00  0.00    +0.000 HD
ATOM     25  H   UNL     1      53.262   5.685  11.510  0.00  0.00    +0.000 HD
ENDBRANCH  22  23
ENDBRANCH  21  22
ENDBRANCH  15  21
ENDBRANCH  14  18
ENDBRANCH   1  14
TORSDOF 6
ENDMDL
MODEL 9
REMARK VINA RESULT:    -5.232      2.990      4.823
REMARK INTER + INTRA:          -7.690
REMARK INTER:                  -7.158
REMARK INTRA:                  -0.532
REMARK UNBOUND:                -0.777
REMARK  Name = 
REMARK  6 active torsions:
REMARK  status: ('A' for Active; 'I' for Inactive)
REMARK    1  A    between atoms: N_1  and  C_2
REMARK    2  A    between atoms: C_2  and  C_3
REMARK    3  A    between atoms: C_3  and  C_4
REMARK    4  A    between atoms: C_7  and  C_8
REMARK    5  A    between atoms: C_8  and  N_9
REMARK    6  A    between atoms: C_14  and  C_15
REMARK                            x       y       z     vdW  Elec       q    Type
REMARK                         _______ _______ _______ _____ _____    ______ ____
ROOT
ATOM      1  N   UNL     1      47.381   5.919  13.872  0.00  0.00    +0.000 N 
ATOM      2  C   UNL     1      47.109   4.932  14.782  0.00  0.00    +0.000 A 
ATOM      3  N   UNL     1      46.296   4.024  14.293  0.00  0.00    +0.000 NA
ATOM      4  C   UNL     1      46.007   4.450  13.024  0.00  0.00    +0.000 A 
ATOM      5  C   UNL     1      45.300   3.792  12.010  0.00  0.00    +0.000 A 
ATOM      6  C   UNL     1      45.177   4.405  10.751  0.00  0.00    +0.000 A 
ATOM      7  C   UNL     1      45.652   5.715  10.569  0.00  0.00    +0.000 A 
ATOM      8  C   UNL     1      46.364   6.389  11.573  0.00  0.00    +0.000 A 
ATOM      9  C   UNL     1      46.578   5.695  12.770  0.00  0.00    +0.000 A 
ENDROOT
BRANCH   6  10
ATOM     10  C   UNL     1      44.608   3.639   9.584  0.00  0.00    +0.000 C 
ATOM     11  F   UNL     1      43.840   4.397   8.750  0.00  0.00    +0.000 F 
ATOM     12  F   UNL     1      45.566   3.071   8.800  0.00  0.00    +0.000 F 
ATOM     13  F   UNL     1      43.805   2.614   9.989  0.00  0.00    +0.000 F 
ENDBRANCH   6  10
BRANCH   1  14
ATOM     14  C   UNL     1      48.577   6.754  13.873  0.00  0.00    +0.000 C 
BRANCH  14  18
ATOM     15  C   UNL     1      49.263   9.071  17.479  0.00  0.00    +0.000 A 
ATOM     16  C   UNL     1      49.918   7.848  17.283  0.00  0.00    +0.000 A 
ATOM     17  C   UNL     1      49.696   7.100  16.120  0.00  0.00    +0.000 A 
ATOM     18  C   UNL     1      48.800   7.544  15.136  0.00  0.00    +0.000 A 
ATOM     19  C   UNL     1      48.133   8.756  15.337  0.00  0.00    +0.000 A 
ATOM     20  C   UNL     1      48.366   9.505  16.490  0.00  0.00    +0.000 A 
BRANCH  15  21
ATOM     21  C   UNL     1      49.405   9.898  18.740  0.00  0.00    +0.000 C 
BRANCH  21  22
ATOM     22  C   UNL     1      49.059   9.206  20.066  0.00  0.00    +0.000 C 
BRANCH  22  23
ATOM     23  N   UNL     1      47.611   9.027  20.194  0.00  0.00    +0.000 NA
ATOM     24  H   UNL     1      47.399   8.606  21.098  0.00  0.00    +0.000 HD
ATOM     25  H   UNL     1      47.283   8.365  19.490  0.00  0.00    +0.000 HD
ENDBRANCH  22  23
ENDBRANCH  21  22
ENDBRANCH  15  21
ENDBRANCH  14  18
ENDBRANCH   1  14
TORSDOF 6
ENDMDL
