MODEL 1
REMARK VINA RESULT:    -8.846      0.000      0.000
REMARK INTER + INTRA:         -12.196
REMARK INTER:                 -11.432
REMARK INTRA:                  -0.764
REMARK UNBOUND:                -0.764
REMARK  Name = 
REMARK  8 active torsions:
REMARK  status: ('A' for Active; 'I' for Inactive)
REMARK    1  A    between atoms: C_1  and  N_2
REMARK    2  A    between atoms: N_5  and  C_6
REMARK    3  A    between atoms: C_10  and  C_11
REMARK    4  A    between atoms: C_11  and  C_12
REMARK    5  A    between atoms: C_11  and  C_13
REMARK    6  A    between atoms: C_11  and  C_14
REMARK    7  A    between atoms: C_14  and  N_15
REMARK    8  A    between atoms: C_19  and  C_20
REMARK                            x       y       z     vdW  Elec       q    Type
REMARK                         _______ _______ _______ _____ _____    ______ ____
ROOT
ATOM      1  C   UNL     1      43.603   5.403  11.971  0.00  0.00    +0.000 C 
ATOM      2  C   UNL     1      42.963   4.968  13.312  0.00  0.00    +0.000 C 
ATOM      3  C   UNL     1      42.780   6.581  11.397  0.00  0.00    +0.000 C 
ENDROOT
BRANCH   1   8
ATOM      4  C   UNL     1      47.066   5.829  13.676  0.00  0.00    +0.000 A 
ATOM      5  C   UNL     1      47.764   6.474  12.651  0.00  0.00    +0.000 A 
ATOM      6  C   UNL     1      47.134   6.842  11.459  0.00  0.00    +0.000 A 
ATOM      7  C   UNL     1      45.793   6.524  11.250  0.00  0.00    +0.000 A 
ATOM      8  C   UNL     1      45.049   5.865  12.239  0.00  0.00    +0.000 A 
ATOM      9  C   UNL     1      45.700   5.599  13.458  0.00  0.00    +0.000 A 
BRANCH   4  14
ATOM     10  C   UNL     1      48.068   4.935  19.057  0.00  0.00    +0.000 C 
ATOM     11  N   UNL     1      48.306   4.829  17.621  0.00  0.00    +0.000 NA
ATOM     12  C   UNL     1      47.157   4.192  16.943  0.00  0.00    +0.000 C 
ATOM     13  C   UNL     1      47.355   4.063  15.410  0.00  0.00    +0.000 C 
ATOM     14  N   UNL     1      47.683   5.370  14.822  0.00  0.00    +0.000 N 
ATOM     15  C   UNL     1      48.772   6.094  15.501  0.00  0.00    +0.000 C 
ATOM     16  C   UNL     1      48.519   6.168  17.024  0.00  0.00    +0.000 C 
ENDBRANCH   4  14
ENDBRANCH   1   8
BRANCH   1  17
ATOM     17  C   UNL     1      43.459   4.182  10.995  0.00  0.00    +0.000 C 
BRANCH  17  18
ATOM     18  N   UNL     1      43.734   4.511   9.591  0.00  0.00    +0.000 N 
ATOM     19  C   UNL     1      44.781   3.847   8.963  0.00  0.00    +0.000 A 
ATOM     20  C   UNL     1      45.015   2.475   9.100  0.00  0.00    +0.000 A 
ATOM     21  N   UNL     1      45.985   1.793   8.439  0.00  0.00    +0.000 NA
ATOM     22  C   UNL     1      46.729   2.554   7.595  0.00  0.00    +0.000 A 
ATOM     23  C   UNL     1      46.521   3.917   7.448  0.00  0.00    +0.000 A 
ATOM     24  N   UNL     1      45.551   4.586   8.134  0.00  0.00    +0.000 NA
ATOM     25  H   UNL     1      43.832   5.505   9.379  0.00  0.00    +0.000 HD
BRANCH  22  26
ATOM     26  C   UNL     1      47.773   1.856   6.795  0.00  0.00    +0.000 C 
ATOM     27  N   UNL     1      48.702   2.674   6.204  0.00  0.00    +0.000 N 
ATOM     28  O   UNL     1      47.805   0.640   6.678  0.00  0.00    +0.000 OA
ATOM     29  H   UNL     1      48.657   3.676   6.353  0.00  0.00    +0.000 HD
ATOM     30  H   UNL     1      49.465   2.271   5.679  0.00  0.00    +0.000 HD
ENDBRANCH  22  26
ENDBRANCH  17  18
ENDBRANCH   1  17
TORSDOF 5
ENDMDL
MODEL 2
REMARK VINA RESULT:    -8.299      2.002      3.480
REMARK INTER + INTRA:         -11.489
REMARK INTER:                 -10.585
REMARK INTRA:                  -0.904
REMARK UNBOUND:                -0.764
REMARK  Name = 
REMARK  8 active torsions:
REMARK  status: ('A' for Active; 'I' for Inactive)
REMARK    1  A    between atoms: C_1  and  N_2
REMARK    2  A    between atoms: N_5  and  C_6
REMARK    3  A    between atoms: C_10  and  C_11
REMARK    4  A    between atoms: C_11  and  C_12
REMARK    5  A    between atoms: C_11  and  C_13
REMARK    6  A    between atoms: C_11  and  C_14
REMARK    7  A    between atoms: C_14  and  N_15
REMARK    8  A    between atoms: C_19  and  C_20
REMARK                            x       y       z     vdW  Elec       q    Type
REMARK                         _______ _______ _______ _____ _____    ______ ____
ROOT
ATOM      1  C   UNL     1      43.763   5.525  12.023  0.00  0.00    +0.000 C 
ATOM      2  C   UNL     1      42.728   5.375  13.164  0.00  0.00    +0.000 C 
ATOM      3  C   UNL     1      43.545   6.899  11.344  0.00  0.00    +0.000 C 
ENDROOT
BRANCH   1   8
ATOM      4  C   UNL     1      47.325   6.588  13.148  0.00  0.00    +0.000 A 
ATOM      5  C   UNL     1      47.671   5.483  13.931  0.00  0.00    +0.000 A 
ATOM      6  C   UNL     1      46.826   4.377  14.047  0.00  0.00    +0.000 A 
ATOM      7  C   UNL     1      45.584   4.376  13.413  0.00  0.00    +0.000 A 
ATOM      8  C   UNL     1      45.180   5.464  12.627  0.00  0.00    +0.000 A 
ATOM      9  C   UNL     1      46.103   6.514  12.464  0.00  0.00    +0.000 A 
BRANCH   4  14
ATOM     10  C   UNL     1      50.635  10.550  11.123  0.00  0.00    +0.000 C 
ATOM     11  N   UNL     1      49.828   9.875  12.135  0.00  0.00    +0.000 NA
ATOM     12  C   UNL     1      48.422   9.756  11.693  0.00  0.00    +0.000 C 
ATOM     13  C   UNL     1      47.521   9.036  12.730  0.00  0.00    +0.000 C 
ATOM     14  N   UNL     1      48.095   7.732  13.092  0.00  0.00    +0.000 N 
ATOM     15  C   UNL     1      49.518   7.769  13.470  0.00  0.00    +0.000 C 
ATOM     16  C   UNL     1      50.352   8.515  12.403  0.00  0.00    +0.000 C 
ENDBRANCH   4  14
ENDBRANCH   1   8
BRANCH   1  17
ATOM     17  C   UNL     1      43.433   4.403  10.976  0.00  0.00    +0.000 C 
BRANCH  17  18
ATOM     18  N   UNL     1      43.781   4.760   9.595  0.00  0.00    +0.000 N 
ATOM     19  C   UNL     1      44.773   4.019   8.964  0.00  0.00    +0.000 A 
ATOM     20  C   UNL     1      44.861   2.625   9.045  0.00  0.00    +0.000 A 
ATOM     21  N   UNL     1      45.775   1.875   8.379  0.00  0.00    +0.000 NA
ATOM     22  C   UNL     1      46.617   2.590   7.588  0.00  0.00    +0.000 A 
ATOM     23  C   UNL     1      46.554   3.972   7.497  0.00  0.00    +0.000 A 
ATOM     24  N   UNL     1      45.638   4.708   8.189  0.00  0.00    +0.000 NA
ATOM     25  H   UNL     1      43.986   5.747   9.430  0.00  0.00    +0.000 HD
BRANCH  22  26
ATOM     26  C   UNL     1      47.607   1.822   6.784  0.00  0.00    +0.000 C 
ATOM     27  N   UNL     1      48.684   2.544   6.336  0.00  0.00    +0.000 N 
ATOM     28  O   UNL     1      47.475   0.632   6.544  0.00  0.00    +0.000 OA
ATOM     29  H   UNL     1      48.771   3.524   6.585  0.00  0.00    +0.000 HD
ATOM     30  H   UNL     1      49.419   2.083   5.819  0.00  0.00    +0.000 HD
ENDBRANCH  22  26
ENDBRANCH  17  18
ENDBRANCH   1  17
TORSDOF 5
ENDMDL
MODEL 3
REMARK VINA RESULT:    -7.449      3.001      8.486
REMARK INTER + INTRA:         -10.390
REMARK INTER:                  -9.755
REMARK INTRA:                  -0.635
REMARK UNBOUND:                -0.764
REMARK  Name = 
REMARK  8 active torsions:
REMARK  status: ('A' for Active; 'I' for Inactive)
REMARK    1  A    between atoms: C_1  and  N_2
REMARK    2  A    between atoms: N_5  and  C_6
REMARK    3  A    between atoms: C_10  and  C_11
REMARK    4  A    between atoms: C_11  and  C_12
REMARK    5  A    between atoms: C_11  and  C_13
REMARK    6  A    between atoms: C_11  and  C_14
REMARK    7  A    between atoms: C_14  and  N_15
REMARK    8  A    between atoms: C_19  and  C_20
REMARK                            x       y       z     vdW  Elec       q    Type
REMARK                         _______ _______ _______ _____ _____    ______ ____
ROOT
ATOM      1  C   UNL     1      47.012   7.086  12.622  0.00  0.00    +0.000 C 
ATOM      2  C   UNL     1      47.926   7.551  11.463  0.00  0.00    +0.000 C 
ATOM      3  C   UNL     1      46.550   8.336  13.410  0.00  0.00    +0.000 C 
ENDROOT
BRANCH   1   8
ATOM      4  C   UNL     1      44.829   4.825  10.341  0.00  0.00    +0.000 A 
ATOM      5  C   UNL     1      43.631   4.839  11.061  0.00  0.00    +0.000 A 
ATOM      6  C   UNL     1      43.482   5.612  12.216  0.00  0.00    +0.000 A 
ATOM      7  C   UNL     1      44.557   6.355  12.704  0.00  0.00    +0.000 A 
ATOM      8  C   UNL     1      45.786   6.366  12.028  0.00  0.00    +0.000 A 
ATOM      9  C   UNL     1      45.859   5.649  10.819  0.00  0.00    +0.000 A 
BRANCH   4  14
ATOM     10  C   UNL     1      47.258   1.155   6.967  0.00  0.00    +0.000 C 
ATOM     11  N   UNL     1      46.213   2.076   7.405  0.00  0.00    +0.000 NA
ATOM     12  C   UNL     1      45.661   1.661   8.714  0.00  0.00    +0.000 C 
ATOM     13  C   UNL     1      44.551   2.613   9.230  0.00  0.00    +0.000 C 
ATOM     14  N   UNL     1      45.035   4.001   9.254  0.00  0.00    +0.000 N 
ATOM     15  C   UNL     1      45.667   4.454   8.002  0.00  0.00    +0.000 C 
ATOM     16  C   UNL     1      46.747   3.451   7.536  0.00  0.00    +0.000 C 
ENDBRANCH   4  14
ENDBRANCH   1   8
BRANCH   1  17
ATOM     17  C   UNL     1      47.909   6.213  13.570  0.00  0.00    +0.000 C 
BRANCH  17  18
ATOM     18  N   UNL     1      47.151   5.472  14.585  0.00  0.00    +0.000 N 
ATOM     19  C   UNL     1      47.776   5.210  15.798  0.00  0.00    +0.000 A 
ATOM     20  C   UNL     1      48.542   6.155  16.490  0.00  0.00    +0.000 A 
ATOM     21  N   UNL     1      49.100   5.945  17.709  0.00  0.00    +0.000 NA
ATOM     22  C   UNL     1      48.843   4.721  18.239  0.00  0.00    +0.000 A 
ATOM     23  C   UNL     1      48.093   3.767  17.570  0.00  0.00    +0.000 A 
ATOM     24  N   UNL     1      47.556   3.992  16.338  0.00  0.00    +0.000 NA
ATOM     25  H   UNL     1      46.719   4.602  14.270  0.00  0.00    +0.000 HD
BRANCH  22  26
ATOM     26  C   UNL     1      49.378   4.447  19.602  0.00  0.00    +0.000 C 
ATOM     27  N   UNL     1      48.544   3.737  20.427  0.00  0.00    +0.000 N 
ATOM     28  O   UNL     1      50.484   4.822  19.959  0.00  0.00    +0.000 OA
ATOM     29  H   UNL     1      47.646   3.418  20.079  0.00  0.00    +0.000 HD
ATOM     30  H   UNL     1      48.853   3.478  21.352  0.00  0.00    +0.000 HD
ENDBRANCH  22  26
ENDBRANCH  17  18
ENDBRANCH   1  17
TORSDOF 5
ENDMDL
MODEL 4
REMARK VINA RESULT:    -6.987      3.691      7.667
REMARK INTER + INTRA:          -9.793
REMARK INTER:                  -8.748
REMARK INTRA:                  -1.046
REMARK UNBOUND:                -0.764
REMARK  Name = 
REMARK  8 active torsions:
REMARK  status: ('A' for Active; 'I' for Inactive)
REMARK    1  A    between atoms: C_1  and  N_2
REMARK    2  A    between atoms: N_5  and  C_6
REMARK    3  A    between atoms: C_10  and  C_11
REMARK    4  A    between atoms: C_11  and  C_12
REMARK    5  A    between atoms: C_11  and  C_13
REMARK    6  A    between atoms: C_11  and  C_14
REMARK    7  A    between atoms: C_14  and  N_15
REMARK    8  A    between atoms: C_19  and  C_20
REMARK                            x       y       z     vdW  Elec       q    Type
REMARK                         _______ _______ _______ _____ _____    ______ ____
ROOT
ATOM      1  C   UNL     1      49.200   8.682  12.631  0.00  0.00    +0.000 C 
ATOM      2  C   UNL     1      49.773   7.379  12.022  0.00  0.00    +0.000 C 
ATOM      3  C   UNL     1      49.981   9.881  12.041  0.00  0.00    +0.000 C 
ENDROOT
BRANCH   1   8
ATOM      4  C   UNL     1      45.475   7.749  12.054  0.00  0.00    +0.000 A 
ATOM      5  C   UNL     1      44.944   9.016  11.797  0.00  0.00    +0.000 A 
ATOM      6  C   UNL     1      45.760  10.149  11.730  0.00  0.00    +0.000 A 
ATOM      7  C   UNL     1      47.129  10.040  11.971  0.00  0.00    +0.000 A 
ATOM      8  C   UNL     1      47.711   8.795  12.247  0.00  0.00    +0.000 A 
ATOM      9  C   UNL     1      46.866   7.670  12.210  0.00  0.00    +0.000 A 
BRANCH   4  14
ATOM     10  C   UNL     1      43.500   2.612  11.367  0.00  0.00    +0.000 C 
ATOM     11  N   UNL     1      43.563   3.950  11.948  0.00  0.00    +0.000 NA
ATOM     12  C   UNL     1      44.876   4.183  12.589  0.00  0.00    +0.000 C 
ATOM     13  C   UNL     1      45.000   5.596  13.216  0.00  0.00    +0.000 C 
ATOM     14  N   UNL     1      44.684   6.630  12.219  0.00  0.00    +0.000 N 
ATOM     15  C   UNL     1      43.422   6.415  11.489  0.00  0.00    +0.000 C 
ATOM     16  C   UNL     1      43.358   4.984  10.908  0.00  0.00    +0.000 C 
ENDBRANCH   4  14
ENDBRANCH   1   8
BRANCH   1  17
ATOM     17  C   UNL     1      49.492   8.616  14.172  0.00  0.00    +0.000 C 
BRANCH  17  18
ATOM     18  N   UNL     1      50.222   7.411  14.585  0.00  0.00    +0.000 N 
ATOM     19  C   UNL     1      49.568   6.510  15.417  0.00  0.00    +0.000 A 
ATOM     20  C   UNL     1      48.236   6.122  15.237  0.00  0.00    +0.000 A 
ATOM     21  N   UNL     1      47.600   5.191  15.991  0.00  0.00    +0.000 NA
ATOM     22  C   UNL     1      48.374   4.628  16.956  0.00  0.00    +0.000 A 
ATOM     23  C   UNL     1      49.693   5.001  17.158  0.00  0.00    +0.000 A 
ATOM     24  N   UNL     1      50.308   5.952  16.399  0.00  0.00    +0.000 NA
ATOM     25  H   UNL     1      51.152   7.567  14.975  0.00  0.00    +0.000 HD
BRANCH  22  26
ATOM     26  C   UNL     1      47.754   3.556  17.782  0.00  0.00    +0.000 C 
ATOM     27  N   UNL     1      48.396   3.280  18.962  0.00  0.00    +0.000 N 
ATOM     28  O   UNL     1      46.741   2.966  17.437  0.00  0.00    +0.000 OA
ATOM     29  H   UNL     1      49.216   3.816  19.225  0.00  0.00    +0.000 HD
ATOM     30  H   UNL     1      48.011   2.594  19.595  0.00  0.00    +0.000 HD
ENDBRANCH  22  26
ENDBRANCH  17  18
ENDBRANCH   1  17
TORSDOF 5
ENDMDL
MODEL 5
REMARK VINA RESULT:    -6.434      3.151      5.383
REMARK INTER + INTRA:          -9.079
REMARK INTER:                  -8.112
REMARK INTRA:                  -0.967
REMARK UNBOUND:                -0.764
REMARK  Name = 
REMARK  8 active torsions:
REMARK  status: ('A' for Active; 'I' for Inactive)
REMARK    1  A    between atoms: C_1  and  N_2
REMARK    2  A    between atoms: N_5  and  C_6
REMARK    3  A    between atoms: C_10  and  C_11
REMARK    4  A    between atoms: C_11  and  C_12
REMARK    5  A    between atoms: C_11  and  C_13
REMARK    6  A    between atoms: C_11  and  C_14
REMARK    7  A    between atoms: C_14  and  N_15
REMARK    8  A    between atoms: C_19  and  C_20
REMARK                            x       y       z     vdW  Elec       q    Type
REMARK                         _______ _______ _______ _____ _____    ______ ____
ROOT
ATOM      1  C   UNL     1      49.151   8.359  13.785  0.00  0.00    +0.000 C 
ATOM      2  C   UNL     1      48.350   9.619  13.377  0.00  0.00    +0.000 C 
ATOM      3  C   UNL     1      50.660   8.667  13.625  0.00  0.00    +0.000 C 
ENDROOT
BRANCH   1   8
ATOM      4  C   UNL     1      48.969   6.453  17.164  0.00  0.00    +0.000 A 
ATOM      5  C   UNL     1      48.527   7.483  17.999  0.00  0.00    +0.000 A 
ATOM      6  C   UNL     1      48.216   8.749  17.496  0.00  0.00    +0.000 A 
ATOM      7  C   UNL     1      48.389   9.024  16.140  0.00  0.00    +0.000 A 
ATOM      8  C   UNL     1      48.843   8.032  15.259  0.00  0.00    +0.000 A 
ATOM      9  C   UNL     1      49.053   6.748  15.795  0.00  0.00    +0.000 A 
BRANCH   4  14
ATOM     10  C   UNL     1      51.330   1.438  17.329  0.00  0.00    +0.000 C 
ATOM     11  N   UNL     1      50.581   2.577  17.851  0.00  0.00    +0.000 NA
ATOM     12  C   UNL     1      51.403   3.807  17.818  0.00  0.00    +0.000 C 
ATOM     13  C   UNL     1      50.649   5.051  18.355  0.00  0.00    +0.000 C 
ATOM     14  N   UNL     1      49.373   5.225  17.646  0.00  0.00    +0.000 N 
ATOM     15  C   UNL     1      48.539   4.013  17.576  0.00  0.00    +0.000 C 
ATOM     16  C   UNL     1      49.356   2.810  17.052  0.00  0.00    +0.000 C 
ENDBRANCH   4  14
ENDBRANCH   1   8
BRANCH   1  17
ATOM     17  C   UNL     1      48.768   7.238  12.755  0.00  0.00    +0.000 C 
BRANCH  17  18
ATOM     18  N   UNL     1      47.404   7.362  12.227  0.00  0.00    +0.000 N 
ATOM     19  C   UNL     1      46.635   6.208  12.140  0.00  0.00    +0.000 A 
ATOM     20  C   UNL     1      46.581   5.241  13.150  0.00  0.00    +0.000 A 
ATOM     21  N   UNL     1      45.782   4.144  13.119  0.00  0.00    +0.000 NA
ATOM     22  C   UNL     1      44.999   4.052  12.012  0.00  0.00    +0.000 A 
ATOM     23  C   UNL     1      45.041   4.993  10.996  0.00  0.00    +0.000 A 
ATOM     24  N   UNL     1      45.864   6.080  11.038  0.00  0.00    +0.000 NA
ATOM     25  H   UNL     1      47.315   7.855  11.337  0.00  0.00    +0.000 HD
BRANCH  22  26
ATOM     26  C   UNL     1      44.056   2.902  11.943  0.00  0.00    +0.000 C 
ATOM     27  N   UNL     1      43.964   2.293  10.718  0.00  0.00    +0.000 N 
ATOM     28  O   UNL     1      43.414   2.522  12.910  0.00  0.00    +0.000 OA
ATOM     29  H   UNL     1      44.540   2.621   9.949  0.00  0.00    +0.000 HD
ATOM     30  H   UNL     1      43.377   1.480  10.603  0.00  0.00    +0.000 HD
ENDBRANCH  22  26
ENDBRANCH  17  18
ENDBRANCH   1  17
TORSDOF 5
ENDMDL
MODEL 6
REMARK VINA RESULT:    -6.217      3.617      5.854
REMARK INTER + INTRA:          -8.798
REMARK INTER:                  -8.083
REMARK INTRA:                  -0.716
REMARK UNBOUND:                -0.764
REMARK  Name = 
REMARK  8 active torsions:
REMARK  status: ('A' for Active; 'I' for Inactive)
REMARK    1  A    between atoms: C_1  and  N_2
REMARK    2  A    between atoms: N_5  and  C_6
REMARK    3  A    between atoms: C_10  and  C_11
REMARK    4  A    between atoms: C_11  and  C_12
REMARK    5  A    between atoms: C_11  and  C_13
REMARK    6  A    between atoms: C_11  and  C_14
REMARK    7  A    between atoms: C_14  and  N_15
REMARK    8  A    between atoms: C_19  and  C_20
REMARK                            x       y       z     vdW  Elec       q    Type
REMARK                         _______ _______ _______ _____ _____    ______ ____
ROOT
ATOM      1  C   UNL     1      49.289   7.724  14.370  0.00  0.00    +0.000 C 
ATOM      2  C   UNL     1      48.564   8.995  14.875  0.00  0.00    +0.000 C 
ATOM      3  C   UNL     1      49.690   7.947  12.892  0.00  0.00    +0.000 C 
ENDROOT
BRANCH   1   8
ATOM      4  C   UNL     1      51.869   6.073  16.758  0.00  0.00    +0.000 A 
ATOM      5  C   UNL     1      52.947   6.947  16.592  0.00  0.00    +0.000 A 
ATOM      6  C   UNL     1      52.844   8.089  15.795  0.00  0.00    +0.000 A 
ATOM      7  C   UNL     1      51.663   8.356  15.102  0.00  0.00    +0.000 A 
ATOM      8  C   UNL     1      50.555   7.505  15.222  0.00  0.00    +0.000 A 
ATOM      9  C   UNL     1      50.674   6.419  16.110  0.00  0.00    +0.000 A 
BRANCH   4  14
ATOM     10  C   UNL     1      52.710   0.695  17.820  0.00  0.00    +0.000 C 
ATOM     11  N   UNL     1      52.394   2.084  18.140  0.00  0.00    +0.000 NA
ATOM     12  C   UNL     1      53.518   2.976  17.779  0.00  0.00    +0.000 C 
ATOM     13  C   UNL     1      53.230   4.467  18.090  0.00  0.00    +0.000 C 
ATOM     14  N   UNL     1      51.971   4.890  17.461  0.00  0.00    +0.000 N 
ATOM     15  C   UNL     1      50.825   4.000  17.719  0.00  0.00    +0.000 C 
ATOM     16  C   UNL     1      51.188   2.530  17.406  0.00  0.00    +0.000 C 
ENDBRANCH   4  14
ENDBRANCH   1   8
BRANCH   1  17
ATOM     17  C   UNL     1      48.235   6.563  14.424  0.00  0.00    +0.000 C 
BRANCH  17  18
ATOM     18  N   UNL     1      46.975   6.875  13.738  0.00  0.00    +0.000 N 
ATOM     19  C   UNL     1      46.337   5.847  13.054  0.00  0.00    +0.000 A 
ATOM     20  C   UNL     1      46.197   4.553  13.565  0.00  0.00    +0.000 A 
ATOM     21  N   UNL     1      45.515   3.554  12.948  0.00  0.00    +0.000 NA
ATOM     22  C   UNL     1      44.944   3.913  11.769  0.00  0.00    +0.000 A 
ATOM     23  C   UNL     1      45.075   5.186  11.239  0.00  0.00    +0.000 A 
ATOM     24  N   UNL     1      45.779   6.170  11.867  0.00  0.00    +0.000 NA
ATOM     25  H   UNL     1      46.996   7.687  13.119  0.00  0.00    +0.000 HD
BRANCH  22  26
ATOM     26  C   UNL     1      44.132   2.880  11.069  0.00  0.00    +0.000 C 
ATOM     27  N   UNL     1      44.727   2.309   9.973  0.00  0.00    +0.000 N 
ATOM     28  O   UNL     1      43.015   2.557  11.446  0.00  0.00    +0.000 OA
ATOM     29  H   UNL     1      45.669   2.584   9.713  0.00  0.00    +0.000 HD
ATOM     30  H   UNL     1      44.255   1.572   9.471  0.00  0.00    +0.000 HD
ENDBRANCH  22  26
ENDBRANCH  17  18
ENDBRANCH   1  17
TORSDOF 5
ENDMDL
MODEL 7
REMARK VINA RESULT:    -6.050      3.880      8.365
REMARK INTER + INTRA:          -8.582
REMARK INTER:                  -7.746
REMARK INTRA:                  -0.836
REMARK UNBOUND:                -0.764
REMARK  Name = 
REMARK  8 active torsions:
REMARK  status: ('A' for Active; 'I' for Inactive)
REMARK    1  A    between atoms: C_1  and  N_2
REMARK    2  A    between atoms: N_5  and  C_6
REMARK    3  A    between atoms: C_10  and  C_11
REMARK    4  A    between atoms: C_11  and  C_12
REMARK    5  A    between atoms: C_11  and  C_13
REMARK    6  A    between atoms: C_11  and  C_14
REMARK    7  A    between atoms: C_14  and  N_15
REMARK    8  A    between atoms: C_19  and  C_20
REMARK                            x       y       z     vdW  Elec       q    Type
REMARK                         _______ _______ _______ _____ _____    ______ ____
ROOT
ATOM      1  C   UNL     1      48.658   8.099  12.950  0.00  0.00    +0.000 C 
ATOM      2  C   UNL     1      49.697   8.061  11.802  0.00  0.00    +0.000 C 
ATOM      3  C   UNL     1      48.975   9.316  13.853  0.00  0.00    +0.000 C 
ENDROOT
BRANCH   1   8
ATOM      4  C   UNL     1      45.197   7.224  11.422  0.00  0.00    +0.000 A 
ATOM      5  C   UNL     1      44.592   8.484  11.456  0.00  0.00    +0.000 A 
ATOM      6  C   UNL     1      45.288   9.617  11.884  0.00  0.00    +0.000 A 
ATOM      7  C   UNL     1      46.601   9.501  12.338  0.00  0.00    +0.000 A 
ATOM      8  C   UNL     1      47.252   8.259  12.340  0.00  0.00    +0.000 A 
ATOM      9  C   UNL     1      46.543   7.164  11.810  0.00  0.00    +0.000 A 
BRANCH   4  14
ATOM     10  C   UNL     1      43.213   2.057  11.766  0.00  0.00    +0.000 C 
ATOM     11  N   UNL     1      43.399   3.377  11.171  0.00  0.00    +0.000 NA
ATOM     12  C   UNL     1      42.928   4.438  12.088  0.00  0.00    +0.000 C 
ATOM     13  C   UNL     1      43.111   5.864  11.507  0.00  0.00    +0.000 C 
ATOM     14  N   UNL     1      44.507   6.075  11.094  0.00  0.00    +0.000 N 
ATOM     15  C   UNL     1      45.063   5.012  10.240  0.00  0.00    +0.000 C 
ATOM     16  C   UNL     1      44.829   3.620  10.869  0.00  0.00    +0.000 C 
ENDBRANCH   4  14
ENDBRANCH   1   8
BRANCH   1  17
ATOM     17  C   UNL     1      48.880   6.793  13.791  0.00  0.00    +0.000 C 
BRANCH  17  18
ATOM     18  N   UNL     1      48.129   6.766  15.052  0.00  0.00    +0.000 N 
ATOM     19  C   UNL     1      48.752   6.218  16.166  0.00  0.00    +0.000 A 
ATOM     20  C   UNL     1      50.085   6.472  16.507  0.00  0.00    +0.000 A 
ATOM     21  N   UNL     1      50.692   6.007  17.628  0.00  0.00    +0.000 NA
ATOM     22  C   UNL     1      49.887   5.266  18.434  0.00  0.00    +0.000 A 
ATOM     23  C   UNL     1      48.566   4.995  18.115  0.00  0.00    +0.000 A 
ATOM     24  N   UNL     1      47.980   5.458  16.974  0.00  0.00    +0.000 NA
ATOM     25  H   UNL     1      47.190   6.370  15.001  0.00  0.00    +0.000 HD
BRANCH  22  26
ATOM     26  C   UNL     1      50.475   4.774  19.711  0.00  0.00    +0.000 C 
ATOM     27  N   UNL     1      51.750   4.279  19.616  0.00  0.00    +0.000 N 
ATOM     28  O   UNL     1      49.867   4.813  20.770  0.00  0.00    +0.000 OA
ATOM     29  H   UNL     1      52.230   4.295  18.722  0.00  0.00    +0.000 HD
ATOM     30  H   UNL     1      52.231   3.965  20.447  0.00  0.00    +0.000 HD
ENDBRANCH  22  26
ENDBRANCH  17  18
ENDBRANCH   1  17
TORSDOF 5
ENDMDL
MODEL 8
REMARK VINA RESULT:    -6.007      3.043      4.984
REMARK INTER + INTRA:          -8.527
REMARK INTER:                  -7.821
REMARK INTRA:                  -0.706
REMARK UNBOUND:                -0.764
REMARK  Name = 
REMARK  8 active torsions:
REMARK  status: ('A' for Active; 'I' for Inactive)
REMARK    1  A    between atoms: C_1  and  N_2
REMARK    2  A    between atoms: N_5  and  C_6
REMARK    3  A    between atoms: C_10  and  C_11
REMARK    4  A    between atoms: C_11  and  C_12
REMARK    5  A    between atoms: C_11  and  C_13
REMARK    6  A    between atoms: C_11  and  C_14
REMARK    7  A    between atoms: C_14  and  N_15
REMARK    8  A    between atoms: C_19  and  C_20
REMARK                            x       y       z     vdW  Elec       q    Type
REMARK                         _______ _______ _______ _____ _____    ______ ____
ROOT
ATOM      1  C   UNL     1      48.707   8.064  13.210  0.00  0.00    +0.000 C 
ATOM      2  C   UNL     1      48.441   9.577  13.014  0.00  0.00    +0.000 C 
ATOM      3  C   UNL     1      49.023   7.442  11.828  0.00  0.00    +0.000 C 
ENDROOT
BRANCH   1   8
ATOM      4  C   UNL     1      50.919   6.890  16.179  0.00  0.00    +0.000 A 
ATOM      5  C   UNL     1      52.167   7.347  15.746  0.00  0.00    +0.000 A 
ATOM      6  C   UNL     1      52.306   8.084  14.568  0.00  0.00    +0.000 A 
ATOM      7  C   UNL     1      51.194   8.339  13.766  0.00  0.00    +0.000 A 
ATOM      8  C   UNL     1      49.920   7.892  14.145  0.00  0.00    +0.000 A 
ATOM      9  C   UNL     1      49.815   7.237  15.386  0.00  0.00    +0.000 A 
BRANCH   4  14
ATOM     10  C   UNL     1      48.731   4.736  20.797  0.00  0.00    +0.000 C 
ATOM     11  N   UNL     1      49.705   4.865  19.717  0.00  0.00    +0.000 NA
ATOM     12  C   UNL     1      49.060   4.663  18.401  0.00  0.00    +0.000 C 
ATOM     13  C   UNL     1      50.051   4.798  17.216  0.00  0.00    +0.000 C 
ATOM     14  N   UNL     1      50.764   6.082  17.286  0.00  0.00    +0.000 N 
ATOM     15  C   UNL     1      51.366   6.380  18.597  0.00  0.00    +0.000 C 
ATOM     16  C   UNL     1      50.330   6.207  19.731  0.00  0.00    +0.000 C 
ENDBRANCH   4  14
ENDBRANCH   1   8
BRANCH   1  17
ATOM     17  C   UNL     1      47.364   7.442  13.732  0.00  0.00    +0.000 C 
BRANCH  17  18
ATOM     18  N   UNL     1      46.276   7.471  12.747  0.00  0.00    +0.000 N 
ATOM     19  C   UNL     1      45.747   6.255  12.330  0.00  0.00    +0.000 A 
ATOM     20  C   UNL     1      45.461   5.200  13.203  0.00  0.00    +0.000 A 
ATOM     21  N   UNL     1      44.877   4.033  12.830  0.00  0.00    +0.000 NA
ATOM     22  C   UNL     1      44.563   3.962  11.510  0.00  0.00    +0.000 A 
ATOM     23  C   UNL     1      44.843   4.991  10.625  0.00  0.00    +0.000 A 
ATOM     24  N   UNL     1      45.446   6.149  11.018  0.00  0.00    +0.000 NA
ATOM     25  H   UNL     1      46.448   8.031  11.911  0.00  0.00    +0.000 HD
BRANCH  22  26
ATOM     26  C   UNL     1      43.866   2.730  11.045  0.00  0.00    +0.000 C 
ATOM     27  N   UNL     1      44.402   2.140   9.929  0.00  0.00    +0.000 N 
ATOM     28  O   UNL     1      42.890   2.273  11.620  0.00  0.00    +0.000 OA
ATOM     29  H   UNL     1      45.233   2.535   9.502  0.00  0.00    +0.000 HD
ATOM     30  H   UNL     1      44.009   1.278   9.579  0.00  0.00    +0.000 HD
ENDBRANCH  22  26
ENDBRANCH  17  18
ENDBRANCH   1  17
TORSDOF 5
ENDMDL
MODEL 9
REMARK VINA RESULT:    -5.945      3.672      5.940
REMARK INTER + INTRA:          -8.447
REMARK INTER:                  -7.461
REMARK INTRA:                  -0.985
REMARK UNBOUND:                -0.764
REMARK  Name = 
REMARK  8 active torsions:
REMARK  status: ('A' for Active; 'I' for Inactive)
REMARK    1  A    between atoms: C_1  and  N_2
REMARK    2  A    between atoms: N_5  and  C_6
REMARK    3  A    between atoms: C_10  and  C_11
REMARK    4  A    between atoms: C_11  and  C_12
REMARK    5  A    between atoms: C_11  and  C_13
REMARK    6  A    between atoms: C_11  and  C_14
REMARK    7  A    between atoms: C_14  and  N_15
REMARK    8  A    between atoms: C_19  and  C_20
REMARK                            x       y       z     vdW  Elec       q    Type
REMARK                         _______ _______ _______ _____ _____    ______ ____
ROOT
ATOM      1  C   UNL     1      49.873   9.181  13.430  0.00  0.00    +0.000 C 
ATOM      2  C   UNL     1      48.655   9.862  14.100  0.00  0.00    +0.000 C 
ATOM      3  C   UNL     1      50.788  10.284  12.845  0.00  0.00    +0.000 C 
ENDROOT
BRANCH   1   8
ATOM      4  C   UNL     1      50.632   6.740  16.354  0.00  0.00    +0.000 A 
ATOM      5  C   UNL     1      52.028   6.720  16.297  0.00  0.00    +0.000 A 
ATOM      6  C   UNL     1      52.733   7.524  15.397  0.00  0.00    +0.000 A 
ATOM      7  C   UNL     1      52.045   8.334  14.495  0.00  0.00    +0.000 A 
ATOM      8  C   UNL     1      50.644   8.382  14.499  0.00  0.00    +0.000 A 
ATOM      9  C   UNL     1      49.981   7.628  15.486  0.00  0.00    +0.000 A 
BRANCH   4  14
ATOM     10  C   UNL     1      47.270   2.606  17.890  0.00  0.00    +0.000 C 
ATOM     11  N   UNL     1      48.161   3.744  18.091  0.00  0.00    +0.000 NA
ATOM     12  C   UNL     1      49.501   3.469  17.526  0.00  0.00    +0.000 C 
ATOM     13  C   UNL     1      50.487   4.652  17.705  0.00  0.00    +0.000 C 
ATOM     14  N   UNL     1      49.907   5.890  17.165  0.00  0.00    +0.000 N 
ATOM     15  C   UNL     1      48.540   6.184  17.630  0.00  0.00    +0.000 C 
ATOM     16  C   UNL     1      47.618   4.958  17.439  0.00  0.00    +0.000 C 
ENDBRANCH   4  14
ENDBRANCH   1   8
BRANCH   1  17
ATOM     17  C   UNL     1      49.305   8.332  12.238  0.00  0.00    +0.000 C 
BRANCH  17  18
ATOM     18  N   UNL     1      49.257   6.890  12.509  0.00  0.00    +0.000 N 
ATOM     19  C   UNL     1      48.008   6.297  12.647  0.00  0.00    +0.000 A 
ATOM     20  C   UNL     1      46.926   6.577  11.806  0.00  0.00    +0.000 A 
ATOM     21  N   UNL     1      45.720   5.957  11.875  0.00  0.00    +0.000 NA
ATOM     22  C   UNL     1      45.636   5.003  12.839  0.00  0.00    +0.000 A 
ATOM     23  C   UNL     1      46.692   4.714  13.689  0.00  0.00    +0.000 A 
ATOM     24  N   UNL     1      47.890   5.360  13.613  0.00  0.00    +0.000 NA
ATOM     25  H   UNL     1      49.837   6.564  13.283  0.00  0.00    +0.000 HD
BRANCH  22  26
ATOM     26  C   UNL     1      44.359   4.244  12.931  0.00  0.00    +0.000 C 
ATOM     27  N   UNL     1      44.441   2.916  12.601  0.00  0.00    +0.000 N 
ATOM     28  O   UNL     1      43.311   4.765  13.283  0.00  0.00    +0.000 OA
ATOM     29  H   UNL     1      45.338   2.516  12.346  0.00  0.00    +0.000 HD
ATOM     30  H   UNL     1      43.625   2.327  12.679  0.00  0.00    +0.000 HD
ENDBRANCH  22  26
ENDBRANCH  17  18
ENDBRANCH   1  17
TORSDOF 5
ENDMDL
