MODEL 1
REMARK VINA RESULT:    -7.548      0.000      0.000
REMARK INTER + INTRA:         -10.453
REMARK INTER:                  -9.754
REMARK INTRA:                  -0.699
REMARK UNBOUND:                -0.699
REMARK  Name = 
REMARK  6 active torsions:
REMARK  status: ('A' for Active; 'I' for Inactive)
REMARK    1  A    between atoms: C_1  and  S_2
REMARK    2  A    between atoms: S_2  and  C_3
REMARK    3  A    between atoms: C_6  and  O_7
REMARK    4  A    between atoms: O_7  and  C_8
REMARK    5  A    between atoms: C_8  and  C_9
REMARK    6  A    between atoms: C_12  and  C_13
REMARK                            x       y       z     vdW  Elec       q    Type
REMARK                         _______ _______ _______ _____ _____    ______ ____
ROOT
ATOM      1  C   UNL     1      44.687   3.890   9.414  0.00  0.00    +0.000 A 
ATOM      2  C   UNL     1      45.508   4.564   8.500  0.00  0.00    +0.000 A 
ATOM      3  C   UNL     1      46.383   3.858   7.668  0.00  0.00    +0.000 A 
ATOM      4  C   UNL     1      46.462   2.461   7.752  0.00  0.00    +0.000 A 
ATOM      5  C   UNL     1      45.641   1.778   8.656  0.00  0.00    +0.000 A 
ATOM      6  C   UNL     1      44.761   2.490   9.482  0.00  0.00    +0.000 A 
ENDROOT
BRANCH   4   7
ATOM      7  C   UNL     1      47.404   1.757   6.839  0.00  0.00    +0.000 C 
ATOM      8  N   UNL     1      48.500   2.448   6.402  0.00  0.00    +0.000 N 
ATOM      9  O   UNL     1      47.195   0.614   6.459  0.00  0.00    +0.000 OA
ATOM     10  H   UNL     1      48.637   3.437   6.548  0.00  0.00    +0.000 HD
ATOM     11  H   UNL     1      49.080   1.983   5.716  0.00  0.00    +0.000 HD
ENDBRANCH   4   7
BRANCH   1  12
ATOM     12  C   UNL     1      43.767   4.668  10.331  0.00  0.00    +0.000 C 
BRANCH  12  13
ATOM     13  O   UNL     1      44.117   4.414  11.692  0.00  0.00    +0.000 OA
BRANCH  13  17
ATOM     14  C   UNL     1      47.384   6.357  13.426  0.00  0.00    +0.000 A 
ATOM     15  C   UNL     1      46.634   7.041  12.467  0.00  0.00    +0.000 A 
ATOM     16  C   UNL     1      45.526   6.431  11.862  0.00  0.00    +0.000 A 
ATOM     17  C   UNL     1      45.164   5.128  12.209  0.00  0.00    +0.000 A 
ATOM     18  C   UNL     1      45.920   4.449  13.167  0.00  0.00    +0.000 A 
ATOM     19  C   UNL     1      47.025   5.056  13.774  0.00  0.00    +0.000 A 
BRANCH  14  21
ATOM     20  C   UNL     1      48.731   6.314  15.794  0.00  0.00    +0.000 C 
ATOM     21  S   UNL     1      48.799   7.133  14.181  0.00  0.00    +0.000 S 
ENDBRANCH  14  21
ENDBRANCH  13  17
ENDBRANCH  12  13
ENDBRANCH   1  12
TORSDOF 5
ENDMDL
MODEL 2
REMARK VINA RESULT:    -7.539      0.723      1.452
REMARK INTER + INTRA:         -10.442
REMARK INTER:                  -9.776
REMARK INTRA:                  -0.666
REMARK UNBOUND:                -0.699
REMARK  Name = 
REMARK  6 active torsions:
REMARK  status: ('A' for Active; 'I' for Inactive)
REMARK    1  A    between atoms: C_1  and  S_2
REMARK    2  A    between atoms: S_2  and  C_3
REMARK    3  A    between atoms: C_6  and  O_7
REMARK    4  A    between atoms: O_7  and  C_8
REMARK    5  A    between atoms: C_8  and  C_9
REMARK    6  A    between atoms: C_12  and  C_13
REMARK                            x       y       z     vdW  Elec       q    Type
REMARK                         _______ _______ _______ _____ _____    ______ ____
ROOT
ATOM      1  C   UNL     1      44.708   3.866   9.343  0.00  0.00    +0.000 A 
ATOM      2  C   UNL     1      44.732   2.468   9.441  0.00  0.00    +0.000 A 
ATOM      3  C   UNL     1      45.589   1.710   8.638  0.00  0.00    +0.000 A 
ATOM      4  C   UNL     1      46.427   2.341   7.708  0.00  0.00    +0.000 A 
ATOM      5  C   UNL     1      46.416   3.737   7.607  0.00  0.00    +0.000 A 
ATOM      6  C   UNL     1      45.561   4.492   8.420  0.00  0.00    +0.000 A 
ENDROOT
BRANCH   4   7
ATOM      7  C   UNL     1      47.325   1.488   6.883  0.00  0.00    +0.000 C 
ATOM      8  N   UNL     1      48.406   2.085   6.295  0.00  0.00    +0.000 N 
ATOM      9  O   UNL     1      47.094   0.300   6.702  0.00  0.00    +0.000 OA
ATOM     10  H   UNL     1      48.554   3.084   6.273  0.00  0.00    +0.000 HD
ATOM     11  H   UNL     1      48.953   1.509   5.669  0.00  0.00    +0.000 HD
ENDBRANCH   4   7
BRANCH   1  12
ATOM     12  C   UNL     1      43.753   4.675  10.196  0.00  0.00    +0.000 C 
BRANCH  12  13
ATOM     13  O   UNL     1      44.096   4.528  11.575  0.00  0.00    +0.000 OA
BRANCH  13  17
ATOM     14  C   UNL     1      47.496   6.404  13.115  0.00  0.00    +0.000 A 
ATOM     15  C   UNL     1      46.802   7.030  12.078  0.00  0.00    +0.000 A 
ATOM     16  C   UNL     1      45.652   6.441  11.534  0.00  0.00    +0.000 A 
ATOM     17  C   UNL     1      45.193   5.215  12.019  0.00  0.00    +0.000 A 
ATOM     18  C   UNL     1      45.894   4.593  13.055  0.00  0.00    +0.000 A 
ATOM     19  C   UNL     1      47.040   5.181  13.601  0.00  0.00    +0.000 A 
BRANCH  14  21
ATOM     20  C   UNL     1      49.723   7.714  12.249  0.00  0.00    +0.000 C 
ATOM     21  S   UNL     1      48.964   7.152  13.793  0.00  0.00    +0.000 S 
ENDBRANCH  14  21
ENDBRANCH  13  17
ENDBRANCH  12  13
ENDBRANCH   1  12
TORSDOF 5
ENDMDL
MODEL 3
REMARK VINA RESULT:    -6.974      3.568      6.531
REMARK INTER + INTRA:          -9.712
REMARK INTER:                  -9.005
REMARK INTRA:                  -0.707
REMARK UNBOUND:                -0.699
REMARK  Name = 
REMARK  6 active torsions:
REMARK  status: ('A' for Active; 'I' for Inactive)
REMARK    1  A    between atoms: C_1  and  S_2
REMARK    2  A    between atoms: S_2  and  C_3
REMARK    3  A    between atoms: C_6  and  O_7
REMARK    4  A    between atoms: O_7  and  C_8
REMARK    5  A    between atoms: C_8  and  C_9
REMARK    6  A    between atoms: C_12  and  C_13
REMARK                            x       y       z     vdW  Elec       q    Type
REMARK                         _______ _______ _______ _____ _____    ______ ____
ROOT
ATOM      1  C   UNL     1      44.659   4.973  12.065  0.00  0.00    +0.000 A 
ATOM      2  C   UNL     1      45.120   6.251  11.724  0.00  0.00    +0.000 A 
ATOM      3  C   UNL     1      46.263   6.784  12.328  0.00  0.00    +0.000 A 
ATOM      4  C   UNL     1      46.955   6.048  13.300  0.00  0.00    +0.000 A 
ATOM      5  C   UNL     1      46.508   4.768  13.642  0.00  0.00    +0.000 A 
ATOM      6  C   UNL     1      45.367   4.235  13.029  0.00  0.00    +0.000 A 
ENDROOT
BRANCH   4   7
ATOM      7  C   UNL     1      48.170   6.658  13.906  0.00  0.00    +0.000 C 
ATOM      8  N   UNL     1      48.018   7.352  15.075  0.00  0.00    +0.000 N 
ATOM      9  O   UNL     1      49.266   6.578  13.367  0.00  0.00    +0.000 OA
ATOM     10  H   UNL     1      47.122   7.589  15.475  0.00  0.00    +0.000 HD
ATOM     11  H   UNL     1      48.837   7.831  15.423  0.00  0.00    +0.000 HD
ENDBRANCH   4   7
BRANCH   1  12
ATOM     12  C   UNL     1      43.402   4.419  11.428  0.00  0.00    +0.000 C 
BRANCH  12  13
ATOM     13  O   UNL     1      43.477   4.563  10.009  0.00  0.00    +0.000 OA
BRANCH  13  17
ATOM     14  C   UNL     1      46.274   2.324   7.859  0.00  0.00    +0.000 A 
ATOM     15  C   UNL     1      45.446   1.662   8.767  0.00  0.00    +0.000 A 
ATOM     16  C   UNL     1      44.490   2.371   9.507  0.00  0.00    +0.000 A 
ATOM     17  C   UNL     1      44.359   3.752   9.347  0.00  0.00    +0.000 A 
ATOM     18  C   UNL     1      45.192   4.409   8.439  0.00  0.00    +0.000 A 
ATOM     19  C   UNL     1      46.146   3.702   7.698  0.00  0.00    +0.000 A 
BRANCH  14  21
ATOM     20  C   UNL     1      47.596   2.500   5.483  0.00  0.00    +0.000 C 
ATOM     21  S   UNL     1      47.496   1.419   6.932  0.00  0.00    +0.000 S 
ENDBRANCH  14  21
ENDBRANCH  13  17
ENDBRANCH  12  13
ENDBRANCH   1  12
TORSDOF 5
ENDMDL
MODEL 4
REMARK VINA RESULT:    -5.620      5.052      8.137
REMARK INTER + INTRA:          -7.961
REMARK INTER:                  -7.472
REMARK INTRA:                  -0.489
REMARK UNBOUND:                -0.699
REMARK  Name = 
REMARK  6 active torsions:
REMARK  status: ('A' for Active; 'I' for Inactive)
REMARK    1  A    between atoms: C_1  and  S_2
REMARK    2  A    between atoms: S_2  and  C_3
REMARK    3  A    between atoms: C_6  and  O_7
REMARK    4  A    between atoms: O_7  and  C_8
REMARK    5  A    between atoms: C_8  and  C_9
REMARK    6  A    between atoms: C_12  and  C_13
REMARK                            x       y       z     vdW  Elec       q    Type
REMARK                         _______ _______ _______ _____ _____    ______ ____
ROOT
ATOM      1  C   UNL     1      48.756   3.977  16.662  0.00  0.00    +0.000 A 
ATOM      2  C   UNL     1      48.726   2.592  16.447  0.00  0.00    +0.000 A 
ATOM      3  C   UNL     1      49.807   1.787  16.819  0.00  0.00    +0.000 A 
ATOM      4  C   UNL     1      50.948   2.361  17.397  0.00  0.00    +0.000 A 
ATOM      5  C   UNL     1      50.985   3.742  17.623  0.00  0.00    +0.000 A 
ATOM      6  C   UNL     1      49.896   4.543  17.256  0.00  0.00    +0.000 A 
ENDROOT
BRANCH   4   7
ATOM      7  C   UNL     1      52.068   1.459  17.781  0.00  0.00    +0.000 C 
ATOM      8  N   UNL     1      51.756   0.177  18.142  0.00  0.00    +0.000 N 
ATOM      9  O   UNL     1      53.226   1.850  17.810  0.00  0.00    +0.000 OA
ATOM     10  H   UNL     1      50.813  -0.151  18.295  0.00  0.00    +0.000 HD
ATOM     11  H   UNL     1      52.519  -0.392  18.483  0.00  0.00    +0.000 HD
ENDBRANCH   4   7
BRANCH   1  12
ATOM     12  C   UNL     1      47.592   4.842  16.226  0.00  0.00    +0.000 C 
BRANCH  12  13
ATOM     13  O   UNL     1      47.843   5.366  14.922  0.00  0.00    +0.000 OA
BRANCH  13  17
ATOM     14  C   UNL     1      45.069   4.695  11.871  0.00  0.00    +0.000 A 
ATOM     15  C   UNL     1      45.612   3.592  12.533  0.00  0.00    +0.000 A 
ATOM     16  C   UNL     1      46.542   3.769  13.567  0.00  0.00    +0.000 A 
ATOM     17  C   UNL     1      46.942   5.053  13.941  0.00  0.00    +0.000 A 
ATOM     18  C   UNL     1      46.397   6.152  13.273  0.00  0.00    +0.000 A 
ATOM     19  C   UNL     1      45.467   5.977  12.242  0.00  0.00    +0.000 A 
BRANCH  14  21
ATOM     20  C   UNL     1      44.395   2.800  10.033  0.00  0.00    +0.000 C 
ATOM     21  S   UNL     1      43.898   4.462  10.549  0.00  0.00    +0.000 S 
ENDBRANCH  14  21
ENDBRANCH  13  17
ENDBRANCH  12  13
ENDBRANCH   1  12
TORSDOF 5
ENDMDL
MODEL 5
REMARK VINA RESULT:    -5.480      3.204      5.301
REMARK INTER + INTRA:          -7.781
REMARK INTER:                  -7.327
REMARK INTRA:                  -0.454
REMARK UNBOUND:                -0.699
REMARK  Name = 
REMARK  6 active torsions:
REMARK  status: ('A' for Active; 'I' for Inactive)
REMARK    1  A    between atoms: C_1  and  S_2
REMARK    2  A    between atoms: S_2  and  C_3
REMARK    3  A    between atoms: C_6  and  O_7
REMARK    4  A    between atoms: O_7  and  C_8
REMARK    5  A    between atoms: C_8  and  C_9
REMARK    6  A    between atoms: C_12  and  C_13
REMARK                            x       y       z     vdW  Elec       q    Type
REMARK                         _______ _______ _______ _____ _____    ______ ____
ROOT
ATOM      1  C   UNL     1      46.843   6.114  12.848  0.00  0.00    +0.000 A 
ATOM      2  C   UNL     1      46.102   5.013  13.299  0.00  0.00    +0.000 A 
ATOM      3  C   UNL     1      45.209   4.354  12.448  0.00  0.00    +0.000 A 
ATOM      4  C   UNL     1      45.031   4.800  11.131  0.00  0.00    +0.000 A 
ATOM      5  C   UNL     1      45.771   5.893  10.668  0.00  0.00    +0.000 A 
ATOM      6  C   UNL     1      46.670   6.545  11.523  0.00  0.00    +0.000 A 
ENDROOT
BRANCH   4   7
ATOM      7  C   UNL     1      44.074   4.059  10.265  0.00  0.00    +0.000 C 
ATOM      8  N   UNL     1      44.029   4.392   8.939  0.00  0.00    +0.000 N 
ATOM      9  O   UNL     1      43.326   3.205  10.719  0.00  0.00    +0.000 OA
ATOM     10  H   UNL     1      44.499   5.193   8.544  0.00  0.00    +0.000 HD
ATOM     11  H   UNL     1      43.313   3.939   8.386  0.00  0.00    +0.000 HD
ENDBRANCH   4   7
BRANCH   1  12
ATOM     12  C   UNL     1      47.783   6.839  13.788  0.00  0.00    +0.000 C 
BRANCH  12  13
ATOM     13  O   UNL     1      48.563   5.889  14.516  0.00  0.00    +0.000 OA
BRANCH  13  17
ATOM     14  C   UNL     1      48.116   6.021  18.668  0.00  0.00    +0.000 A 
ATOM     15  C   UNL     1      47.688   4.879  17.987  0.00  0.00    +0.000 A 
ATOM     16  C   UNL     1      47.823   4.788  16.595  0.00  0.00    +0.000 A 
ATOM     17  C   UNL     1      48.382   5.844  15.872  0.00  0.00    +0.000 A 
ATOM     18  C   UNL     1      48.806   6.983  16.559  0.00  0.00    +0.000 A 
ATOM     19  C   UNL     1      48.675   7.075  17.949  0.00  0.00    +0.000 A 
BRANCH  14  21
ATOM     20  C   UNL     1      48.758   4.593  20.898  0.00  0.00    +0.000 C 
ATOM     21  S   UNL     1      47.930   6.135  20.436  0.00  0.00    +0.000 S 
ENDBRANCH  14  21
ENDBRANCH  13  17
ENDBRANCH  12  13
ENDBRANCH   1  12
TORSDOF 5
ENDMDL
MODEL 6
REMARK VINA RESULT:    -5.135      3.810      5.520
REMARK INTER + INTRA:          -7.335
REMARK INTER:                  -6.871
REMARK INTRA:                  -0.465
REMARK UNBOUND:                -0.699
REMARK  Name = 
REMARK  6 active torsions:
REMARK  status: ('A' for Active; 'I' for Inactive)
REMARK    1  A    between atoms: C_1  and  S_2
REMARK    2  A    between atoms: S_2  and  C_3
REMARK    3  A    between atoms: C_6  and  O_7
REMARK    4  A    between atoms: O_7  and  C_8
REMARK    5  A    between atoms: C_8  and  C_9
REMARK    6  A    between atoms: C_12  and  C_13
REMARK                            x       y       z     vdW  Elec       q    Type
REMARK                         _______ _______ _______ _____ _____    ______ ____
ROOT
ATOM      1  C   UNL     1      46.486   6.130  12.527  0.00  0.00    +0.000 A 
ATOM      2  C   UNL     1      46.297   4.933  13.232  0.00  0.00    +0.000 A 
ATOM      3  C   UNL     1      45.527   3.899  12.691  0.00  0.00    +0.000 A 
ATOM      4  C   UNL     1      44.915   4.055  11.440  0.00  0.00    +0.000 A 
ATOM      5  C   UNL     1      45.103   5.243  10.725  0.00  0.00    +0.000 A 
ATOM      6  C   UNL     1      45.883   6.273  11.268  0.00  0.00    +0.000 A 
ENDROOT
BRANCH   4   7
ATOM      7  C   UNL     1      44.112   2.921  10.907  0.00  0.00    +0.000 C 
ATOM      8  N   UNL     1      44.636   2.204   9.868  0.00  0.00    +0.000 N 
ATOM      9  O   UNL     1      43.004   2.655  11.353  0.00  0.00    +0.000 OA
ATOM     10  H   UNL     1      45.462   2.477   9.356  0.00  0.00    +0.000 HD
ATOM     11  H   UNL     1      44.038   1.495   9.464  0.00  0.00    +0.000 HD
ENDBRANCH   4   7
BRANCH   1  12
ATOM     12  C   UNL     1      47.297   7.254  13.137  0.00  0.00    +0.000 C 
BRANCH  12  13
ATOM     13  O   UNL     1      47.473   8.296  12.177  0.00  0.00    +0.000 OA
BRANCH  13  17
ATOM     14  C   UNL     1      51.313   9.441  10.993  0.00  0.00    +0.000 A 
ATOM     15  C   UNL     1      51.081   8.097  11.294  0.00  0.00    +0.000 A 
ATOM     16  C   UNL     1      49.808   7.666  11.690  0.00  0.00    +0.000 A 
ATOM     17  C   UNL     1      48.757   8.580  11.795  0.00  0.00    +0.000 A 
ATOM     18  C   UNL     1      48.996   9.923  11.494  0.00  0.00    +0.000 A 
ATOM     19  C   UNL     1      50.266  10.354  11.096  0.00  0.00    +0.000 A 
BRANCH  14  21
ATOM     20  C   UNL     1      52.779   9.743   8.716  0.00  0.00    +0.000 C 
ATOM     21  S   UNL     1      52.937   9.984  10.503  0.00  0.00    +0.000 S 
ENDBRANCH  14  21
ENDBRANCH  13  17
ENDBRANCH  12  13
ENDBRANCH   1  12
TORSDOF 5
ENDMDL
MODEL 7
REMARK VINA RESULT:    -5.134      4.907      6.276
REMARK INTER + INTRA:          -7.334
REMARK INTER:                  -6.905
REMARK INTRA:                  -0.430
REMARK UNBOUND:                -0.699
REMARK  Name = 
REMARK  6 active torsions:
REMARK  status: ('A' for Active; 'I' for Inactive)
REMARK    1  A    between atoms: C_1  and  S_2
REMARK    2  A    between atoms: S_2  and  C_3
REMARK    3  A    between atoms: C_6  and  O_7
REMARK    4  A    between atoms: O_7  and  C_8
REMARK    5  A    between atoms: C_8  and  C_9
REMARK    6  A    between atoms: C_12  and  C_13
REMARK                            x       y       z     vdW  Elec       q    Type
REMARK                         _______ _______ _______ _____ _____    ______ ____
ROOT
ATOM      1  C   UNL     1      46.513   5.102  13.356  0.00  0.00    +0.000 A 
ATOM      2  C   UNL     1      47.235   6.183  12.834  0.00  0.00    +0.000 A 
ATOM      3  C   UNL     1      46.576   7.259  12.232  0.00  0.00    +0.000 A 
ATOM      4  C   UNL     1      45.178   7.260  12.126  0.00  0.00    +0.000 A 
ATOM      5  C   UNL     1      44.447   6.188  12.651  0.00  0.00    +0.000 A 
ATOM      6  C   UNL     1      45.112   5.116  13.260  0.00  0.00    +0.000 A 
ENDROOT
BRANCH   4   7
ATOM      7  C   UNL     1      44.526   8.433  11.483  0.00  0.00    +0.000 C 
ATOM      8  N   UNL     1      43.261   8.265  10.990  0.00  0.00    +0.000 N 
ATOM      9  O   UNL     1      45.105   9.504  11.363  0.00  0.00    +0.000 OA
ATOM     10  H   UNL     1      42.802   7.370  10.913  0.00  0.00    +0.000 HD
ATOM     11  H   UNL     1      42.870   9.046  10.480  0.00  0.00    +0.000 HD
ENDBRANCH   4   7
BRANCH   1  12
ATOM     12  C   UNL     1      47.240   3.927  13.978  0.00  0.00    +0.000 C 
BRANCH  12  13
ATOM     13  O   UNL     1      46.697   3.654  15.270  0.00  0.00    +0.000 OA
BRANCH  13  17
ATOM     14  C   UNL     1      49.249   4.559  18.452  0.00  0.00    +0.000 A 
ATOM     15  C   UNL     1      48.611   3.317  18.442  0.00  0.00    +0.000 A 
ATOM     16  C   UNL     1      47.750   2.967  17.392  0.00  0.00    +0.000 A 
ATOM     17  C   UNL     1      47.516   3.863  16.347  0.00  0.00    +0.000 A 
ATOM     18  C   UNL     1      48.155   5.104  16.365  0.00  0.00    +0.000 A 
ATOM     19  C   UNL     1      49.017   5.454  17.411  0.00  0.00    +0.000 A 
BRANCH  14  21
ATOM     20  C   UNL     1      49.116   4.992  21.139  0.00  0.00    +0.000 C 
ATOM     21  S   UNL     1      50.331   5.002  19.796  0.00  0.00    +0.000 S 
ENDBRANCH  14  21
ENDBRANCH  13  17
ENDBRANCH  12  13
ENDBRANCH   1  12
TORSDOF 5
ENDMDL
MODEL 8
REMARK VINA RESULT:    -4.805      4.365      5.927
REMARK INTER + INTRA:          -6.909
REMARK INTER:                  -6.381
REMARK INTRA:                  -0.528
REMARK UNBOUND:                -0.699
REMARK  Name = 
REMARK  6 active torsions:
REMARK  status: ('A' for Active; 'I' for Inactive)
REMARK    1  A    between atoms: C_1  and  S_2
REMARK    2  A    between atoms: S_2  and  C_3
REMARK    3  A    between atoms: C_6  and  O_7
REMARK    4  A    between atoms: O_7  and  C_8
REMARK    5  A    between atoms: C_8  and  C_9
REMARK    6  A    between atoms: C_12  and  C_13
REMARK                            x       y       z     vdW  Elec       q    Type
REMARK                         _______ _______ _______ _____ _____    ______ ____
ROOT
ATOM      1  C   UNL     1      46.905   6.409  13.108  0.00  0.00    +0.000 A 
ATOM      2  C   UNL     1      45.873   7.225  12.626  0.00  0.00    +0.000 A 
ATOM      3  C   UNL     1      44.633   6.680  12.279  0.00  0.00    +0.000 A 
ATOM      4  C   UNL     1      44.413   5.301  12.392  0.00  0.00    +0.000 A 
ATOM      5  C   UNL     1      45.434   4.478  12.879  0.00  0.00    +0.000 A 
ATOM      6  C   UNL     1      46.672   5.030  13.234  0.00  0.00    +0.000 A 
ENDROOT
BRANCH   4   7
ATOM      7  C   UNL     1      43.073   4.772  12.016  0.00  0.00    +0.000 C 
ATOM      8  N   UNL     1      42.960   3.428  11.794  0.00  0.00    +0.000 N 
ATOM      9  O   UNL     1      42.109   5.511  11.873  0.00  0.00    +0.000 OA
ATOM     10  H   UNL     1      43.747   2.799  11.736  0.00  0.00    +0.000 HD
ATOM     11  H   UNL     1      42.064   3.102  11.455  0.00  0.00    +0.000 HD
ENDBRANCH   4   7
BRANCH   1  12
ATOM     12  C   UNL     1      48.254   7.007  13.452  0.00  0.00    +0.000 C 
BRANCH  12  13
ATOM     13  O   UNL     1      48.274   7.393  14.826  0.00  0.00    +0.000 OA
BRANCH  13  17
ATOM     14  C   UNL     1      50.754   5.222  17.394  0.00  0.00    +0.000 A 
ATOM     15  C   UNL     1      51.310   6.271  16.660  0.00  0.00    +0.000 A 
ATOM     16  C   UNL     1      50.515   7.031  15.790  0.00  0.00    +0.000 A 
ATOM     17  C   UNL     1      49.157   6.740  15.643  0.00  0.00    +0.000 A 
ATOM     18  C   UNL     1      48.608   5.688  16.378  0.00  0.00    +0.000 A 
ATOM     19  C   UNL     1      49.399   4.930  17.249  0.00  0.00    +0.000 A 
BRANCH  14  21
ATOM     20  C   UNL     1      51.588   2.643  17.677  0.00  0.00    +0.000 C 
ATOM     21  S   UNL     1      51.772   4.252  18.487  0.00  0.00    +0.000 S 
ENDBRANCH  14  21
ENDBRANCH  13  17
ENDBRANCH  12  13
ENDBRANCH   1  12
TORSDOF 5
ENDMDL
MODEL 9
REMARK VINA RESULT:    -4.787      5.080      8.475
REMARK INTER + INTRA:          -6.885
REMARK INTER:                  -6.397
REMARK INTRA:                  -0.488
REMARK UNBOUND:                -0.699
REMARK  Name = 
REMARK  6 active torsions:
REMARK  status: ('A' for Active; 'I' for Inactive)
REMARK    1  A    between atoms: C_1  and  S_2
REMARK    2  A    between atoms: S_2  and  C_3
REMARK    3  A    between atoms: C_6  and  O_7
REMARK    4  A    between atoms: O_7  and  C_8
REMARK    5  A    between atoms: C_8  and  C_9
REMARK    6  A    between atoms: C_12  and  C_13
REMARK                            x       y       z     vdW  Elec       q    Type
REMARK                         _______ _______ _______ _____ _____    ______ ____
ROOT
ATOM      1  C   UNL     1      49.244   6.396  15.862  0.00  0.00    +0.000 A 
ATOM      2  C   UNL     1      48.650   5.369  16.610  0.00  0.00    +0.000 A 
ATOM      3  C   UNL     1      49.359   4.726  17.629  0.00  0.00    +0.000 A 
ATOM      4  C   UNL     1      50.684   5.089  17.905  0.00  0.00    +0.000 A 
ATOM      5  C   UNL     1      51.283   6.118  17.170  0.00  0.00    +0.000 A 
ATOM      6  C   UNL     1      50.567   6.765  16.154  0.00  0.00    +0.000 A 
ENDROOT
BRANCH   4   7
ATOM      7  C   UNL     1      51.390   4.378  19.006  0.00  0.00    +0.000 C 
ATOM      8  N   UNL     1      50.893   4.515  20.273  0.00  0.00    +0.000 N 
ATOM      9  O   UNL     1      52.400   3.720  18.800  0.00  0.00    +0.000 OA
ATOM     10  H   UNL     1      50.168   5.171  20.525  0.00  0.00    +0.000 HD
ATOM     11  H   UNL     1      51.436   4.097  21.016  0.00  0.00    +0.000 HD
ENDBRANCH   4   7
BRANCH   1  12
ATOM     12  C   UNL     1      48.478   7.063  14.739  0.00  0.00    +0.000 C 
BRANCH  12  13
ATOM     13  O   UNL     1      48.590   6.283  13.549  0.00  0.00    +0.000 OA
BRANCH  13  17
ATOM     14  C   UNL     1      44.987   5.091  11.801  0.00  0.00    +0.000 A 
ATOM     15  C   UNL     1      45.711   6.122  11.199  0.00  0.00    +0.000 A 
ATOM     16  C   UNL     1      46.927   6.552  11.747  0.00  0.00    +0.000 A 
ATOM     17  C   UNL     1      47.426   5.956  12.907  0.00  0.00    +0.000 A 
ATOM     18  C   UNL     1      46.696   4.927  13.505  0.00  0.00    +0.000 A 
ATOM     19  C   UNL     1      45.482   4.495  12.958  0.00  0.00    +0.000 A 
BRANCH  14  21
ATOM     20  C   UNL     1      43.378   2.892  11.812  0.00  0.00    +0.000 C 
ATOM     21  S   UNL     1      43.435   4.559  11.107  0.00  0.00    +0.000 S 
ENDBRANCH  14  21
ENDBRANCH  13  17
ENDBRANCH  12  13
ENDBRANCH   1  12
TORSDOF 5
ENDMDL
