MODEL 1
REMARK VINA RESULT:    -8.297      0.000      0.000
REMARK INTER + INTRA:         -11.132
REMARK INTER:                 -10.480
REMARK INTRA:                  -0.652
REMARK UNBOUND:                -0.652
REMARK  Name = 
REMARK  8 active torsions:
REMARK  status: ('A' for Active; 'I' for Inactive)
REMARK    1  A    between atoms: C_1  and  C_2
REMARK    2  A    between atoms: C_2  and  C_3
REMARK    3  A    between atoms: C_2  and  C_4
REMARK    4  A    between atoms: C_2  and  C_5
REMARK    5  A    between atoms: C_7  and  C_8
REMARK    6  A    between atoms: C_8  and  N_9
REMARK    7  A    between atoms: C_14  and  C_15
REMARK    8  A    between atoms: C_15  and  O_17
REMARK                            x       y       z     vdW  Elec       q    Type
REMARK                         _______ _______ _______ _____ _____    ______ ____
ROOT
ATOM      1  N   UNL     1      44.740   4.486  10.471  0.00  0.00    +0.000 N 
ATOM      2  C   UNL     1      44.403   3.288  11.062  0.00  0.00    +0.000 A 
ATOM      3  C   UNL     1      44.145   2.415  10.024  0.00  0.00    +0.000 A 
ATOM      4  C   UNL     1      45.071   2.823   9.030  0.00  0.00    +0.000 A 
ATOM      5  C   UNL     1      45.820   2.180   8.040  0.00  0.00    +0.000 A 
ATOM      6  C   UNL     1      46.720   2.977   7.330  0.00  0.00    +0.000 A 
ATOM      7  C   UNL     1      46.696   4.363   7.499  0.00  0.00    +0.000 A 
ATOM      8  N   UNL     1      46.013   5.024   8.473  0.00  0.00    +0.000 NA
ATOM      9  C   UNL     1      45.295   4.183   9.248  0.00  0.00    +0.000 A 
ENDROOT
BRANCH   6  10
ATOM     10  C   UNL     1      47.708   2.386   6.408  0.00  0.00    +0.000 C 
ATOM     11  O   UNL     1      48.278   1.345   6.634  0.00  0.00    +0.000 OA
BRANCH  10  12
ATOM     12  O   UNL     1      47.832   3.092   5.270  0.00  0.00    +0.000 OA
ATOM     13  H   UNL     1      48.031   4.049   5.378  0.00  0.00    +0.000 HD
ENDBRANCH  10  12
ENDBRANCH   6  10
BRANCH   1  14
ATOM     14  C   UNL     1      44.833   5.753  11.184  0.00  0.00    +0.000 C 
BRANCH  14  17
ATOM     15  C   UNL     1      48.199   6.986  12.582  0.00  0.00    +0.000 A 
ATOM     16  C   UNL     1      47.115   6.810  11.703  0.00  0.00    +0.000 A 
ATOM     17  C   UNL     1      46.087   5.896  12.022  0.00  0.00    +0.000 A 
ATOM     18  C   UNL     1      46.197   5.157  13.206  0.00  0.00    +0.000 A 
ATOM     19  C   UNL     1      47.292   5.399  14.024  0.00  0.00    +0.000 A 
ATOM     20  N   UNL     1      48.258   6.295  13.749  0.00  0.00    +0.000 NA
BRANCH  15  22
ATOM     21  C   UNL     1      48.709   9.365  11.955  0.00  0.00    +0.000 C 
ATOM     22  C   UNL     1      49.326   8.000  12.350  0.00  0.00    +0.000 C 
ATOM     23  C   UNL     1      50.337   7.587  11.268  0.00  0.00    +0.000 C 
ATOM     24  C   UNL     1      50.132   8.215  13.661  0.00  0.00    +0.000 C 
ENDBRANCH  15  22
ENDBRANCH  14  17
ENDBRANCH   1  14
TORSDOF 5
ENDMDL
MODEL 2
REMARK VINA RESULT:    -6.756      1.734      3.151
REMARK INTER + INTRA:          -9.185
REMARK INTER:                  -8.444
REMARK INTRA:                  -0.741
REMARK UNBOUND:                -0.652
REMARK  Name = 
REMARK  8 active torsions:
REMARK  status: ('A' for Active; 'I' for Inactive)
REMARK    1  A    between atoms: C_1  and  C_2
REMARK    2  A    between atoms: C_2  and  C_3
REMARK    3  A    between atoms: C_2  and  C_4
REMARK    4  A    between atoms: C_2  and  C_5
REMARK    5  A    between atoms: C_7  and  C_8
REMARK    6  A    between atoms: C_8  and  N_9
REMARK    7  A    between atoms: C_14  and  C_15
REMARK    8  A    between atoms: C_15  and  O_17
REMARK                            x       y       z     vdW  Elec       q    Type
REMARK                         _______ _______ _______ _____ _____    ______ ____
ROOT
ATOM      1  N   UNL     1      44.220   4.448  11.917  0.00  0.00    +0.000 N 
ATOM      2  C   UNL     1      43.982   3.172  12.380  0.00  0.00    +0.000 A 
ATOM      3  C   UNL     1      43.590   2.439  11.279  0.00  0.00    +0.000 A 
ATOM      4  C   UNL     1      44.362   3.002  10.231  0.00  0.00    +0.000 A 
ATOM      5  C   UNL     1      44.971   2.519   9.069  0.00  0.00    +0.000 A 
ATOM      6  C   UNL     1      45.753   3.429   8.357  0.00  0.00    +0.000 A 
ATOM      7  C   UNL     1      45.739   4.779   8.714  0.00  0.00    +0.000 A 
ATOM      8  N   UNL     1      45.194   5.285   9.855  0.00  0.00    +0.000 NA
ATOM      9  C   UNL     1      44.601   4.327  10.599  0.00  0.00    +0.000 A 
ENDROOT
BRANCH   6  10
ATOM     10  C   UNL     1      46.607   2.996   7.235  0.00  0.00    +0.000 C 
ATOM     11  O   UNL     1      46.984   1.856   7.098  0.00  0.00    +0.000 OA
BRANCH  10  12
ATOM     12  O   UNL     1      46.842   3.987   6.358  0.00  0.00    +0.000 OA
ATOM     13  H   UNL     1      47.463   3.775   5.625  0.00  0.00    +0.000 HD
ENDBRANCH  10  12
ENDBRANCH   6  10
BRANCH   1  14
ATOM     14  C   UNL     1      44.400   5.611  12.776  0.00  0.00    +0.000 C 
BRANCH  14  17
ATOM     15  C   UNL     1      47.435   4.990  15.057  0.00  0.00    +0.000 A 
ATOM     16  C   UNL     1      46.113   4.967  14.577  0.00  0.00    +0.000 A 
ATOM     17  C   UNL     1      45.771   5.695  13.417  0.00  0.00    +0.000 A 
ATOM     18  C   UNL     1      46.764   6.457  12.790  0.00  0.00    +0.000 A 
ATOM     19  C   UNL     1      48.046   6.416  13.322  0.00  0.00    +0.000 A 
ATOM     20  N   UNL     1      48.394   5.695  14.404  0.00  0.00    +0.000 NA
BRANCH  15  22
ATOM     21  C   UNL     1      49.208   4.820  16.830  0.00  0.00    +0.000 C 
ATOM     22  C   UNL     1      47.914   4.180  16.269  0.00  0.00    +0.000 C 
ATOM     23  C   UNL     1      48.189   2.697  15.970  0.00  0.00    +0.000 C 
ATOM     24  C   UNL     1      46.847   4.221  17.398  0.00  0.00    +0.000 C 
ENDBRANCH  15  22
ENDBRANCH  14  17
ENDBRANCH   1  14
TORSDOF 5
ENDMDL
MODEL 3
REMARK VINA RESULT:    -6.420      1.483      2.337
REMARK INTER + INTRA:          -8.760
REMARK INTER:                  -8.342
REMARK INTRA:                  -0.419
REMARK UNBOUND:                -0.652
REMARK  Name = 
REMARK  8 active torsions:
REMARK  status: ('A' for Active; 'I' for Inactive)
REMARK    1  A    between atoms: C_1  and  C_2
REMARK    2  A    between atoms: C_2  and  C_3
REMARK    3  A    between atoms: C_2  and  C_4
REMARK    4  A    between atoms: C_2  and  C_5
REMARK    5  A    between atoms: C_7  and  C_8
REMARK    6  A    between atoms: C_8  and  N_9
REMARK    7  A    between atoms: C_14  and  C_15
REMARK    8  A    between atoms: C_15  and  O_17
REMARK                            x       y       z     vdW  Elec       q    Type
REMARK                         _______ _______ _______ _____ _____    ______ ____
ROOT
ATOM      1  N   UNL     1      44.270   4.955  10.132  0.00  0.00    +0.000 N 
ATOM      2  C   UNL     1      44.057   4.200  11.266  0.00  0.00    +0.000 A 
ATOM      3  C   UNL     1      43.816   2.916  10.823  0.00  0.00    +0.000 A 
ATOM      4  C   UNL     1      44.655   2.809   9.685  0.00  0.00    +0.000 A 
ATOM      5  C   UNL     1      45.401   1.788   9.088  0.00  0.00    +0.000 A 
ATOM      6  C   UNL     1      46.199   2.159   8.004  0.00  0.00    +0.000 A 
ATOM      7  C   UNL     1      46.076   3.441   7.463  0.00  0.00    +0.000 A 
ATOM      8  N   UNL     1      45.395   4.473   8.033  0.00  0.00    +0.000 NA
ATOM      9  C   UNL     1      44.784   4.103   9.179  0.00  0.00    +0.000 A 
ENDROOT
BRANCH   6  10
ATOM     10  C   UNL     1      47.182   1.228   7.418  0.00  0.00    +0.000 C 
ATOM     11  O   UNL     1      48.163   1.600   6.818  0.00  0.00    +0.000 OA
BRANCH  10  12
ATOM     12  O   UNL     1      46.901  -0.056   7.699  0.00  0.00    +0.000 OA
ATOM     13  H   UNL     1      47.393  -0.728   7.176  0.00  0.00    +0.000 HD
ENDBRANCH  10  12
ENDBRANCH   6  10
BRANCH   1  14
ATOM     14  C   UNL     1      44.301   6.411  10.111  0.00  0.00    +0.000 C 
BRANCH  14  17
ATOM     15  C   UNL     1      46.801   7.104  12.952  0.00  0.00    +0.000 A 
ATOM     16  C   UNL     1      46.118   6.427  11.925  0.00  0.00    +0.000 A 
ATOM     17  C   UNL     1      45.001   7.028  11.305  0.00  0.00    +0.000 A 
ATOM     18  C   UNL     1      44.581   8.284  11.760  0.00  0.00    +0.000 A 
ATOM     19  C   UNL     1      45.318   8.889  12.769  0.00  0.00    +0.000 A 
ATOM     20  N   UNL     1      46.407   8.343  13.342  0.00  0.00    +0.000 NA
BRANCH  15  22
ATOM     21  C   UNL     1      47.844   5.066  13.988  0.00  0.00    +0.000 C 
ATOM     22  C   UNL     1      48.060   6.559  13.638  0.00  0.00    +0.000 C 
ATOM     23  C   UNL     1      48.459   7.311  14.919  0.00  0.00    +0.000 C 
ATOM     24  C   UNL     1      49.275   6.640  12.673  0.00  0.00    +0.000 C 
ENDBRANCH  15  22
ENDBRANCH  14  17
ENDBRANCH   1  14
TORSDOF 5
ENDMDL
MODEL 4
REMARK VINA RESULT:    -6.347      4.152      7.562
REMARK INTER + INTRA:          -8.668
REMARK INTER:                  -8.367
REMARK INTRA:                  -0.301
REMARK UNBOUND:                -0.652
REMARK  Name = 
REMARK  8 active torsions:
REMARK  status: ('A' for Active; 'I' for Inactive)
REMARK    1  A    between atoms: C_1  and  C_2
REMARK    2  A    between atoms: C_2  and  C_3
REMARK    3  A    between atoms: C_2  and  C_4
REMARK    4  A    between atoms: C_2  and  C_5
REMARK    5  A    between atoms: C_7  and  C_8
REMARK    6  A    between atoms: C_8  and  N_9
REMARK    7  A    between atoms: C_14  and  C_15
REMARK    8  A    between atoms: C_15  and  O_17
REMARK                            x       y       z     vdW  Elec       q    Type
REMARK                         _______ _______ _______ _____ _____    ______ ____
ROOT
ATOM      1  N   UNL     1      48.816   7.049  13.848  0.00  0.00    +0.000 N 
ATOM      2  C   UNL     1      49.877   7.659  14.483  0.00  0.00    +0.000 A 
ATOM      3  C   UNL     1      49.546   7.688  15.823  0.00  0.00    +0.000 A 
ATOM      4  C   UNL     1      48.826   6.478  15.999  0.00  0.00    +0.000 A 
ATOM      5  C   UNL     1      48.687   5.541  17.027  0.00  0.00    +0.000 A 
ATOM      6  C   UNL     1      47.941   4.400  16.726  0.00  0.00    +0.000 A 
ATOM      7  C   UNL     1      47.232   4.337  15.524  0.00  0.00    +0.000 A 
ATOM      8  N   UNL     1      47.369   5.204  14.484  0.00  0.00    +0.000 NA
ATOM      9  C   UNL     1      48.242   6.195  14.764  0.00  0.00    +0.000 A 
ENDROOT
BRANCH   6  10
ATOM     10  C   UNL     1      47.889   3.250  17.648  0.00  0.00    +0.000 C 
ATOM     11  O   UNL     1      48.845   2.876  18.287  0.00  0.00    +0.000 OA
BRANCH  10  12
ATOM     12  O   UNL     1      46.653   2.731  17.750  0.00  0.00    +0.000 OA
ATOM     13  H   UNL     1      46.477   2.196  18.557  0.00  0.00    +0.000 HD
ENDBRANCH  10  12
ENDBRANCH   6  10
BRANCH   1  14
ATOM     14  C   UNL     1      48.620   7.043  12.404  0.00  0.00    +0.000 C 
BRANCH  14  17
ATOM     15  C   UNL     1      45.079   5.996  11.323  0.00  0.00    +0.000 A 
ATOM     16  C   UNL     1      46.458   5.922  11.588  0.00  0.00    +0.000 A 
ATOM     17  C   UNL     1      47.165   7.079  11.982  0.00  0.00    +0.000 A 
ATOM     18  C   UNL     1      46.468   8.291  12.065  0.00  0.00    +0.000 A 
ATOM     19  C   UNL     1      45.105   8.275  11.799  0.00  0.00    +0.000 A 
ATOM     20  N   UNL     1      44.413   7.171  11.460  0.00  0.00    +0.000 NA
BRANCH  15  22
ATOM     21  C   UNL     1      44.687   3.555  11.775  0.00  0.00    +0.000 C 
ATOM     22  C   UNL     1      44.218   4.782  10.953  0.00  0.00    +0.000 C 
ATOM     23  C   UNL     1      44.250   4.414   9.460  0.00  0.00    +0.000 C 
ATOM     24  C   UNL     1      42.731   5.046  11.319  0.00  0.00    +0.000 C 
ENDBRANCH  15  22
ENDBRANCH  14  17
ENDBRANCH   1  14
TORSDOF 5
ENDMDL
MODEL 5
REMARK VINA RESULT:    -6.170      1.882      3.068
REMARK INTER + INTRA:          -8.444
REMARK INTER:                  -7.733
REMARK INTRA:                  -0.711
REMARK UNBOUND:                -0.652
REMARK  Name = 
REMARK  8 active torsions:
REMARK  status: ('A' for Active; 'I' for Inactive)
REMARK    1  A    between atoms: C_1  and  C_2
REMARK    2  A    between atoms: C_2  and  C_3
REMARK    3  A    between atoms: C_2  and  C_4
REMARK    4  A    between atoms: C_2  and  C_5
REMARK    5  A    between atoms: C_7  and  C_8
REMARK    6  A    between atoms: C_8  and  N_9
REMARK    7  A    between atoms: C_14  and  C_15
REMARK    8  A    between atoms: C_15  and  O_17
REMARK                            x       y       z     vdW  Elec       q    Type
REMARK                         _______ _______ _______ _____ _____    ______ ____
ROOT
ATOM      1  N   UNL     1      45.125   5.977  12.165  0.00  0.00    +0.000 N 
ATOM      2  C   UNL     1      44.929   5.096  13.207  0.00  0.00    +0.000 A 
ATOM      3  C   UNL     1      44.153   4.076  12.696  0.00  0.00    +0.000 A 
ATOM      4  C   UNL     1      44.609   3.968  11.358  0.00  0.00    +0.000 A 
ATOM      5  C   UNL     1      44.784   2.924  10.444  0.00  0.00    +0.000 A 
ATOM      6  C   UNL     1      45.386   3.259   9.230  0.00  0.00    +0.000 A 
ATOM      7  C   UNL     1      45.603   4.602   8.915  0.00  0.00    +0.000 A 
ATOM      8  N   UNL     1      45.484   5.643   9.785  0.00  0.00    +0.000 NA
ATOM      9  C   UNL     1      45.067   5.238  11.004  0.00  0.00    +0.000 A 
ENDROOT
BRANCH   6  10
ATOM     10  C   UNL     1      45.809   2.223   8.270  0.00  0.00    +0.000 C 
ATOM     11  O   UNL     1      46.366   2.481   7.228  0.00  0.00    +0.000 OA
BRANCH  10  12
ATOM     12  O   UNL     1      45.579   0.979   8.724  0.00  0.00    +0.000 OA
ATOM     13  H   UNL     1      46.372   0.472   9.011  0.00  0.00    +0.000 HD
ENDBRANCH  10  12
ENDBRANCH   6  10
BRANCH   1  14
ATOM     14  C   UNL     1      45.664   7.321  12.319  0.00  0.00    +0.000 C 
BRANCH  14  17
ATOM     15  C   UNL     1      48.845   7.172  14.479  0.00  0.00    +0.000 A 
ATOM     16  C   UNL     1      47.485   7.257  14.129  0.00  0.00    +0.000 A 
ATOM     17  C   UNL     1      47.110   7.355  12.771  0.00  0.00    +0.000 A 
ATOM     18  C   UNL     1      48.120   7.400  11.802  0.00  0.00    +0.000 A 
ATOM     19  C   UNL     1      49.437   7.299  12.232  0.00  0.00    +0.000 A 
ATOM     20  N   UNL     1      49.805   7.166  13.519  0.00  0.00    +0.000 NA
BRANCH  15  22
ATOM     21  C   UNL     1      50.890   6.935  15.920  0.00  0.00    +0.000 C 
ATOM     22  C   UNL     1      49.342   6.998  15.919  0.00  0.00    +0.000 C 
ATOM     23  C   UNL     1      48.800   5.746  16.629  0.00  0.00    +0.000 C 
ATOM     24  C   UNL     1      48.926   8.220  16.783  0.00  0.00    +0.000 C 
ENDBRANCH  15  22
ENDBRANCH  14  17
ENDBRANCH   1  14
TORSDOF 5
ENDMDL
MODEL 6
REMARK VINA RESULT:    -6.072      3.482      5.976
REMARK INTER + INTRA:          -8.322
REMARK INTER:                  -7.529
REMARK INTRA:                  -0.792
REMARK UNBOUND:                -0.652
REMARK  Name = 
REMARK  8 active torsions:
REMARK  status: ('A' for Active; 'I' for Inactive)
REMARK    1  A    between atoms: C_1  and  C_2
REMARK    2  A    between atoms: C_2  and  C_3
REMARK    3  A    between atoms: C_2  and  C_4
REMARK    4  A    between atoms: C_2  and  C_5
REMARK    5  A    between atoms: C_7  and  C_8
REMARK    6  A    between atoms: C_8  and  N_9
REMARK    7  A    between atoms: C_14  and  C_15
REMARK    8  A    between atoms: C_15  and  O_17
REMARK                            x       y       z     vdW  Elec       q    Type
REMARK                         _______ _______ _______ _____ _____    ______ ____
ROOT
ATOM      1  N   UNL     1      47.827   7.504  13.490  0.00  0.00    +0.000 N 
ATOM      2  C   UNL     1      48.314   8.223  12.419  0.00  0.00    +0.000 A 
ATOM      3  C   UNL     1      48.229   7.380  11.330  0.00  0.00    +0.000 A 
ATOM      4  C   UNL     1      47.048   6.639  11.593  0.00  0.00    +0.000 A 
ATOM      5  C   UNL     1      46.023   6.088  10.818  0.00  0.00    +0.000 A 
ATOM      6  C   UNL     1      44.959   5.516  11.518  0.00  0.00    +0.000 A 
ATOM      7  C   UNL     1      45.052   5.353  12.902  0.00  0.00    +0.000 A 
ATOM      8  N   UNL     1      46.009   5.906  13.697  0.00  0.00    +0.000 NA
ATOM      9  C   UNL     1      46.919   6.601  12.982  0.00  0.00    +0.000 A 
ENDROOT
BRANCH   6  10
ATOM     10  C   UNL     1      43.728   5.086  10.829  0.00  0.00    +0.000 C 
ATOM     11  O   UNL     1      42.635   5.140  11.342  0.00  0.00    +0.000 OA
BRANCH  10  12
ATOM     12  O   UNL     1      43.957   4.711   9.558  0.00  0.00    +0.000 OA
ATOM     13  H   UNL     1      43.174   4.392   9.056  0.00  0.00    +0.000 HD
ENDBRANCH  10  12
ENDBRANCH   6  10
BRANCH   1  14
ATOM     14  C   UNL     1      47.974   7.907  14.882  0.00  0.00    +0.000 C 
BRANCH  14  17
ATOM     15  C   UNL     1      49.320   4.982  16.987  0.00  0.00    +0.000 A 
ATOM     16  C   UNL     1      48.412   5.848  16.352  0.00  0.00    +0.000 A 
ATOM     17  C   UNL     1      48.882   7.004  15.692  0.00  0.00    +0.000 A 
ATOM     18  C   UNL     1      50.255   7.275  15.718  0.00  0.00    +0.000 A 
ATOM     19  C   UNL     1      51.085   6.362  16.356  0.00  0.00    +0.000 A 
ATOM     20  N   UNL     1      50.653   5.237  16.955  0.00  0.00    +0.000 NA
BRANCH  15  22
ATOM     21  C   UNL     1      47.561   3.189  17.081  0.00  0.00    +0.000 C 
ATOM     22  C   UNL     1      48.909   3.672  17.672  0.00  0.00    +0.000 C 
ATOM     23  C   UNL     1      48.767   3.774  19.199  0.00  0.00    +0.000 C 
ATOM     24  C   UNL     1      49.963   2.566  17.391  0.00  0.00    +0.000 C 
ENDBRANCH  15  22
ENDBRANCH  14  17
ENDBRANCH   1  14
TORSDOF 5
ENDMDL
MODEL 7
REMARK VINA RESULT:    -6.060      4.356      6.320
REMARK INTER + INTRA:          -8.306
REMARK INTER:                  -7.908
REMARK INTRA:                  -0.398
REMARK UNBOUND:                -0.652
REMARK  Name = 
REMARK  8 active torsions:
REMARK  status: ('A' for Active; 'I' for Inactive)
REMARK    1  A    between atoms: C_1  and  C_2
REMARK    2  A    between atoms: C_2  and  C_3
REMARK    3  A    between atoms: C_2  and  C_4
REMARK    4  A    between atoms: C_2  and  C_5
REMARK    5  A    between atoms: C_7  and  C_8
REMARK    6  A    between atoms: C_8  and  N_9
REMARK    7  A    between atoms: C_14  and  C_15
REMARK    8  A    between atoms: C_15  and  O_17
REMARK                            x       y       z     vdW  Elec       q    Type
REMARK                         _______ _______ _______ _____ _____    ______ ____
ROOT
ATOM      1  N   UNL     1      47.325   4.629  14.698  0.00  0.00    +0.000 N 
ATOM      2  C   UNL     1      47.761   5.936  14.681  0.00  0.00    +0.000 A 
ATOM      3  C   UNL     1      47.842   6.288  13.349  0.00  0.00    +0.000 A 
ATOM      4  C   UNL     1      46.761   5.579  12.766  0.00  0.00    +0.000 A 
ATOM      5  C   UNL     1      45.858   5.816  11.726  0.00  0.00    +0.000 A 
ATOM      6  C   UNL     1      44.849   4.867  11.555  0.00  0.00    +0.000 A 
ATOM      7  C   UNL     1      44.896   3.672  12.276  0.00  0.00    +0.000 A 
ATOM      8  N   UNL     1      45.731   3.417  13.321  0.00  0.00    +0.000 NA
ATOM      9  C   UNL     1      46.572   4.446  13.559  0.00  0.00    +0.000 A 
ENDROOT
BRANCH   6  10
ATOM     10  C   UNL     1      43.721   5.100  10.633  0.00  0.00    +0.000 C 
ATOM     11  O   UNL     1      42.694   5.639  10.974  0.00  0.00    +0.000 OA
BRANCH  10  12
ATOM     12  O   UNL     1      44.003   4.723   9.374  0.00  0.00    +0.000 OA
ATOM     13  H   UNL     1      44.713   4.050   9.275  0.00  0.00    +0.000 HD
ENDBRANCH  10  12
ENDBRANCH   6  10
BRANCH   1  14
ATOM     14  C   UNL     1      47.349   3.772  15.876  0.00  0.00    +0.000 C 
BRANCH  14  17
ATOM     15  C   UNL     1      48.624   5.663  18.974  0.00  0.00    +0.000 A 
ATOM     16  C   UNL     1      47.813   5.307  17.882  0.00  0.00    +0.000 A 
ATOM     17  C   UNL     1      48.230   4.291  16.995  0.00  0.00    +0.000 A 
ATOM     18  C   UNL     1      49.472   3.682  17.214  0.00  0.00    +0.000 A 
ATOM     19  C   UNL     1      50.205   4.084  18.323  0.00  0.00    +0.000 A 
ATOM     20  N   UNL     1      49.801   5.024  19.197  0.00  0.00    +0.000 NA
BRANCH  15  22
ATOM     21  C   UNL     1      49.505   7.293  20.672  0.00  0.00    +0.000 C 
ATOM     22  C   UNL     1      48.225   6.708  20.024  0.00  0.00    +0.000 C 
ATOM     23  C   UNL     1      47.313   6.169  21.139  0.00  0.00    +0.000 C 
ATOM     24  C   UNL     1      47.465   7.884  19.350  0.00  0.00    +0.000 C 
ENDBRANCH  15  22
ENDBRANCH  14  17
ENDBRANCH   1  14
TORSDOF 5
ENDMDL
MODEL 8
REMARK VINA RESULT:    -6.014      4.329      6.570
REMARK INTER + INTRA:          -8.248
REMARK INTER:                  -7.584
REMARK INTRA:                  -0.663
REMARK UNBOUND:                -0.652
REMARK  Name = 
REMARK  8 active torsions:
REMARK  status: ('A' for Active; 'I' for Inactive)
REMARK    1  A    between atoms: C_1  and  C_2
REMARK    2  A    between atoms: C_2  and  C_3
REMARK    3  A    between atoms: C_2  and  C_4
REMARK    4  A    between atoms: C_2  and  C_5
REMARK    5  A    between atoms: C_7  and  C_8
REMARK    6  A    between atoms: C_8  and  N_9
REMARK    7  A    between atoms: C_14  and  C_15
REMARK    8  A    between atoms: C_15  and  O_17
REMARK                            x       y       z     vdW  Elec       q    Type
REMARK                         _______ _______ _______ _____ _____    ______ ____
ROOT
ATOM      1  N   UNL     1      48.091   7.597  13.564  0.00  0.00    +0.000 N 
ATOM      2  C   UNL     1      47.432   8.805  13.496  0.00  0.00    +0.000 A 
ATOM      3  C   UNL     1      46.451   8.645  12.540  0.00  0.00    +0.000 A 
ATOM      4  C   UNL     1      46.059   7.292  12.709  0.00  0.00    +0.000 A 
ATOM      5  C   UNL     1      44.863   6.578  12.598  0.00  0.00    +0.000 A 
ATOM      6  C   UNL     1      44.907   5.235  12.975  0.00  0.00    +0.000 A 
ATOM      7  C   UNL     1      46.138   4.637  13.253  0.00  0.00    +0.000 A 
ATOM      8  N   UNL     1      47.317   5.299  13.410  0.00  0.00    +0.000 NA
ATOM      9  C   UNL     1      47.181   6.627  13.206  0.00  0.00    +0.000 A 
ENDROOT
BRANCH   6  10
ATOM     10  C   UNL     1      43.677   4.430  13.098  0.00  0.00    +0.000 C 
ATOM     11  O   UNL     1      43.657   3.233  12.933  0.00  0.00    +0.000 OA
BRANCH  10  12
ATOM     12  O   UNL     1      42.621   5.164  13.490  0.00  0.00    +0.000 OA
ATOM     13  H   UNL     1      41.882   5.232  12.845  0.00  0.00    +0.000 HD
ENDBRANCH  10  12
ENDBRANCH   6  10
BRANCH   1  14
ATOM     14  C   UNL     1      49.361   7.393  14.249  0.00  0.00    +0.000 C 
BRANCH  14  17
ATOM     15  C   UNL     1      48.975   5.555  17.607  0.00  0.00    +0.000 A 
ATOM     16  C   UNL     1      48.976   5.794  16.221  0.00  0.00    +0.000 A 
ATOM     17  C   UNL     1      49.220   7.094  15.728  0.00  0.00    +0.000 A 
ATOM     18  C   UNL     1      49.423   8.129  16.650  0.00  0.00    +0.000 A 
ATOM     19  C   UNL     1      49.419   7.805  18.000  0.00  0.00    +0.000 A 
ATOM     20  N   UNL     1      49.226   6.563  18.480  0.00  0.00    +0.000 NA
BRANCH  15  22
ATOM     21  C   UNL     1      49.991   3.269  17.856  0.00  0.00    +0.000 C 
ATOM     22  C   UNL     1      48.785   4.166  18.230  0.00  0.00    +0.000 C 
ATOM     23  C   UNL     1      47.491   3.453  17.803  0.00  0.00    +0.000 C 
ATOM     24  C   UNL     1      48.748   4.273  19.780  0.00  0.00    +0.000 C 
ENDBRANCH  15  22
ENDBRANCH  14  17
ENDBRANCH   1  14
TORSDOF 5
ENDMDL
MODEL 9
REMARK VINA RESULT:    -6.012      4.312      6.116
REMARK INTER + INTRA:          -8.246
REMARK INTER:                  -7.744
REMARK INTRA:                  -0.501
REMARK UNBOUND:                -0.652
REMARK  Name = 
REMARK  8 active torsions:
REMARK  status: ('A' for Active; 'I' for Inactive)
REMARK    1  A    between atoms: C_1  and  C_2
REMARK    2  A    between atoms: C_2  and  C_3
REMARK    3  A    between atoms: C_2  and  C_4
REMARK    4  A    between atoms: C_2  and  C_5
REMARK    5  A    between atoms: C_7  and  C_8
REMARK    6  A    between atoms: C_8  and  N_9
REMARK    7  A    between atoms: C_14  and  C_15
REMARK    8  A    between atoms: C_15  and  O_17
REMARK                            x       y       z     vdW  Elec       q    Type
REMARK                         _______ _______ _______ _____ _____    ______ ____
ROOT
ATOM      1  N   UNL     1      47.286   4.552  14.837  0.00  0.00    +0.000 N 
ATOM      2  C   UNL     1      47.653   5.879  14.897  0.00  0.00    +0.000 A 
ATOM      3  C   UNL     1      47.849   6.275  13.590  0.00  0.00    +0.000 A 
ATOM      4  C   UNL     1      46.870   5.531  12.882  0.00  0.00    +0.000 A 
ATOM      5  C   UNL     1      46.064   5.755  11.762  0.00  0.00    +0.000 A 
ATOM      6  C   UNL     1      45.128   4.763  11.466  0.00  0.00    +0.000 A 
ATOM      7  C   UNL     1      45.165   3.550  12.158  0.00  0.00    +0.000 A 
ATOM      8  N   UNL     1      45.903   3.305  13.276  0.00  0.00    +0.000 NA
ATOM      9  C   UNL     1      46.662   4.367  13.623  0.00  0.00    +0.000 A 
ENDROOT
BRANCH   6  10
ATOM     10  C   UNL     1      44.088   4.968  10.440  0.00  0.00    +0.000 C 
ATOM     11  O   UNL     1      42.953   5.286  10.710  0.00  0.00    +0.000 OA
BRANCH  10  12
ATOM     12  O   UNL     1      44.568   4.840   9.192  0.00  0.00    +0.000 OA
ATOM     13  H   UNL     1      45.542   4.936   9.093  0.00  0.00    +0.000 HD
ENDBRANCH  10  12
ENDBRANCH   6  10
BRANCH   1  14
ATOM     14  C   UNL     1      47.236   3.662  15.990  0.00  0.00    +0.000 C 
BRANCH  14  17
ATOM     15  C   UNL     1      50.310   4.322  18.208  0.00  0.00    +0.000 A 
ATOM     16  C   UNL     1      49.508   3.793  17.181  0.00  0.00    +0.000 A 
ATOM     17  C   UNL     1      48.128   4.093  17.137  0.00  0.00    +0.000 A 
ATOM     18  C   UNL     1      47.587   4.891  18.151  0.00  0.00    +0.000 A 
ATOM     19  C   UNL     1      48.450   5.383  19.122  0.00  0.00    +0.000 A 
ATOM     20  N   UNL     1      49.773   5.136  19.153  0.00  0.00    +0.000 NA
BRANCH  15  22
ATOM     21  C   UNL     1      52.544   5.129  17.388  0.00  0.00    +0.000 C 
ATOM     22  C   UNL     1      51.825   4.104  18.301  0.00  0.00    +0.000 C 
ATOM     23  C   UNL     1      52.287   2.690  17.910  0.00  0.00    +0.000 C 
ATOM     24  C   UNL     1      52.316   4.351  19.754  0.00  0.00    +0.000 C 
ENDBRANCH  15  22
ENDBRANCH  14  17
ENDBRANCH   1  14
TORSDOF 5
ENDMDL
