MODEL 1
REMARK VINA RESULT:    -9.624      0.000      0.000
REMARK INTER + INTRA:         -12.143
REMARK INTER:                 -11.874
REMARK INTRA:                  -0.269
REMARK UNBOUND:                -0.269
REMARK  Name = 
REMARK  4 active torsions:
REMARK  status: ('A' for Active; 'I' for Inactive)
REMARK    1  A    between atoms: C_2  and  C_4
REMARK    2  A    between atoms: N_8  and  C_9
REMARK    3  A    between atoms: C_9  and  C_10
REMARK    4  A    between atoms: C_14  and  C_15
REMARK                            x       y       z     vdW  Elec       q    Type
REMARK                         _______ _______ _______ _____ _____    ______ ____
ROOT
ATOM      1  C   UNL     1      43.932   4.746  11.619  0.00  0.00    +0.000 C 
ATOM      2  C   UNL     1      42.644   5.148  12.322  0.00  0.00    +0.000 C 
ATOM      3  C   UNL     1      43.073   5.898  11.104  0.00  0.00    +0.000 C 
ENDROOT
BRANCH   1   8
ATOM      4  C   UNL     1      46.477   2.760   7.584  0.00  0.00    +0.000 A 
ATOM      5  C   UNL     1      46.223   4.083   7.923  0.00  0.00    +0.000 A 
ATOM      6  C   UNL     1      45.384   4.356   9.003  0.00  0.00    +0.000 A 
ATOM      7  C   UNL     1      44.817   3.312   9.726  0.00  0.00    +0.000 A 
ATOM      8  N   UNL     1      43.973   3.518  10.820  0.00  0.00    +0.000 N 
ATOM      9  N   UNL     1      45.044   2.023   9.393  0.00  0.00    +0.000 NA
ATOM     10  C   UNL     1      45.852   1.772   8.328  0.00  0.00    +0.000 A 
ATOM     11  H   UNL     1      43.759   2.621  11.243  0.00  0.00    +0.000 HD
BRANCH   4  13
ATOM     12  N   UNL     1      47.317   3.164   5.343  0.00  0.00    +0.000 N 
ATOM     13  C   UNL     1      47.357   2.378   6.461  0.00  0.00    +0.000 C 
ATOM     14  O   UNL     1      48.119   1.424   6.540  0.00  0.00    +0.000 OA
ATOM     15  H   UNL     1      47.992   2.953   4.618  0.00  0.00    +0.000 HD
ATOM     16  H   UNL     1      46.890   4.080   5.333  0.00  0.00    +0.000 HD
ENDBRANCH   4  13
ENDBRANCH   1   8
BRANCH   1  17
ATOM     17  C   UNL     1      45.269   5.167  12.228  0.00  0.00    +0.000 A 
ATOM     18  C   UNL     1      45.927   6.337  11.804  0.00  0.00    +0.000 A 
ATOM     19  C   UNL     1      47.063   6.803  12.458  0.00  0.00    +0.000 A 
ATOM     20  C   UNL     1      47.564   6.116  13.560  0.00  0.00    +0.000 A 
ATOM     21  C   UNL     1      46.952   4.939  14.018  0.00  0.00    +0.000 A 
ATOM     22  C   UNL     1      45.837   4.466  13.308  0.00  0.00    +0.000 A 
BRANCH  21  23
ATOM     23  C   UNL     1      47.383   4.263  15.254  0.00  0.00    +0.000 A 
ATOM     24  C   UNL     1      47.243   4.876  16.500  0.00  0.00    +0.000 A 
ATOM     25  C   UNL     1      47.610   4.182  17.649  0.00  0.00    +0.000 A 
ATOM     26  C   UNL     1      48.102   2.892  17.530  0.00  0.00    +0.000 A 
ATOM     27  C   UNL     1      48.199   2.343  16.262  0.00  0.00    +0.000 A 
ATOM     28  N   UNL     1      47.846   2.992  15.129  0.00  0.00    +0.000 NA
ENDBRANCH  21  23
ENDBRANCH   1  17
TORSDOF 4
ENDMDL
MODEL 2
REMARK VINA RESULT:    -8.893      1.893      3.678
REMARK INTER + INTRA:         -11.242
REMARK INTER:                 -10.894
REMARK INTRA:                  -0.348
REMARK UNBOUND:                -0.269
REMARK  Name = 
REMARK  4 active torsions:
REMARK  status: ('A' for Active; 'I' for Inactive)
REMARK    1  A    between atoms: C_2  and  C_4
REMARK    2  A    between atoms: N_8  and  C_9
REMARK    3  A    between atoms: C_9  and  C_10
REMARK    4  A    between atoms: C_14  and  C_15
REMARK                            x       y       z     vdW  Elec       q    Type
REMARK                         _______ _______ _______ _____ _____    ______ ____
ROOT
ATOM      1  C   UNL     1      43.751   4.887  11.583  0.00  0.00    +0.000 C 
ATOM      2  C   UNL     1      42.425   5.398  12.125  0.00  0.00    +0.000 C 
ATOM      3  C   UNL     1      43.055   6.098  10.967  0.00  0.00    +0.000 C 
ENDROOT
BRANCH   1   8
ATOM      4  C   UNL     1      46.393   2.800   7.664  0.00  0.00    +0.000 A 
ATOM      5  C   UNL     1      46.161   4.132   7.982  0.00  0.00    +0.000 A 
ATOM      6  C   UNL     1      45.290   4.436   9.027  0.00  0.00    +0.000 A 
ATOM      7  C   UNL     1      44.669   3.414   9.737  0.00  0.00    +0.000 A 
ATOM      8  N   UNL     1      43.790   3.652  10.796  0.00  0.00    +0.000 N 
ATOM      9  N   UNL     1      44.874   2.117   9.423  0.00  0.00    +0.000 NA
ATOM     10  C   UNL     1      45.715   1.835   8.391  0.00  0.00    +0.000 A 
ATOM     11  H   UNL     1      43.537   2.764  11.219  0.00  0.00    +0.000 HD
BRANCH   4  13
ATOM     12  N   UNL     1      47.293   3.134   5.434  0.00  0.00    +0.000 N 
ATOM     13  C   UNL     1      47.305   2.385   6.578  0.00  0.00    +0.000 C 
ATOM     14  O   UNL     1      48.066   1.436   6.708  0.00  0.00    +0.000 OA
ATOM     15  H   UNL     1      47.987   2.902   4.735  0.00  0.00    +0.000 HD
ATOM     16  H   UNL     1      46.864   4.048   5.383  0.00  0.00    +0.000 HD
ENDBRANCH   4  13
ENDBRANCH   1   8
BRANCH   1  17
ATOM     17  C   UNL     1      45.034   5.208  12.349  0.00  0.00    +0.000 A 
ATOM     18  C   UNL     1      45.591   4.289  13.258  0.00  0.00    +0.000 A 
ATOM     19  C   UNL     1      46.834   4.514  13.842  0.00  0.00    +0.000 A 
ATOM     20  C   UNL     1      47.557   5.659  13.523  0.00  0.00    +0.000 A 
ATOM     21  C   UNL     1      47.044   6.614  12.630  0.00  0.00    +0.000 A 
ATOM     22  C   UNL     1      45.766   6.384  12.096  0.00  0.00    +0.000 A 
BRANCH  21  23
ATOM     23  C   UNL     1      47.838   7.769  12.178  0.00  0.00    +0.000 A 
ATOM     24  C   UNL     1      47.303   9.058  12.178  0.00  0.00    +0.000 A 
ATOM     25  C   UNL     1      48.104  10.131  11.796  0.00  0.00    +0.000 A 
ATOM     26  C   UNL     1      49.420   9.894  11.431  0.00  0.00    +0.000 A 
ATOM     27  C   UNL     1      49.885   8.591  11.471  0.00  0.00    +0.000 A 
ATOM     28  N   UNL     1      49.132   7.529  11.841  0.00  0.00    +0.000 NA
ENDBRANCH  21  23
ENDBRANCH   1  17
TORSDOF 4
ENDMDL
MODEL 3
REMARK VINA RESULT:    -7.665      3.000      7.590
REMARK INTER + INTRA:          -9.727
REMARK INTER:                  -9.333
REMARK INTRA:                  -0.393
REMARK UNBOUND:                -0.269
REMARK  Name = 
REMARK  4 active torsions:
REMARK  status: ('A' for Active; 'I' for Inactive)
REMARK    1  A    between atoms: C_2  and  C_4
REMARK    2  A    between atoms: N_8  and  C_9
REMARK    3  A    between atoms: C_9  and  C_10
REMARK    4  A    between atoms: C_14  and  C_15
REMARK                            x       y       z     vdW  Elec       q    Type
REMARK                         _______ _______ _______ _____ _____    ______ ____
ROOT
ATOM      1  C   UNL     1      48.371   7.714  12.741  0.00  0.00    +0.000 C 
ATOM      2  C   UNL     1      49.545   7.381  11.832  0.00  0.00    +0.000 C 
ATOM      3  C   UNL     1      49.115   8.804  11.973  0.00  0.00    +0.000 C 
ENDROOT
BRANCH   1   8
ATOM      4  C   UNL     1      47.907   4.379  16.659  0.00  0.00    +0.000 A 
ATOM      5  C   UNL     1      47.270   4.408  15.425  0.00  0.00    +0.000 A 
ATOM      6  C   UNL     1      47.469   5.506  14.588  0.00  0.00    +0.000 A 
ATOM      7  C   UNL     1      48.297   6.548  14.989  0.00  0.00    +0.000 A 
ATOM      8  N   UNL     1      48.541   7.672  14.196  0.00  0.00    +0.000 N 
ATOM      9  N   UNL     1      48.906   6.537  16.195  0.00  0.00    +0.000 NA
ATOM     10  C   UNL     1      48.690   5.467  17.008  0.00  0.00    +0.000 A 
ATOM     11  H   UNL     1      49.243   8.248  14.650  0.00  0.00    +0.000 HD
BRANCH   4  13
ATOM     12  N   UNL     1      48.813   3.004  18.442  0.00  0.00    +0.000 N 
ATOM     13  C   UNL     1      47.759   3.256  17.608  0.00  0.00    +0.000 C 
ATOM     14  O   UNL     1      46.727   2.602  17.673  0.00  0.00    +0.000 OA
ATOM     15  H   UNL     1      48.667   2.298  19.153  0.00  0.00    +0.000 HD
ATOM     16  H   UNL     1      49.569   3.659  18.582  0.00  0.00    +0.000 HD
ENDBRANCH   4  13
ENDBRANCH   1   8
BRANCH   1  17
ATOM     17  C   UNL     1      46.952   7.438  12.245  0.00  0.00    +0.000 A 
ATOM     18  C   UNL     1      45.942   8.412  12.347  0.00  0.00    +0.000 A 
ATOM     19  C   UNL     1      44.693   8.220  11.763  0.00  0.00    +0.000 A 
ATOM     20  C   UNL     1      44.428   7.053  11.053  0.00  0.00    +0.000 A 
ATOM     21  C   UNL     1      45.396   6.045  10.929  0.00  0.00    +0.000 A 
ATOM     22  C   UNL     1      46.630   6.246  11.571  0.00  0.00    +0.000 A 
BRANCH  21  23
ATOM     23  C   UNL     1      45.188   4.859  10.080  0.00  0.00    +0.000 A 
ATOM     24  C   UNL     1      45.667   4.816   8.770  0.00  0.00    +0.000 A 
ATOM     25  C   UNL     1      45.499   3.657   8.019  0.00  0.00    +0.000 A 
ATOM     26  C   UNL     1      44.865   2.566   8.593  0.00  0.00    +0.000 A 
ATOM     27  C   UNL     1      44.431   2.677   9.903  0.00  0.00    +0.000 A 
ATOM     28  N   UNL     1      44.584   3.789  10.658  0.00  0.00    +0.000 NA
ENDBRANCH  21  23
ENDBRANCH   1  17
TORSDOF 4
ENDMDL
MODEL 4
REMARK VINA RESULT:    -7.368      3.961      7.022
REMARK INTER + INTRA:          -9.360
REMARK INTER:                  -8.728
REMARK INTRA:                  -0.632
REMARK UNBOUND:                -0.269
REMARK  Name = 
REMARK  4 active torsions:
REMARK  status: ('A' for Active; 'I' for Inactive)
REMARK    1  A    between atoms: C_2  and  C_4
REMARK    2  A    between atoms: N_8  and  C_9
REMARK    3  A    between atoms: C_9  and  C_10
REMARK    4  A    between atoms: C_14  and  C_15
REMARK                            x       y       z     vdW  Elec       q    Type
REMARK                         _______ _______ _______ _____ _____    ______ ____
ROOT
ATOM      1  C   UNL     1      47.541   7.860  13.117  0.00  0.00    +0.000 C 
ATOM      2  C   UNL     1      48.842   7.173  12.729  0.00  0.00    +0.000 C 
ATOM      3  C   UNL     1      48.773   7.927  14.016  0.00  0.00    +0.000 C 
ENDROOT
BRANCH   1   8
ATOM      4  C   UNL     1      44.596   3.921  11.531  0.00  0.00    +0.000 A 
ATOM      5  C   UNL     1      45.315   4.857  10.798  0.00  0.00    +0.000 A 
ATOM      6  C   UNL     1      45.925   5.918  11.468  0.00  0.00    +0.000 A 
ATOM      7  C   UNL     1      45.813   6.026  12.850  0.00  0.00    +0.000 A 
ATOM      8  N   UNL     1      46.404   7.060  13.580  0.00  0.00    +0.000 N 
ATOM      9  N   UNL     1      45.102   5.130  13.569  0.00  0.00    +0.000 NA
ATOM     10  C   UNL     1      44.499   4.110  12.901  0.00  0.00    +0.000 A 
ATOM     11  H   UNL     1      46.270   6.881  14.570  0.00  0.00    +0.000 HD
BRANCH   4  13
ATOM     12  N   UNL     1      44.473   2.270   9.756  0.00  0.00    +0.000 N 
ATOM     13  C   UNL     1      43.923   2.764  10.907  0.00  0.00    +0.000 C 
ATOM     14  O   UNL     1      42.940   2.243  11.417  0.00  0.00    +0.000 OA
ATOM     15  H   UNL     1      44.064   1.419   9.390  0.00  0.00    +0.000 HD
ATOM     16  H   UNL     1      45.402   2.515   9.445  0.00  0.00    +0.000 HD
ENDBRANCH   4  13
ENDBRANCH   1   8
BRANCH   1  17
ATOM     17  C   UNL     1      47.172   9.178  12.437  0.00  0.00    +0.000 A 
ATOM     18  C   UNL     1      48.163  10.038  11.926  0.00  0.00    +0.000 A 
ATOM     19  C   UNL     1      47.827  11.161  11.177  0.00  0.00    +0.000 A 
ATOM     20  C   UNL     1      46.491  11.447  10.910  0.00  0.00    +0.000 A 
ATOM     21  C   UNL     1      45.463  10.629  11.404  0.00  0.00    +0.000 A 
ATOM     22  C   UNL     1      45.831   9.531  12.199  0.00  0.00    +0.000 A 
BRANCH  21  23
ATOM     23  C   UNL     1      44.052  10.835  11.034  0.00  0.00    +0.000 A 
ATOM     24  C   UNL     1      43.618  10.657   9.719  0.00  0.00    +0.000 A 
ATOM     25  C   UNL     1      42.266  10.807   9.420  0.00  0.00    +0.000 A 
ATOM     26  C   UNL     1      41.381  11.123  10.439  0.00  0.00    +0.000 A 
ATOM     27  C   UNL     1      41.883  11.269  11.720  0.00  0.00    +0.000 A 
ATOM     28  N   UNL     1      43.190  11.126  12.042  0.00  0.00    +0.000 NA
ENDBRANCH  21  23
ENDBRANCH   1  17
TORSDOF 4
ENDMDL
MODEL 5
REMARK VINA RESULT:    -7.120      4.172      8.744
REMARK INTER + INTRA:          -9.054
REMARK INTER:                  -8.480
REMARK INTRA:                  -0.574
REMARK UNBOUND:                -0.269
REMARK  Name = 
REMARK  4 active torsions:
REMARK  status: ('A' for Active; 'I' for Inactive)
REMARK    1  A    between atoms: C_2  and  C_4
REMARK    2  A    between atoms: N_8  and  C_9
REMARK    3  A    between atoms: C_9  and  C_10
REMARK    4  A    between atoms: C_14  and  C_15
REMARK                            x       y       z     vdW  Elec       q    Type
REMARK                         _______ _______ _______ _____ _____    ______ ____
ROOT
ATOM      1  C   UNL     1      48.248   3.327  17.158  0.00  0.00    +0.000 C 
ATOM      2  C   UNL     1      48.020   3.613  18.635  0.00  0.00    +0.000 C 
ATOM      3  C   UNL     1      47.007   2.813  17.884  0.00  0.00    +0.000 C 
ENDROOT
BRANCH   1   8
ATOM      4  C   UNL     1      53.142   2.047  18.209  0.00  0.00    +0.000 A 
ATOM      5  C   UNL     1      52.489   3.267  18.323  0.00  0.00    +0.000 A 
ATOM      6  C   UNL     1      51.187   3.386  17.837  0.00  0.00    +0.000 A 
ATOM      7  C   UNL     1      50.558   2.291  17.254  0.00  0.00    +0.000 A 
ATOM      8  N   UNL     1      49.255   2.343  16.753  0.00  0.00    +0.000 N 
ATOM      9  N   UNL     1      51.191   1.105  17.123  0.00  0.00    +0.000 NA
ATOM     10  C   UNL     1      52.467   1.009  17.587  0.00  0.00    +0.000 A 
ATOM     11  H   UNL     1      48.977   1.410  16.464  0.00  0.00    +0.000 HD
BRANCH   4  13
ATOM     12  N   UNL     1      54.664   1.511  20.023  0.00  0.00    +0.000 N 
ATOM     13  C   UNL     1      54.518   1.828  18.701  0.00  0.00    +0.000 C 
ATOM     14  O   UNL     1      55.483   1.888  17.951  0.00  0.00    +0.000 OA
ATOM     15  H   UNL     1      55.598   1.267  20.328  0.00  0.00    +0.000 HD
ATOM     16  H   UNL     1      53.890   1.220  20.604  0.00  0.00    +0.000 HD
ENDBRANCH   4  13
ENDBRANCH   1   8
BRANCH   1  17
ATOM     17  C   UNL     1      47.980   4.437  16.142  0.00  0.00    +0.000 A 
ATOM     18  C   UNL     1      48.706   5.642  16.170  0.00  0.00    +0.000 A 
ATOM     19  C   UNL     1      48.572   6.590  15.160  0.00  0.00    +0.000 A 
ATOM     20  C   UNL     1      47.715   6.351  14.090  0.00  0.00    +0.000 A 
ATOM     21  C   UNL     1      46.960   5.170  14.017  0.00  0.00    +0.000 A 
ATOM     22  C   UNL     1      47.080   4.255  15.076  0.00  0.00    +0.000 A 
BRANCH  21  23
ATOM     23  C   UNL     1      46.144   4.834  12.838  0.00  0.00    +0.000 A 
ATOM     24  C   UNL     1      46.005   5.730  11.776  0.00  0.00    +0.000 A 
ATOM     25  C   UNL     1      45.271   5.352  10.655  0.00  0.00    +0.000 A 
ATOM     26  C   UNL     1      44.700   4.090  10.616  0.00  0.00    +0.000 A 
ATOM     27  C   UNL     1      44.894   3.250  11.699  0.00  0.00    +0.000 A 
ATOM     28  N   UNL     1      45.605   3.588  12.800  0.00  0.00    +0.000 NA
ENDBRANCH  21  23
ENDBRANCH   1  17
TORSDOF 4
ENDMDL
MODEL 6
REMARK VINA RESULT:    -6.985      3.263      5.196
REMARK INTER + INTRA:          -8.887
REMARK INTER:                  -8.059
REMARK INTRA:                  -0.829
REMARK UNBOUND:                -0.269
REMARK  Name = 
REMARK  4 active torsions:
REMARK  status: ('A' for Active; 'I' for Inactive)
REMARK    1  A    between atoms: C_2  and  C_4
REMARK    2  A    between atoms: N_8  and  C_9
REMARK    3  A    between atoms: C_9  and  C_10
REMARK    4  A    between atoms: C_14  and  C_15
REMARK                            x       y       z     vdW  Elec       q    Type
REMARK                         _______ _______ _______ _____ _____    ______ ____
ROOT
ATOM      1  C   UNL     1      48.678   8.495  12.656  0.00  0.00    +0.000 C 
ATOM      2  C   UNL     1      48.432   9.890  12.102  0.00  0.00    +0.000 C 
ATOM      3  C   UNL     1      49.813   9.325  12.062  0.00  0.00    +0.000 C 
ENDROOT
BRANCH   1   8
ATOM      4  C   UNL     1      44.336   5.861  11.705  0.00  0.00    +0.000 A 
ATOM      5  C   UNL     1      44.686   6.652  12.791  0.00  0.00    +0.000 A 
ATOM      6  C   UNL     1      45.987   7.148  12.875  0.00  0.00    +0.000 A 
ATOM      7  C   UNL     1      46.912   6.853  11.879  0.00  0.00    +0.000 A 
ATOM      8  N   UNL     1      48.227   7.322  11.902  0.00  0.00    +0.000 N 
ATOM      9  N   UNL     1      46.585   6.069  10.829  0.00  0.00    +0.000 NA
ATOM     10  C   UNL     1      45.317   5.580  10.767  0.00  0.00    +0.000 A 
ATOM     11  H   UNL     1      48.684   7.061  11.035  0.00  0.00    +0.000 HD
BRANCH   4  13
ATOM     12  N   UNL     1      41.925   6.145  11.725  0.00  0.00    +0.000 N 
ATOM     13  C   UNL     1      42.981   5.298  11.530  0.00  0.00    +0.000 C 
ATOM     14  O   UNL     1      42.809   4.136  11.188  0.00  0.00    +0.000 OA
ATOM     15  H   UNL     1      41.007   5.778  11.508  0.00  0.00    +0.000 HD
ATOM     16  H   UNL     1      42.030   7.149  11.769  0.00  0.00    +0.000 HD
ENDBRANCH   4  13
ENDBRANCH   1   8
BRANCH   1  17
ATOM     17  C   UNL     1      48.750   8.304  14.171  0.00  0.00    +0.000 A 
ATOM     18  C   UNL     1      48.464   9.363  15.054  0.00  0.00    +0.000 A 
ATOM     19  C   UNL     1      48.382   9.155  16.427  0.00  0.00    +0.000 A 
ATOM     20  C   UNL     1      48.573   7.880  16.952  0.00  0.00    +0.000 A 
ATOM     21  C   UNL     1      48.870   6.791  16.117  0.00  0.00    +0.000 A 
ATOM     22  C   UNL     1      48.995   7.041  14.741  0.00  0.00    +0.000 A 
BRANCH  21  23
ATOM     23  C   UNL     1      48.951   5.412  16.629  0.00  0.00    +0.000 A 
ATOM     24  C   UNL     1      47.839   4.567  16.609  0.00  0.00    +0.000 A 
ATOM     25  C   UNL     1      47.972   3.254  17.049  0.00  0.00    +0.000 A 
ATOM     26  C   UNL     1      49.208   2.812  17.493  0.00  0.00    +0.000 A 
ATOM     27  C   UNL     1      50.268   3.701  17.469  0.00  0.00    +0.000 A 
ATOM     28  N   UNL     1      50.171   4.982  17.042  0.00  0.00    +0.000 NA
ENDBRANCH  21  23
ENDBRANCH   1  17
TORSDOF 4
ENDMDL
