MODEL 1
REMARK VINA RESULT:    -8.465      0.000      0.000
REMARK INTER + INTRA:         -12.749
REMARK INTER:                 -11.929
REMARK INTRA:                  -0.820
REMARK UNBOUND:                -0.820
REMARK  Name = 
REMARK  7 active torsions:
REMARK  status: ('A' for Active; 'I' for Inactive)
REMARK    1  A    between atoms: C_2  and  C_3
REMARK    2  A    between atoms: C_6  and  O_7
REMARK    3  A    between atoms: O_7  and  C_8
REMARK    4  A    between atoms: C_8  and  C_9
REMARK    5  A    between atoms: C_9  and  C_12
REMARK    6  A    between atoms: C_16  and  C_17
REMARK    7  A    between atoms: C_17  and  C_18
REMARK                            x       y       z     vdW  Elec       q    Type
REMARK                         _______ _______ _______ _____ _____    ______ ____
ROOT
ATOM      1  C   UNL     1      43.673   4.662  12.490  0.00  0.00    +0.000 C 
ATOM      2  F   UNL     1      42.816   5.492  13.159  0.00  0.00    +0.000 F 
ATOM      3  F   UNL     1      43.275   3.393  12.814  0.00  0.00    +0.000 F 
ENDROOT
BRANCH   1   4
ATOM      4  C   UNL     1      45.113   4.905  12.919  0.00  0.00    +0.000 A 
ATOM      5  C   UNL     1      45.781   5.990  12.387  0.00  0.00    +0.000 A 
ATOM      6  C   UNL     1      47.059   6.190  12.848  0.00  0.00    +0.000 A 
ATOM      7  N   UNL     1      47.666   5.382  13.746  0.00  0.00    +0.000 NA
ATOM      8  C   UNL     1      46.968   4.320  14.181  0.00  0.00    +0.000 A 
ATOM      9  N   UNL     1      45.698   4.060  13.816  0.00  0.00    +0.000 NA
BRANCH   8  10
ATOM     10  C   UNL     1      47.623   3.348  15.142  0.00  0.00    +0.000 C 
BRANCH  10  11
ATOM     11  C   UNL     1      47.639   3.851  16.585  0.00  0.00    +0.000 C 
ATOM     12  C   UNL     1      48.982   4.149  17.301  0.00  0.00    +0.000 C 
ATOM     13  C   UNL     1      48.386   3.566  18.596  0.00  0.00    +0.000 C 
ATOM     14  C   UNL     1      47.320   2.850  17.744  0.00  0.00    +0.000 C 
ENDBRANCH  10  11
ENDBRANCH   8  10
ENDBRANCH   1   4
BRANCH   1  15
ATOM     15  C   UNL     1      43.486   4.867  10.984  0.00  0.00    +0.000 C 
BRANCH  15  16
ATOM     16  O   UNL     1      43.400   3.603  10.312  0.00  0.00    +0.000 OA
BRANCH  16  20
ATOM     17  C   UNL     1      46.433   2.466   7.695  0.00  0.00    +0.000 A 
ATOM     18  C   UNL     1      46.127   3.824   7.805  0.00  0.00    +0.000 A 
ATOM     19  C   UNL     1      45.114   4.249   8.669  0.00  0.00    +0.000 A 
ATOM     20  C   UNL     1      44.403   3.318   9.428  0.00  0.00    +0.000 A 
ATOM     21  C   UNL     1      44.706   1.959   9.310  0.00  0.00    +0.000 A 
ATOM     22  C   UNL     1      45.716   1.530   8.448  0.00  0.00    +0.000 A 
BRANCH  17  24
ATOM     23  N   UNL     1      48.330   1.688   6.106  0.00  0.00    +0.000 NA
ATOM     24  C   UNL     1      47.474   2.034   6.821  0.00  0.00    +0.000 C 
ENDBRANCH  17  24
ENDBRANCH  16  20
ENDBRANCH  15  16
ENDBRANCH   1  15
TORSDOF 7
ENDMDL
MODEL 2
REMARK VINA RESULT:    -7.497      1.766      3.413
REMARK INTER + INTRA:         -11.385
REMARK INTER:                 -10.621
REMARK INTRA:                  -0.764
REMARK UNBOUND:                -0.820
REMARK  Name = 
REMARK  7 active torsions:
REMARK  status: ('A' for Active; 'I' for Inactive)
REMARK    1  A    between atoms: C_2  and  C_3
REMARK    2  A    between atoms: C_6  and  O_7
REMARK    3  A    between atoms: O_7  and  C_8
REMARK    4  A    between atoms: C_8  and  C_9
REMARK    5  A    between atoms: C_9  and  C_12
REMARK    6  A    between atoms: C_16  and  C_17
REMARK    7  A    between atoms: C_17  and  C_18
REMARK                            x       y       z     vdW  Elec       q    Type
REMARK                         _______ _______ _______ _____ _____    ______ ____
ROOT
ATOM      1  C   UNL     1      44.229   5.299  12.211  0.00  0.00    +0.000 C 
ATOM      2  F   UNL     1      44.232   6.244  11.222  0.00  0.00    +0.000 F 
ATOM      3  F   UNL     1      43.170   5.623  13.016  0.00  0.00    +0.000 F 
ENDROOT
BRANCH   1   4
ATOM      4  C   UNL     1      45.534   5.323  12.993  0.00  0.00    +0.000 A 
ATOM      5  C   UNL     1      46.005   4.136  13.517  0.00  0.00    +0.000 A 
ATOM      6  C   UNL     1      47.213   4.208  14.169  0.00  0.00    +0.000 A 
ATOM      7  N   UNL     1      47.910   5.355  14.329  0.00  0.00    +0.000 NA
ATOM      8  C   UNL     1      47.362   6.477  13.833  0.00  0.00    +0.000 A 
ATOM      9  N   UNL     1      46.202   6.502  13.148  0.00  0.00    +0.000 NA
BRANCH   8  10
ATOM     10  C   UNL     1      48.072   7.799  14.038  0.00  0.00    +0.000 C 
BRANCH  10  11
ATOM     11  C   UNL     1      48.770   8.307  12.777  0.00  0.00    +0.000 C 
ATOM     12  C   UNL     1      48.834   7.425  11.502  0.00  0.00    +0.000 C 
ATOM     13  C   UNL     1      50.267   7.935  11.259  0.00  0.00    +0.000 C 
ATOM     14  C   UNL     1      50.333   8.357  12.739  0.00  0.00    +0.000 C 
ENDBRANCH  10  11
ENDBRANCH   8  10
ENDBRANCH   1   4
BRANCH   1  15
ATOM     15  C   UNL     1      43.967   3.927  11.583  0.00  0.00    +0.000 C 
BRANCH  15  16
ATOM     16  O   UNL     1      43.658   4.063  10.189  0.00  0.00    +0.000 OA
BRANCH  16  20
ATOM     17  C   UNL     1      46.547   2.527   7.614  0.00  0.00    +0.000 A 
ATOM     18  C   UNL     1      46.337   3.907   7.625  0.00  0.00    +0.000 A 
ATOM     19  C   UNL     1      45.375   4.465   8.472  0.00  0.00    +0.000 A 
ATOM     20  C   UNL     1      44.619   3.644   9.312  0.00  0.00    +0.000 A 
ATOM     21  C   UNL     1      44.827   2.263   9.292  0.00  0.00    +0.000 A 
ATOM     22  C   UNL     1      45.786   1.702   8.447  0.00  0.00    +0.000 A 
BRANCH  17  24
ATOM     23  N   UNL     1      48.347   1.502   6.051  0.00  0.00    +0.000 NA
ATOM     24  C   UNL     1      47.537   1.960   6.757  0.00  0.00    +0.000 C 
ENDBRANCH  17  24
ENDBRANCH  16  20
ENDBRANCH  15  16
ENDBRANCH   1  15
TORSDOF 7
ENDMDL
MODEL 3
REMARK VINA RESULT:    -7.325      2.381      7.498
REMARK INTER + INTRA:         -11.142
REMARK INTER:                 -10.247
REMARK INTRA:                  -0.895
REMARK UNBOUND:                -0.820
REMARK  Name = 
REMARK  7 active torsions:
REMARK  status: ('A' for Active; 'I' for Inactive)
REMARK    1  A    between atoms: C_2  and  C_3
REMARK    2  A    between atoms: C_6  and  O_7
REMARK    3  A    between atoms: O_7  and  C_8
REMARK    4  A    between atoms: C_8  and  C_9
REMARK    5  A    between atoms: C_9  and  C_12
REMARK    6  A    between atoms: C_16  and  C_17
REMARK    7  A    between atoms: C_17  and  C_18
REMARK                            x       y       z     vdW  Elec       q    Type
REMARK                         _______ _______ _______ _____ _____    ______ ____
ROOT
ATOM      1  C   UNL     1      44.806   6.434  12.024  0.00  0.00    +0.000 C 
ATOM      2  F   UNL     1      44.300   6.425  13.294  0.00  0.00    +0.000 F 
ATOM      3  F   UNL     1      44.183   7.478  11.395  0.00  0.00    +0.000 F 
ENDROOT
BRANCH   1   4
ATOM      4  C   UNL     1      44.518   5.120  11.312  0.00  0.00    +0.000 A 
ATOM      5  C   UNL     1      43.976   4.084  12.044  0.00  0.00    +0.000 A 
ATOM      6  C   UNL     1      43.689   2.940  11.339  0.00  0.00    +0.000 A 
ATOM      7  N   UNL     1      43.933   2.795  10.017  0.00  0.00    +0.000 NA
ATOM      8  C   UNL     1      44.508   3.831   9.385  0.00  0.00    +0.000 A 
ATOM      9  N   UNL     1      44.792   5.005   9.980  0.00  0.00    +0.000 NA
BRANCH   8  10
ATOM     10  C   UNL     1      44.859   3.699   7.917  0.00  0.00    +0.000 C 
BRANCH  10  11
ATOM     11  C   UNL     1      46.256   3.126   7.682  0.00  0.00    +0.000 C 
ATOM     12  C   UNL     1      46.791   2.919   6.242  0.00  0.00    +0.000 C 
ATOM     13  C   UNL     1      47.454   1.610   6.710  0.00  0.00    +0.000 C 
ATOM     14  C   UNL     1      46.504   1.601   7.923  0.00  0.00    +0.000 C 
ENDBRANCH  10  11
ENDBRANCH   8  10
ENDBRANCH   1   4
BRANCH   1  15
ATOM     15  C   UNL     1      46.308   6.728  12.092  0.00  0.00    +0.000 C 
BRANCH  15  16
ATOM     16  O   UNL     1      47.031   5.557  12.498  0.00  0.00    +0.000 OA
BRANCH  16  20
ATOM     17  C   UNL     1      48.130   5.216  16.500  0.00  0.00    +0.000 A 
ATOM     18  C   UNL     1      48.585   6.322  15.780  0.00  0.00    +0.000 A 
ATOM     19  C   UNL     1      48.243   6.474  14.433  0.00  0.00    +0.000 A 
ATOM     20  C   UNL     1      47.442   5.521  13.801  0.00  0.00    +0.000 A 
ATOM     21  C   UNL     1      46.994   4.412  14.522  0.00  0.00    +0.000 A 
ATOM     22  C   UNL     1      47.335   4.254  15.866  0.00  0.00    +0.000 A 
BRANCH  17  24
ATOM     23  N   UNL     1      48.743   4.944  19.006  0.00  0.00    +0.000 NA
ATOM     24  C   UNL     1      48.471   5.067  17.876  0.00  0.00    +0.000 C 
ENDBRANCH  17  24
ENDBRANCH  16  20
ENDBRANCH  15  16
ENDBRANCH   1  15
TORSDOF 7
ENDMDL
MODEL 4
REMARK VINA RESULT:    -7.311      2.578      8.164
REMARK INTER + INTRA:         -11.122
REMARK INTER:                 -10.464
REMARK INTRA:                  -0.658
REMARK UNBOUND:                -0.820
REMARK  Name = 
REMARK  7 active torsions:
REMARK  status: ('A' for Active; 'I' for Inactive)
REMARK    1  A    between atoms: C_2  and  C_3
REMARK    2  A    between atoms: C_6  and  O_7
REMARK    3  A    between atoms: O_7  and  C_8
REMARK    4  A    between atoms: C_8  and  C_9
REMARK    5  A    between atoms: C_9  and  C_12
REMARK    6  A    between atoms: C_16  and  C_17
REMARK    7  A    between atoms: C_17  and  C_18
REMARK                            x       y       z     vdW  Elec       q    Type
REMARK                         _______ _______ _______ _____ _____    ______ ____
ROOT
ATOM      1  C   UNL     1      46.120   5.165  12.831  0.00  0.00    +0.000 C 
ATOM      2  F   UNL     1      45.404   6.009  13.633  0.00  0.00    +0.000 F 
ATOM      3  F   UNL     1      46.926   5.977  12.080  0.00  0.00    +0.000 F 
ENDROOT
BRANCH   1   4
ATOM      4  C   UNL     1      45.198   4.342  11.943  0.00  0.00    +0.000 A 
ATOM      5  C   UNL     1      44.215   3.583  12.544  0.00  0.00    +0.000 A 
ATOM      6  C   UNL     1      43.380   2.902  11.692  0.00  0.00    +0.000 A 
ATOM      7  N   UNL     1      43.501   2.929  10.345  0.00  0.00    +0.000 NA
ATOM      8  C   UNL     1      44.513   3.652   9.838  0.00  0.00    +0.000 A 
ATOM      9  N   UNL     1      45.360   4.382  10.588  0.00  0.00    +0.000 NA
BRANCH   8  10
ATOM     10  C   UNL     1      44.730   3.669   8.338  0.00  0.00    +0.000 C 
BRANCH  10  11
ATOM     11  C   UNL     1      46.111   3.160   7.926  0.00  0.00    +0.000 C 
ATOM     12  C   UNL     1      46.508   3.083   6.429  0.00  0.00    +0.000 C 
ATOM     13  C   UNL     1      47.244   1.762   6.724  0.00  0.00    +0.000 C 
ATOM     14  C   UNL     1      46.418   1.629   8.017  0.00  0.00    +0.000 C 
ENDBRANCH  10  11
ENDBRANCH   8  10
ENDBRANCH   1   4
BRANCH   1  15
ATOM     15  C   UNL     1      47.003   4.276  13.712  0.00  0.00    +0.000 C 
BRANCH  15  16
ATOM     16  O   UNL     1      46.439   4.150  15.025  0.00  0.00    +0.000 OA
BRANCH  16  20
ATOM     17  C   UNL     1      49.230   4.529  18.091  0.00  0.00    +0.000 A 
ATOM     18  C   UNL     1      48.376   3.425  18.106  0.00  0.00    +0.000 A 
ATOM     19  C   UNL     1      47.423   3.260  17.098  0.00  0.00    +0.000 A 
ATOM     20  C   UNL     1      47.319   4.199  16.070  0.00  0.00    +0.000 A 
ATOM     21  C   UNL     1      48.170   5.307  16.063  0.00  0.00    +0.000 A 
ATOM     22  C   UNL     1      49.123   5.476  17.068  0.00  0.00    +0.000 A 
BRANCH  17  24
ATOM     23  N   UNL     1      51.008   4.825  19.958  0.00  0.00    +0.000 NA
ATOM     24  C   UNL     1      50.211   4.690  19.115  0.00  0.00    +0.000 C 
ENDBRANCH  17  24
ENDBRANCH  16  20
ENDBRANCH  15  16
ENDBRANCH   1  15
TORSDOF 7
ENDMDL
MODEL 5
REMARK VINA RESULT:    -6.843      3.351      7.218
REMARK INTER + INTRA:         -10.463
REMARK INTER:                  -9.609
REMARK INTRA:                  -0.854
REMARK UNBOUND:                -0.820
REMARK  Name = 
REMARK  7 active torsions:
REMARK  status: ('A' for Active; 'I' for Inactive)
REMARK    1  A    between atoms: C_2  and  C_3
REMARK    2  A    between atoms: C_6  and  O_7
REMARK    3  A    between atoms: O_7  and  C_8
REMARK    4  A    between atoms: C_8  and  C_9
REMARK    5  A    between atoms: C_9  and  C_12
REMARK    6  A    between atoms: C_16  and  C_17
REMARK    7  A    between atoms: C_17  and  C_18
REMARK                            x       y       z     vdW  Elec       q    Type
REMARK                         _______ _______ _______ _____ _____    ______ ____
ROOT
ATOM      1  C   UNL     1      45.708   6.007  11.959  0.00  0.00    +0.000 C 
ATOM      2  F   UNL     1      44.906   6.916  12.592  0.00  0.00    +0.000 F 
ATOM      3  F   UNL     1      46.138   6.636  10.821  0.00  0.00    +0.000 F 
ENDROOT
BRANCH   1   4
ATOM      4  C   UNL     1      44.936   4.740  11.620  0.00  0.00    +0.000 A 
ATOM      5  C   UNL     1      44.096   4.210  12.577  0.00  0.00    +0.000 A 
ATOM      6  C   UNL     1      43.385   3.096  12.199  0.00  0.00    +0.000 A 
ATOM      7  N   UNL     1      43.497   2.515  10.984  0.00  0.00    +0.000 NA
ATOM      8  C   UNL     1      44.372   3.061  10.124  0.00  0.00    +0.000 A 
ATOM      9  N   UNL     1      45.086   4.172  10.389  0.00  0.00    +0.000 NA
BRANCH   8  10
ATOM     10  C   UNL     1      44.581   2.413   8.770  0.00  0.00    +0.000 C 
BRANCH  10  11
ATOM     11  C   UNL     1      46.005   2.575   8.240  0.00  0.00    +0.000 C 
ATOM     12  C   UNL     1      46.268   3.305   6.897  0.00  0.00    +0.000 C 
ATOM     13  C   UNL     1      47.370   2.273   6.589  0.00  0.00    +0.000 C 
ATOM     14  C   UNL     1      46.738   1.333   7.633  0.00  0.00    +0.000 C 
ENDBRANCH  10  11
ENDBRANCH   8  10
ENDBRANCH   1   4
BRANCH   1  15
ATOM     15  C   UNL     1      46.921   5.714  12.847  0.00  0.00    +0.000 C 
BRANCH  15  16
ATOM     16  O   UNL     1      47.312   6.891  13.568  0.00  0.00    +0.000 OA
BRANCH  16  20
ATOM     17  C   UNL     1      49.933   9.388  11.511  0.00  0.00    +0.000 A 
ATOM     18  C   UNL     1      48.710   9.913  11.931  0.00  0.00    +0.000 A 
ATOM     19  C   UNL     1      47.799   9.109  12.622  0.00  0.00    +0.000 A 
ATOM     20  C   UNL     1      48.108   7.776  12.897  0.00  0.00    +0.000 A 
ATOM     21  C   UNL     1      49.330   7.251  12.468  0.00  0.00    +0.000 A 
ATOM     22  C   UNL     1      50.242   8.050  11.777  0.00  0.00    +0.000 A 
BRANCH  17  24
ATOM     23  N   UNL     1      51.635  10.881  10.244  0.00  0.00    +0.000 NA
ATOM     24  C   UNL     1      50.866  10.212  10.815  0.00  0.00    +0.000 C 
ENDBRANCH  17  24
ENDBRANCH  16  20
ENDBRANCH  15  16
ENDBRANCH   1  15
TORSDOF 7
ENDMDL
MODEL 6
REMARK VINA RESULT:    -6.766      3.616      7.036
REMARK INTER + INTRA:         -10.355
REMARK INTER:                  -9.787
REMARK INTRA:                  -0.568
REMARK UNBOUND:                -0.820
REMARK  Name = 
REMARK  7 active torsions:
REMARK  status: ('A' for Active; 'I' for Inactive)
REMARK    1  A    between atoms: C_2  and  C_3
REMARK    2  A    between atoms: C_6  and  O_7
REMARK    3  A    between atoms: O_7  and  C_8
REMARK    4  A    between atoms: C_8  and  C_9
REMARK    5  A    between atoms: C_9  and  C_12
REMARK    6  A    between atoms: C_16  and  C_17
REMARK    7  A    between atoms: C_17  and  C_18
REMARK                            x       y       z     vdW  Elec       q    Type
REMARK                         _______ _______ _______ _____ _____    ______ ____
ROOT
ATOM      1  C   UNL     1      43.150   5.504  12.033  0.00  0.00    +0.000 C 
ATOM      2  F   UNL     1      43.128   5.104  13.341  0.00  0.00    +0.000 F 
ATOM      3  F   UNL     1      41.845   5.771  11.716  0.00  0.00    +0.000 F 
ENDROOT
BRANCH   1   4
ATOM      4  C   UNL     1      43.715   4.412  11.137  0.00  0.00    +0.000 A 
ATOM      5  C   UNL     1      43.431   3.098  11.447  0.00  0.00    +0.000 A 
ATOM      6  C   UNL     1      43.924   2.157  10.575  0.00  0.00    +0.000 A 
ATOM      7  N   UNL     1      44.665   2.462   9.486  0.00  0.00    +0.000 NA
ATOM      8  C   UNL     1      44.940   3.761   9.279  0.00  0.00    +0.000 A 
ATOM      9  N   UNL     1      44.472   4.757  10.055  0.00  0.00    +0.000 NA
BRANCH   8  10
ATOM     10  C   UNL     1      45.817   4.153   8.107  0.00  0.00    +0.000 C 
BRANCH  10  11
ATOM     11  C   UNL     1      46.102   2.991   7.156  0.00  0.00    +0.000 C 
ATOM     12  C   UNL     1      47.197   1.946   7.496  0.00  0.00    +0.000 C 
ATOM     13  C   UNL     1      47.584   1.913   6.005  0.00  0.00    +0.000 C 
ATOM     14  C   UNL     1      46.874   3.269   5.824  0.00  0.00    +0.000 C 
ENDBRANCH  10  11
ENDBRANCH   8  10
ENDBRANCH   1   4
BRANCH   1  15
ATOM     15  C   UNL     1      43.956   6.802  11.927  0.00  0.00    +0.000 C 
BRANCH  15  16
ATOM     16  O   UNL     1      45.041   6.799  12.866  0.00  0.00    +0.000 OA
BRANCH  16  20
ATOM     17  C   UNL     1      48.464   8.929  11.828  0.00  0.00    +0.000 A 
ATOM     18  C   UNL     1      47.377   9.634  12.346  0.00  0.00    +0.000 A 
ATOM     19  C   UNL     1      46.207   8.960  12.704  0.00  0.00    +0.000 A 
ATOM     20  C   UNL     1      46.120   7.575  12.547  0.00  0.00    +0.000 A 
ATOM     21  C   UNL     1      47.207   6.873  12.022  0.00  0.00    +0.000 A 
ATOM     22  C   UNL     1      48.377   7.543  11.662  0.00  0.00    +0.000 A 
BRANCH  17  24
ATOM     23  N   UNL     1      50.647  10.175  11.183  0.00  0.00    +0.000 NA
ATOM     24  C   UNL     1      49.662   9.617  11.473  0.00  0.00    +0.000 C 
ENDBRANCH  17  24
ENDBRANCH  16  20
ENDBRANCH  15  16
ENDBRANCH   1  15
TORSDOF 7
ENDMDL
MODEL 7
REMARK VINA RESULT:    -5.863      3.747      8.216
REMARK INTER + INTRA:          -9.082
REMARK INTER:                  -8.491
REMARK INTRA:                  -0.591
REMARK UNBOUND:                -0.820
REMARK  Name = 
REMARK  7 active torsions:
REMARK  status: ('A' for Active; 'I' for Inactive)
REMARK    1  A    between atoms: C_2  and  C_3
REMARK    2  A    between atoms: C_6  and  O_7
REMARK    3  A    between atoms: O_7  and  C_8
REMARK    4  A    between atoms: C_8  and  C_9
REMARK    5  A    between atoms: C_9  and  C_12
REMARK    6  A    between atoms: C_16  and  C_17
REMARK    7  A    between atoms: C_17  and  C_18
REMARK                            x       y       z     vdW  Elec       q    Type
REMARK                         _______ _______ _______ _____ _____    ______ ____
ROOT
ATOM      1  C   UNL     1      46.653   6.343  12.123  0.00  0.00    +0.000 C 
ATOM      2  F   UNL     1      45.859   7.404  12.462  0.00  0.00    +0.000 F 
ATOM      3  F   UNL     1      47.496   6.817  11.154  0.00  0.00    +0.000 F 
ENDROOT
BRANCH   1   4
ATOM      4  C   UNL     1      45.819   5.183  11.598  0.00  0.00    +0.000 A 
ATOM      5  C   UNL     1      45.430   4.201  12.486  0.00  0.00    +0.000 A 
ATOM      6  C   UNL     1      44.636   3.206  11.968  0.00  0.00    +0.000 A 
ATOM      7  N   UNL     1      44.262   3.147  10.670  0.00  0.00    +0.000 NA
ATOM      8  C   UNL     1      44.722   4.113   9.858  0.00  0.00    +0.000 A 
ATOM      9  N   UNL     1      45.474   5.148  10.278  0.00  0.00    +0.000 NA
BRANCH   8  10
ATOM     10  C   UNL     1      44.383   4.061   8.382  0.00  0.00    +0.000 C 
BRANCH  10  11
ATOM     11  C   UNL     1      45.258   3.083   7.599  0.00  0.00    +0.000 C 
ATOM     12  C   UNL     1      46.014   1.943   8.330  0.00  0.00    +0.000 C 
ATOM     13  C   UNL     1      47.207   2.168   7.381  0.00  0.00    +0.000 C 
ATOM     14  C   UNL     1      46.644   3.565   7.058  0.00  0.00    +0.000 C 
ENDBRANCH  10  11
ENDBRANCH   8  10
ENDBRANCH   1   4
BRANCH   1  15
ATOM     15  C   UNL     1      47.485   5.938  13.344  0.00  0.00    +0.000 C 
BRANCH  15  16
ATOM     16  O   UNL     1      48.872   6.236  13.128  0.00  0.00    +0.000 OA
BRANCH  16  20
ATOM     17  C   UNL     1      50.620   9.422  15.160  0.00  0.00    +0.000 A 
ATOM     18  C   UNL     1      49.705   8.622  15.846  0.00  0.00    +0.000 A 
ATOM     19  C   UNL     1      49.092   7.544  15.201  0.00  0.00    +0.000 A 
ATOM     20  C   UNL     1      49.393   7.261  13.867  0.00  0.00    +0.000 A 
ATOM     21  C   UNL     1      50.303   8.069  13.182  0.00  0.00    +0.000 A 
ATOM     22  C   UNL     1      50.917   9.147  13.821  0.00  0.00    +0.000 A 
BRANCH  17  24
ATOM     23  N   UNL     1      51.765  11.416  16.362  0.00  0.00    +0.000 NA
ATOM     24  C   UNL     1      51.253  10.516  15.822  0.00  0.00    +0.000 C 
ENDBRANCH  17  24
ENDBRANCH  16  20
ENDBRANCH  15  16
ENDBRANCH   1  15
TORSDOF 7
ENDMDL
MODEL 8
REMARK VINA RESULT:    -5.641      3.526      8.399
REMARK INTER + INTRA:          -8.770
REMARK INTER:                  -8.010
REMARK INTRA:                  -0.760
REMARK UNBOUND:                -0.820
REMARK  Name = 
REMARK  7 active torsions:
REMARK  status: ('A' for Active; 'I' for Inactive)
REMARK    1  A    between atoms: C_2  and  C_3
REMARK    2  A    between atoms: C_6  and  O_7
REMARK    3  A    between atoms: O_7  and  C_8
REMARK    4  A    between atoms: C_8  and  C_9
REMARK    5  A    between atoms: C_9  and  C_12
REMARK    6  A    between atoms: C_16  and  C_17
REMARK    7  A    between atoms: C_17  and  C_18
REMARK                            x       y       z     vdW  Elec       q    Type
REMARK                         _______ _______ _______ _____ _____    ______ ____
ROOT
ATOM      1  C   UNL     1      47.673   7.268  12.243  0.00  0.00    +0.000 C 
ATOM      2  F   UNL     1      46.950   8.411  12.443  0.00  0.00    +0.000 F 
ATOM      3  F   UNL     1      48.261   7.423  11.017  0.00  0.00    +0.000 F 
ENDROOT
BRANCH   1   4
ATOM      4  C   UNL     1      46.771   6.042  12.263  0.00  0.00    +0.000 A 
ATOM      5  C   UNL     1      47.020   5.061  13.202  0.00  0.00    +0.000 A 
ATOM      6  C   UNL     1      46.144   4.003  13.207  0.00  0.00    +0.000 A 
ATOM      7  N   UNL     1      45.109   3.883  12.345  0.00  0.00    +0.000 NA
ATOM      8  C   UNL     1      44.963   4.854  11.429  0.00  0.00    +0.000 A 
ATOM      9  N   UNL     1      45.747   5.948  11.367  0.00  0.00    +0.000 NA
BRANCH   8  10
ATOM     10  C   UNL     1      43.857   4.739  10.400  0.00  0.00    +0.000 C 
BRANCH  10  11
ATOM     11  C   UNL     1      44.289   4.000   9.134  0.00  0.00    +0.000 C 
ATOM     12  C   UNL     1      44.750   2.521   9.203  0.00  0.00    +0.000 C 
ATOM     13  C   UNL     1      45.825   2.840   8.147  0.00  0.00    +0.000 C 
ATOM     14  C   UNL     1      45.676   4.334   8.493  0.00  0.00    +0.000 C 
ENDBRANCH  10  11
ENDBRANCH   8  10
ENDBRANCH   1   4
BRANCH   1  15
ATOM     15  C   UNL     1      48.770   7.184  13.308  0.00  0.00    +0.000 C 
BRANCH  15  16
ATOM     16  O   UNL     1      48.719   8.327  14.174  0.00  0.00    +0.000 OA
BRANCH  16  20
ATOM     17  C   UNL     1      48.473   7.272  18.194  0.00  0.00    +0.000 A 
ATOM     18  C   UNL     1      48.197   8.593  17.838  0.00  0.00    +0.000 A 
ATOM     19  C   UNL     1      48.271   8.991  16.501  0.00  0.00    +0.000 A 
ATOM     20  C   UNL     1      48.620   8.069  15.512  0.00  0.00    +0.000 A 
ATOM     21  C   UNL     1      48.903   6.749  15.873  0.00  0.00    +0.000 A 
ATOM     22  C   UNL     1      48.832   6.347  17.208  0.00  0.00    +0.000 A 
BRANCH  17  24
ATOM     23  N   UNL     1      48.310   6.526  20.674  0.00  0.00    +0.000 NA
ATOM     24  C   UNL     1      48.387   6.864  19.558  0.00  0.00    +0.000 C 
ENDBRANCH  17  24
ENDBRANCH  16  20
ENDBRANCH  15  16
ENDBRANCH   1  15
TORSDOF 7
ENDMDL
MODEL 9
REMARK VINA RESULT:    -5.566      4.097      5.792
REMARK INTER + INTRA:          -8.664
REMARK INTER:                  -7.785
REMARK INTRA:                  -0.879
REMARK UNBOUND:                -0.820
REMARK  Name = 
REMARK  7 active torsions:
REMARK  status: ('A' for Active; 'I' for Inactive)
REMARK    1  A    between atoms: C_2  and  C_3
REMARK    2  A    between atoms: C_6  and  O_7
REMARK    3  A    between atoms: O_7  and  C_8
REMARK    4  A    between atoms: C_8  and  C_9
REMARK    5  A    between atoms: C_9  and  C_12
REMARK    6  A    between atoms: C_16  and  C_17
REMARK    7  A    between atoms: C_17  and  C_18
REMARK                            x       y       z     vdW  Elec       q    Type
REMARK                         _______ _______ _______ _____ _____    ______ ____
ROOT
ATOM      1  C   UNL     1      49.830   7.778  15.101  0.00  0.00    +0.000 C 
ATOM      2  F   UNL     1      50.721   7.678  14.069  0.00  0.00    +0.000 F 
ATOM      3  F   UNL     1      49.679   9.121  15.320  0.00  0.00    +0.000 F 
ENDROOT
BRANCH   1   4
ATOM      4  C   UNL     1      50.356   7.080  16.347  0.00  0.00    +0.000 A 
ATOM      5  C   UNL     1      50.848   7.858  17.375  0.00  0.00    +0.000 A 
ATOM      6  C   UNL     1      51.262   7.178  18.495  0.00  0.00    +0.000 A 
ATOM      7  N   UNL     1      51.228   5.831  18.607  0.00  0.00    +0.000 NA
ATOM      8  C   UNL     1      50.781   5.141  17.545  0.00  0.00    +0.000 A 
ATOM      9  N   UNL     1      50.320   5.718  16.419  0.00  0.00    +0.000 NA
BRANCH   8  10
ATOM     10  C   UNL     1      50.779   3.627  17.596  0.00  0.00    +0.000 C 
BRANCH  10  11
ATOM     11  C   UNL     1      49.389   3.036  17.833  0.00  0.00    +0.000 C 
ATOM     12  C   UNL     1      48.499   2.610  16.636  0.00  0.00    +0.000 C 
ATOM     13  C   UNL     1      47.273   3.148  17.397  0.00  0.00    +0.000 C 
ATOM     14  C   UNL     1      48.225   3.982  18.276  0.00  0.00    +0.000 C 
ENDBRANCH  10  11
ENDBRANCH   8  10
ENDBRANCH   1   4
BRANCH   1  15
ATOM     15  C   UNL     1      48.485   7.199  14.650  0.00  0.00    +0.000 C 
BRANCH  15  16
ATOM     16  O   UNL     1      48.651   6.401  13.470  0.00  0.00    +0.000 OA
BRANCH  16  20
ATOM     17  C   UNL     1      45.239   4.442  12.106  0.00  0.00    +0.000 A 
ATOM     18  C   UNL     1      45.625   5.623  11.469  0.00  0.00    +0.000 A 
ATOM     19  C   UNL     1      46.761   6.315  11.896  0.00  0.00    +0.000 A 
ATOM     20  C   UNL     1      47.519   5.827  12.963  0.00  0.00    +0.000 A 
ATOM     21  C   UNL     1      47.126   4.649  13.603  0.00  0.00    +0.000 A 
ATOM     22  C   UNL     1      45.991   3.956  13.181  0.00  0.00    +0.000 A 
BRANCH  17  24
ATOM     23  N   UNL     1      43.144   3.146  11.293  0.00  0.00    +0.000 NA
ATOM     24  C   UNL     1      44.085   3.732  11.662  0.00  0.00    +0.000 C 
ENDBRANCH  17  24
ENDBRANCH  16  20
ENDBRANCH  15  16
ENDBRANCH   1  15
TORSDOF 7
ENDMDL
