MODEL 1
REMARK VINA RESULT:    -7.738      0.000      0.000
REMARK INTER + INTRA:         -11.086
REMARK INTER:                 -10.000
REMARK INTRA:                  -1.087
REMARK UNBOUND:                -1.087
REMARK  Name = 
REMARK  6 active torsions:
REMARK  status: ('A' for Active; 'I' for Inactive)
REMARK    1  A    between atoms: C_1  and  C_2
REMARK    2  A    between atoms: C_7  and  C_8
REMARK    3  A    between atoms: C_8  and  C_9
REMARK    4  A    between atoms: C_12  and  C_13
REMARK    5  A    between atoms: C_13  and  N_14
REMARK    6  A    between atoms: C_15  and  C_17
REMARK                            x       y       z     vdW  Elec       q    Type
REMARK                         _______ _______ _______ _____ _____    ______ ____
ROOT
ATOM      1  C   UNL     1      47.623   8.606  13.883  0.00  0.00    +0.000 C 
ENDROOT
BRANCH   1   5
ATOM      2  C   UNL     1      45.034   6.501  11.221  0.00  0.00    +0.000 A 
ATOM      3  C   UNL     1      46.329   6.020  11.409  0.00  0.00    +0.000 A 
ATOM      4  C   UNL     1      47.209   6.729  12.231  0.00  0.00    +0.000 A 
ATOM      5  C   UNL     1      46.780   7.894  12.867  0.00  0.00    +0.000 A 
ATOM      6  C   UNL     1      45.502   8.343  12.559  0.00  0.00    +0.000 A 
ATOM      7  N   UNL     1      44.626   7.679  11.765  0.00  0.00    +0.000 NA
BRANCH   2   8
ATOM      8  C   UNL     1      43.954   5.638  10.603  0.00  0.00    +0.000 C 
BRANCH   8  15
ATOM      9  C   UNL     1      43.400   2.772  11.502  0.00  0.00    +0.000 C 
ATOM     10  C   UNL     1      44.161   3.108  10.253  0.00  0.00    +0.000 A 
ATOM     11  C   UNL     1      44.738   2.064   9.514  0.00  0.00    +0.000 A 
ATOM     12  C   UNL     1      45.482   2.337   8.374  0.00  0.00    +0.000 A 
ATOM     13  C   UNL     1      45.634   3.656   8.003  0.00  0.00    +0.000 A 
ATOM     14  N   UNL     1      45.116   4.693   8.694  0.00  0.00    +0.000 NA
ATOM     15  C   UNL     1      44.394   4.422   9.820  0.00  0.00    +0.000 A 
ENDBRANCH   8  15
ENDBRANCH   2   8
ENDBRANCH   1   5
BRANCH   1  16
ATOM     16  N   UNL     1      47.900   7.805  15.048  0.00  0.00    +0.000 N 
ATOM     17  C   UNL     1      49.105   7.155  15.170  0.00  0.00    +0.000 C 
ATOM     18  O   UNL     1      50.001   7.292  14.340  0.00  0.00    +0.000 OA
ATOM     19  H   UNL     1      47.109   7.495  15.606  0.00  0.00    +0.000 HD
BRANCH  17  20
ATOM     20  C   UNL     1      49.295   6.323  16.364  0.00  0.00    +0.000 A 
ATOM     21  C   UNL     1      50.289   6.648  17.278  0.00  0.00    +0.000 A 
ATOM     22  S   UNL     1      50.349   5.602  18.622  0.00  0.00    +0.000 S 
ATOM     23  C   UNL     1      49.083   4.648  18.006  0.00  0.00    +0.000 A 
ATOM     24  N   UNL     1      48.650   3.544  18.672  0.00  0.00    +0.000 NA
ATOM     25  C   UNL     1      47.707   2.897  18.075  0.00  0.00    +0.000 A 
ATOM     26  N   UNL     1      47.150   3.256  16.875  0.00  0.00    +0.000 N 
ATOM     27  C   UNL     1      47.531   4.381  16.182  0.00  0.00    +0.000 A 
ATOM     28  O   UNL     1      46.981   4.707  15.135  0.00  0.00    +0.000 OA
ATOM     29  C   UNL     1      48.603   5.136  16.803  0.00  0.00    +0.000 A 
ATOM     30  H   UNL     1      46.406   2.713  16.466  0.00  0.00    +0.000 HD
ENDBRANCH  17  20
ENDBRANCH   1  16
TORSDOF 5
ENDMDL
MODEL 2
REMARK VINA RESULT:    -7.098      2.835      7.877
REMARK INTER + INTRA:         -10.259
REMARK INTER:                  -9.150
REMARK INTRA:                  -1.109
REMARK UNBOUND:                -1.087
REMARK  Name = 
REMARK  6 active torsions:
REMARK  status: ('A' for Active; 'I' for Inactive)
REMARK    1  A    between atoms: C_1  and  C_2
REMARK    2  A    between atoms: C_7  and  C_8
REMARK    3  A    between atoms: C_8  and  C_9
REMARK    4  A    between atoms: C_12  and  C_13
REMARK    5  A    between atoms: C_13  and  N_14
REMARK    6  A    between atoms: C_15  and  C_17
REMARK                            x       y       z     vdW  Elec       q    Type
REMARK                         _______ _______ _______ _____ _____    ______ ____
ROOT
ATOM      1  C   UNL     1      47.236   7.922  11.884  0.00  0.00    +0.000 C 
ENDROOT
BRANCH   1   5
ATOM      2  C   UNL     1      49.268   7.663  15.629  0.00  0.00    +0.000 A 
ATOM      3  C   UNL     1      48.340   8.686  15.445  0.00  0.00    +0.000 A 
ATOM      4  C   UNL     1      47.707   8.822  14.206  0.00  0.00    +0.000 A 
ATOM      5  C   UNL     1      47.997   7.926  13.177  0.00  0.00    +0.000 A 
ATOM      6  C   UNL     1      48.993   6.990  13.421  0.00  0.00    +0.000 A 
ATOM      7  N   UNL     1      49.625   6.834  14.611  0.00  0.00    +0.000 NA
BRANCH   2   8
ATOM      8  C   UNL     1      49.752   7.276  17.010  0.00  0.00    +0.000 C 
BRANCH   8  15
ATOM      9  C   UNL     1      52.021   5.247  17.274  0.00  0.00    +0.000 C 
ATOM     10  C   UNL     1      50.583   4.910  17.541  0.00  0.00    +0.000 A 
ATOM     11  C   UNL     1      50.246   3.578  17.823  0.00  0.00    +0.000 A 
ATOM     12  C   UNL     1      48.921   3.219  18.037  0.00  0.00    +0.000 A 
ATOM     13  C   UNL     1      47.964   4.208  17.958  0.00  0.00    +0.000 A 
ATOM     14  N   UNL     1      48.240   5.496  17.669  0.00  0.00    +0.000 NA
ATOM     15  C   UNL     1      49.540   5.844  17.449  0.00  0.00    +0.000 A 
ENDBRANCH   8  15
ENDBRANCH   2   8
ENDBRANCH   1   5
BRANCH   1  16
ATOM     16  N   UNL     1      46.636   6.647  11.586  0.00  0.00    +0.000 N 
ATOM     17  C   UNL     1      45.270   6.496  11.638  0.00  0.00    +0.000 C 
ATOM     18  O   UNL     1      44.522   7.445  11.864  0.00  0.00    +0.000 OA
ATOM     19  H   UNL     1      47.229   5.824  11.635  0.00  0.00    +0.000 HD
BRANCH  17  20
ATOM     20  C   UNL     1      44.738   5.156  11.365  0.00  0.00    +0.000 A 
ATOM     21  C   UNL     1      43.977   4.509  12.328  0.00  0.00    +0.000 A 
ATOM     22  S   UNL     1      43.407   2.980  11.835  0.00  0.00    +0.000 S 
ATOM     23  C   UNL     1      44.200   3.107  10.337  0.00  0.00    +0.000 A 
ATOM     24  N   UNL     1      44.143   2.098   9.426  0.00  0.00    +0.000 NA
ATOM     25  C   UNL     1      44.815   2.314   8.347  0.00  0.00    +0.000 A 
ATOM     26  N   UNL     1      45.535   3.452   8.089  0.00  0.00    +0.000 N 
ATOM     27  C   UNL     1      45.595   4.512   8.963  0.00  0.00    +0.000 A 
ATOM     28  O   UNL     1      46.205   5.539   8.686  0.00  0.00    +0.000 OA
ATOM     29  C   UNL     1      44.869   4.311  10.203  0.00  0.00    +0.000 A 
ATOM     30  H   UNL     1      46.031   3.565   7.219  0.00  0.00    +0.000 HD
ENDBRANCH  17  20
ENDBRANCH   1  16
TORSDOF 5
ENDMDL
MODEL 3
REMARK VINA RESULT:    -7.064      3.917      8.975
REMARK INTER + INTRA:         -10.215
REMARK INTER:                  -9.746
REMARK INTRA:                  -0.469
REMARK UNBOUND:                -1.087
REMARK  Name = 
REMARK  6 active torsions:
REMARK  status: ('A' for Active; 'I' for Inactive)
REMARK    1  A    between atoms: C_1  and  C_2
REMARK    2  A    between atoms: C_7  and  C_8
REMARK    3  A    between atoms: C_8  and  C_9
REMARK    4  A    between atoms: C_12  and  C_13
REMARK    5  A    between atoms: C_13  and  N_14
REMARK    6  A    between atoms: C_15  and  C_17
REMARK                            x       y       z     vdW  Elec       q    Type
REMARK                         _______ _______ _______ _____ _____    ______ ____
ROOT
ATOM      1  C   UNL     1      47.235   3.411  16.824  0.00  0.00    +0.000 C 
ENDROOT
BRANCH   1   5
ATOM      2  C   UNL     1      51.366   3.483  17.899  0.00  0.00    +0.000 A 
ATOM      3  C   UNL     1      50.641   4.672  17.964  0.00  0.00    +0.000 A 
ATOM      4  C   UNL     1      49.303   4.679  17.560  0.00  0.00    +0.000 A 
ATOM      5  C   UNL     1      48.704   3.500  17.116  0.00  0.00    +0.000 A 
ATOM      6  C   UNL     1      49.522   2.383  17.008  0.00  0.00    +0.000 A 
ATOM      7  N   UNL     1      50.823   2.345  17.390  0.00  0.00    +0.000 NA
BRANCH   2   8
ATOM      8  C   UNL     1      52.702   3.335  18.596  0.00  0.00    +0.000 C 
BRANCH   8  15
ATOM      9  C   UNL     1      55.229   3.819  16.950  0.00  0.00    +0.000 C 
ATOM     10  C   UNL     1      54.758   2.452  17.349  0.00  0.00    +0.000 A 
ATOM     11  C   UNL     1      55.449   1.333  16.858  0.00  0.00    +0.000 A 
ATOM     12  C   UNL     1      55.021   0.050  17.174  0.00  0.00    +0.000 A 
ATOM     13  C   UNL     1      53.906  -0.081  17.973  0.00  0.00    +0.000 A 
ATOM     14  N   UNL     1      53.199   0.965  18.450  0.00  0.00    +0.000 NA
ATOM     15  C   UNL     1      53.615   2.224  18.130  0.00  0.00    +0.000 A 
ENDBRANCH   8  15
ENDBRANCH   2   8
ENDBRANCH   1   5
BRANCH   1  16
ATOM     16  N   UNL     1      46.789   4.394  15.871  0.00  0.00    +0.000 N 
ATOM     17  C   UNL     1      46.870   4.138  14.523  0.00  0.00    +0.000 C 
ATOM     18  O   UNL     1      47.251   3.051  14.092  0.00  0.00    +0.000 OA
ATOM     19  H   UNL     1      46.704   5.355  16.190  0.00  0.00    +0.000 HD
BRANCH  17  20
ATOM     20  C   UNL     1      46.437   5.206  13.615  0.00  0.00    +0.000 A 
ATOM     21  C   UNL     1      47.291   6.266  13.343  0.00  0.00    +0.000 A 
ATOM     22  S   UNL     1      46.647   7.398  12.242  0.00  0.00    +0.000 S 
ATOM     23  C   UNL     1      45.185   6.537  12.129  0.00  0.00    +0.000 A 
ATOM     24  N   UNL     1      44.163   6.990  11.354  0.00  0.00    +0.000 NA
ATOM     25  C   UNL     1      43.103   6.257  11.386  0.00  0.00    +0.000 A 
ATOM     26  N   UNL     1      42.971   5.104  12.117  0.00  0.00    +0.000 N 
ATOM     27  C   UNL     1      43.985   4.589  12.888  0.00  0.00    +0.000 A 
ATOM     28  O   UNL     1      43.858   3.530  13.492  0.00  0.00    +0.000 OA
ATOM     29  C   UNL     1      45.197   5.387  12.900  0.00  0.00    +0.000 A 
ATOM     30  H   UNL     1      42.117   4.569  12.090  0.00  0.00    +0.000 HD
ENDBRANCH  17  20
ENDBRANCH   1  16
TORSDOF 5
ENDMDL
MODEL 4
REMARK VINA RESULT:    -6.933      1.927      2.276
REMARK INTER + INTRA:         -10.045
REMARK INTER:                  -9.074
REMARK INTRA:                  -0.971
REMARK UNBOUND:                -1.087
REMARK  Name = 
REMARK  6 active torsions:
REMARK  status: ('A' for Active; 'I' for Inactive)
REMARK    1  A    between atoms: C_1  and  C_2
REMARK    2  A    between atoms: C_7  and  C_8
REMARK    3  A    between atoms: C_8  and  C_9
REMARK    4  A    between atoms: C_12  and  C_13
REMARK    5  A    between atoms: C_13  and  N_14
REMARK    6  A    between atoms: C_15  and  C_17
REMARK                            x       y       z     vdW  Elec       q    Type
REMARK                         _______ _______ _______ _____ _____    ______ ____
ROOT
ATOM      1  C   UNL     1      48.003   8.322  14.192  0.00  0.00    +0.000 C 
ENDROOT
BRANCH   1   5
ATOM      2  C   UNL     1      45.331   6.451  11.438  0.00  0.00    +0.000 A 
ATOM      3  C   UNL     1      46.497   5.776  11.797  0.00  0.00    +0.000 A 
ATOM      4  C   UNL     1      47.411   6.398  12.652  0.00  0.00    +0.000 A 
ATOM      5  C   UNL     1      47.141   7.673  13.149  0.00  0.00    +0.000 A 
ATOM      6  C   UNL     1      45.998   8.302  12.676  0.00  0.00    +0.000 A 
ATOM      7  N   UNL     1      45.093   7.727  11.845  0.00  0.00    +0.000 NA
BRANCH   2   8
ATOM      8  C   UNL     1      44.175   5.732  10.777  0.00  0.00    +0.000 C 
BRANCH   8  15
ATOM      9  C   UNL     1      43.450   2.870  11.563  0.00  0.00    +0.000 C 
ATOM     10  C   UNL     1      44.188   3.213  10.302  0.00  0.00    +0.000 A 
ATOM     11  C   UNL     1      44.662   2.168   9.494  0.00  0.00    +0.000 A 
ATOM     12  C   UNL     1      45.382   2.445   8.339  0.00  0.00    +0.000 A 
ATOM     13  C   UNL     1      45.615   3.766   8.024  0.00  0.00    +0.000 A 
ATOM     14  N   UNL     1      45.197   4.802   8.782  0.00  0.00    +0.000 NA
ATOM     15  C   UNL     1      44.498   4.527   9.921  0.00  0.00    +0.000 A 
ENDBRANCH   8  15
ENDBRANCH   2   8
ENDBRANCH   1   5
BRANCH   1  16
ATOM     16  N   UNL     1      47.918   7.675  15.476  0.00  0.00    +0.000 N 
ATOM     17  C   UNL     1      48.922   6.835  15.895  0.00  0.00    +0.000 C 
ATOM     18  O   UNL     1      49.944   6.666  15.233  0.00  0.00    +0.000 OA
ATOM     19  H   UNL     1      47.003   7.612  15.913  0.00  0.00    +0.000 HD
BRANCH  17  20
ATOM     20  C   UNL     1      48.743   6.179  17.196  0.00  0.00    +0.000 A 
ATOM     21  C   UNL     1      48.995   4.819  17.321  0.00  0.00    +0.000 A 
ATOM     22  S   UNL     1      48.773   4.227  18.904  0.00  0.00    +0.000 S 
ATOM     23  C   UNL     1      48.283   5.754  19.466  0.00  0.00    +0.000 A 
ATOM     24  N   UNL     1      47.913   5.939  20.762  0.00  0.00    +0.000 NA
ATOM     25  C   UNL     1      47.534   7.139  21.043  0.00  0.00    +0.000 A 
ATOM     26  N   UNL     1      47.498   8.178  20.149  0.00  0.00    +0.000 N 
ATOM     27  C   UNL     1      47.894   8.049  18.839  0.00  0.00    +0.000 A 
ATOM     28  O   UNL     1      47.900   9.006  18.073  0.00  0.00    +0.000 OA
ATOM     29  C   UNL     1      48.313   6.711  18.466  0.00  0.00    +0.000 A 
ATOM     30  H   UNL     1      47.202   9.098  20.435  0.00  0.00    +0.000 HD
ENDBRANCH  17  20
ENDBRANCH   1  16
TORSDOF 5
ENDMDL
MODEL 5
REMARK VINA RESULT:    -6.923      3.002      7.420
REMARK INTER + INTRA:         -10.034
REMARK INTER:                  -9.035
REMARK INTRA:                  -0.998
REMARK UNBOUND:                -1.087
REMARK  Name = 
REMARK  6 active torsions:
REMARK  status: ('A' for Active; 'I' for Inactive)
REMARK    1  A    between atoms: C_1  and  C_2
REMARK    2  A    between atoms: C_7  and  C_8
REMARK    3  A    between atoms: C_8  and  C_9
REMARK    4  A    between atoms: C_12  and  C_13
REMARK    5  A    between atoms: C_13  and  N_14
REMARK    6  A    between atoms: C_15  and  C_17
REMARK                            x       y       z     vdW  Elec       q    Type
REMARK                         _______ _______ _______ _____ _____    ______ ____
ROOT
ATOM      1  C   UNL     1      47.950   8.706  14.078  0.00  0.00    +0.000 C 
ENDROOT
BRANCH   1   5
ATOM      2  C   UNL     1      49.725   6.569  17.320  0.00  0.00    +0.000 A 
ATOM      3  C   UNL     1      48.939   7.684  17.608  0.00  0.00    +0.000 A 
ATOM      4  C   UNL     1      48.398   8.430  16.558  0.00  0.00    +0.000 A 
ATOM      5  C   UNL     1      48.633   8.043  15.238  0.00  0.00    +0.000 A 
ATOM      6  C   UNL     1      49.492   6.970  15.042  0.00  0.00    +0.000 A 
ATOM      7  N   UNL     1      50.034   6.228  16.040  0.00  0.00    +0.000 NA
BRANCH   2   8
ATOM      8  C   UNL     1      50.080   5.557  18.388  0.00  0.00    +0.000 C 
BRANCH   8  15
ATOM      9  C   UNL     1      48.173   3.370  17.434  0.00  0.00    +0.000 C 
ATOM     10  C   UNL     1      49.659   3.182  17.522  0.00  0.00    +0.000 A 
ATOM     11  C   UNL     1      50.194   1.913  17.255  0.00  0.00    +0.000 A 
ATOM     12  C   UNL     1      51.561   1.689  17.363  0.00  0.00    +0.000 A 
ATOM     13  C   UNL     1      52.360   2.747  17.741  0.00  0.00    +0.000 A 
ATOM     14  N   UNL     1      51.887   3.978  18.028  0.00  0.00    +0.000 NA
ATOM     15  C   UNL     1      50.543   4.192  17.931  0.00  0.00    +0.000 A 
ENDBRANCH   8  15
ENDBRANCH   2   8
ENDBRANCH   1   5
BRANCH   1  16
ATOM     16  N   UNL     1      46.761   8.014  13.652  0.00  0.00    +0.000 N 
ATOM     17  C   UNL     1      46.789   7.213  12.535  0.00  0.00    +0.000 C 
ATOM     18  O   UNL     1      47.829   7.004  11.915  0.00  0.00    +0.000 OA
ATOM     19  H   UNL     1      45.868   8.356  13.997  0.00  0.00    +0.000 HD
BRANCH  17  20
ATOM     20  C   UNL     1      45.527   6.577  12.140  0.00  0.00    +0.000 A 
ATOM     21  C   UNL     1      44.518   7.344  11.573  0.00  0.00    +0.000 A 
ATOM     22  S   UNL     1      43.137   6.444  11.140  0.00  0.00    +0.000 S 
ATOM     23  C   UNL     1      43.818   5.007  11.741  0.00  0.00    +0.000 A 
ATOM     24  N   UNL     1      43.127   3.835  11.705  0.00  0.00    +0.000 NA
ATOM     25  C   UNL     1      43.751   2.832  12.223  0.00  0.00    +0.000 A 
ATOM     26  N   UNL     1      45.007   2.889  12.769  0.00  0.00    +0.000 N 
ATOM     27  C   UNL     1      45.757   4.041  12.798  0.00  0.00    +0.000 A 
ATOM     28  O   UNL     1      46.898   4.053  13.246  0.00  0.00    +0.000 OA
ATOM     29  C   UNL     1      45.093   5.205  12.242  0.00  0.00    +0.000 A 
ATOM     30  H   UNL     1      45.445   2.064  13.148  0.00  0.00    +0.000 HD
ENDBRANCH  17  20
ENDBRANCH   1  16
TORSDOF 5
ENDMDL
MODEL 6
REMARK VINA RESULT:    -6.885      3.209      4.372
REMARK INTER + INTRA:          -9.984
REMARK INTER:                  -8.984
REMARK INTRA:                  -1.000
REMARK UNBOUND:                -1.087
REMARK  Name = 
REMARK  6 active torsions:
REMARK  status: ('A' for Active; 'I' for Inactive)
REMARK    1  A    between atoms: C_1  and  C_2
REMARK    2  A    between atoms: C_7  and  C_8
REMARK    3  A    between atoms: C_8  and  C_9
REMARK    4  A    between atoms: C_12  and  C_13
REMARK    5  A    between atoms: C_13  and  N_14
REMARK    6  A    between atoms: C_15  and  C_17
REMARK                            x       y       z     vdW  Elec       q    Type
REMARK                         _______ _______ _______ _____ _____    ______ ____
ROOT
ATOM      1  C   UNL     1      49.573   6.553  16.716  0.00  0.00    +0.000 C 
ENDROOT
BRANCH   1   5
ATOM      2  C   UNL     1      46.823   4.602  14.098  0.00  0.00    +0.000 A 
ATOM      3  C   UNL     1      47.418   5.788  13.673  0.00  0.00    +0.000 A 
ATOM      4  C   UNL     1      48.277   6.472  14.539  0.00  0.00    +0.000 A 
ATOM      5  C   UNL     1      48.541   5.953  15.806  0.00  0.00    +0.000 A 
ATOM      6  C   UNL     1      47.843   4.811  16.176  0.00  0.00    +0.000 A 
ATOM      7  N   UNL     1      47.003   4.126  15.360  0.00  0.00    +0.000 NA
BRANCH   2   8
ATOM      8  C   UNL     1      46.141   3.668  13.121  0.00  0.00    +0.000 C 
BRANCH   8  15
ATOM      9  C   UNL     1      45.288   3.079  10.248  0.00  0.00    +0.000 C 
ATOM     10  C   UNL     1      44.443   3.861  11.211  0.00  0.00    +0.000 A 
ATOM     11  C   UNL     1      43.253   4.440  10.745  0.00  0.00    +0.000 A 
ATOM     12  C   UNL     1      42.464   5.203  11.596  0.00  0.00    +0.000 A 
ATOM     13  C   UNL     1      42.891   5.371  12.896  0.00  0.00    +0.000 A 
ATOM     14  N   UNL     1      44.038   4.851  13.381  0.00  0.00    +0.000 NA
ATOM     15  C   UNL     1      44.816   4.110  12.540  0.00  0.00    +0.000 A 
ENDBRANCH   8  15
ENDBRANCH   2   8
ENDBRANCH   1   5
BRANCH   1  16
ATOM     16  N   UNL     1      50.614   5.626  17.078  0.00  0.00    +0.000 N 
ATOM     17  C   UNL     1      50.711   5.166  18.370  0.00  0.00    +0.000 C 
ATOM     18  O   UNL     1      49.885   5.466  19.228  0.00  0.00    +0.000 OA
ATOM     19  H   UNL     1      51.422   5.560  16.465  0.00  0.00    +0.000 HD
BRANCH  17  20
ATOM     20  C   UNL     1      51.825   4.259  18.672  0.00  0.00    +0.000 A 
ATOM     21  C   UNL     1      52.862   4.690  19.488  0.00  0.00    +0.000 A 
ATOM     22  S   UNL     1      54.052   3.501  19.765  0.00  0.00    +0.000 S 
ATOM     23  C   UNL     1      53.250   2.386  18.763  0.00  0.00    +0.000 A 
ATOM     24  N   UNL     1      53.767   1.148  18.539  0.00  0.00    +0.000 NA
ATOM     25  C   UNL     1      53.072   0.418  17.735  0.00  0.00    +0.000 A 
ATOM     26  N   UNL     1      51.901   0.808  17.137  0.00  0.00    +0.000 N 
ATOM     27  C   UNL     1      51.323   2.036  17.358  0.00  0.00    +0.000 A 
ATOM     28  O   UNL     1      50.250   2.341  16.851  0.00  0.00    +0.000 OA
ATOM     29  C   UNL     1      52.076   2.904  18.244  0.00  0.00    +0.000 A 
ATOM     30  H   UNL     1      51.399   0.184  16.526  0.00  0.00    +0.000 HD
ENDBRANCH  17  20
ENDBRANCH   1  16
TORSDOF 5
ENDMDL
MODEL 7
REMARK VINA RESULT:    -6.863      3.363      8.563
REMARK INTER + INTRA:          -9.955
REMARK INTER:                  -9.023
REMARK INTRA:                  -0.933
REMARK UNBOUND:                -1.087
REMARK  Name = 
REMARK  6 active torsions:
REMARK  status: ('A' for Active; 'I' for Inactive)
REMARK    1  A    between atoms: C_1  and  C_2
REMARK    2  A    between atoms: C_7  and  C_8
REMARK    3  A    between atoms: C_8  and  C_9
REMARK    4  A    between atoms: C_12  and  C_13
REMARK    5  A    between atoms: C_13  and  N_14
REMARK    6  A    between atoms: C_15  and  C_17
REMARK                            x       y       z     vdW  Elec       q    Type
REMARK                         _______ _______ _______ _____ _____    ______ ____
ROOT
ATOM      1  C   UNL     1      47.471   3.435  16.508  0.00  0.00    +0.000 C 
ENDROOT
BRANCH   1   5
ATOM      2  C   UNL     1      51.106   5.068  18.037  0.00  0.00    +0.000 A 
ATOM      3  C   UNL     1      51.035   3.693  17.818  0.00  0.00    +0.000 A 
ATOM      4  C   UNL     1      49.835   3.133  17.373  0.00  0.00    +0.000 A 
ATOM      5  C   UNL     1      48.731   3.953  17.136  0.00  0.00    +0.000 A 
ATOM      6  C   UNL     1      48.866   5.297  17.459  0.00  0.00    +0.000 A 
ATOM      7  N   UNL     1      50.017   5.870  17.894  0.00  0.00    +0.000 NA
BRANCH   2   8
ATOM      8  C   UNL     1      52.435   5.770  18.220  0.00  0.00    +0.000 C 
BRANCH   8  15
ATOM      9  C   UNL     1      54.919   4.017  17.921  0.00  0.00    +0.000 C 
ATOM     10  C   UNL     1      54.516   5.049  16.908  0.00  0.00    +0.000 A 
ATOM     11  C   UNL     1      55.371   5.298  15.824  0.00  0.00    +0.000 A 
ATOM     12  C   UNL     1      55.051   6.272  14.887  0.00  0.00    +0.000 A 
ATOM     13  C   UNL     1      53.880   6.978  15.063  0.00  0.00    +0.000 A 
ATOM     14  N   UNL     1      53.039   6.787  16.101  0.00  0.00    +0.000 NA
ATOM     15  C   UNL     1      53.361   5.837  17.026  0.00  0.00    +0.000 A 
ENDBRANCH   8  15
ENDBRANCH   2   8
ENDBRANCH   1   5
BRANCH   1  16
ATOM     16  N   UNL     1      46.832   4.397  15.648  0.00  0.00    +0.000 N 
ATOM     17  C   UNL     1      46.754   4.172  14.294  0.00  0.00    +0.000 C 
ATOM     18  O   UNL     1      47.154   3.125  13.788  0.00  0.00    +0.000 OA
ATOM     19  H   UNL     1      46.719   5.343  16.001  0.00  0.00    +0.000 HD
BRANCH  17  20
ATOM     20  C   UNL     1      46.127   5.219  13.479  0.00  0.00    +0.000 A 
ATOM     21  C   UNL     1      46.795   6.418  13.268  0.00  0.00    +0.000 A 
ATOM     22  S   UNL     1      45.944   7.508  12.272  0.00  0.00    +0.000 S 
ATOM     23  C   UNL     1      44.631   6.437  12.129  0.00  0.00    +0.000 A 
ATOM     24  N   UNL     1      43.524   6.777  11.414  0.00  0.00    +0.000 NA
ATOM     25  C   UNL     1      42.594   5.884  11.416  0.00  0.00    +0.000 A 
ATOM     26  N   UNL     1      42.669   4.676  12.061  0.00  0.00    +0.000 N 
ATOM     27  C   UNL     1      43.778   4.275  12.767  0.00  0.00    +0.000 A 
ATOM     28  O   UNL     1      43.840   3.169  13.292  0.00  0.00    +0.000 OA
ATOM     29  C   UNL     1      44.850   5.252  12.811  0.00  0.00    +0.000 A 
ATOM     30  H   UNL     1      41.909   4.016  12.014  0.00  0.00    +0.000 HD
ENDBRANCH  17  20
ENDBRANCH   1  16
TORSDOF 5
ENDMDL
MODEL 8
REMARK VINA RESULT:    -6.800      2.629      4.445
REMARK INTER + INTRA:          -9.875
REMARK INTER:                  -8.834
REMARK INTRA:                  -1.040
REMARK UNBOUND:                -1.087
REMARK  Name = 
REMARK  6 active torsions:
REMARK  status: ('A' for Active; 'I' for Inactive)
REMARK    1  A    between atoms: C_1  and  C_2
REMARK    2  A    between atoms: C_7  and  C_8
REMARK    3  A    between atoms: C_8  and  C_9
REMARK    4  A    between atoms: C_12  and  C_13
REMARK    5  A    between atoms: C_13  and  N_14
REMARK    6  A    between atoms: C_15  and  C_17
REMARK                            x       y       z     vdW  Elec       q    Type
REMARK                         _______ _______ _______ _____ _____    ______ ____
ROOT
ATOM      1  C   UNL     1      45.420   6.078  13.277  0.00  0.00    +0.000 C 
ENDROOT
BRANCH   1   5
ATOM      2  C   UNL     1      45.167   4.038   9.536  0.00  0.00    +0.000 A 
ATOM      3  C   UNL     1      44.867   3.333  10.700  0.00  0.00    +0.000 A 
ATOM      4  C   UNL     1      45.000   3.967  11.938  0.00  0.00    +0.000 A 
ATOM      5  C   UNL     1      45.413   5.298  11.995  0.00  0.00    +0.000 A 
ATOM      6  C   UNL     1      45.768   5.898  10.794  0.00  0.00    +0.000 A 
ATOM      7  N   UNL     1      45.651   5.308   9.577  0.00  0.00    +0.000 NA
BRANCH   2   8
ATOM      8  C   UNL     1      44.757   3.522   8.173  0.00  0.00    +0.000 C 
BRANCH   8  15
ATOM      9  C   UNL     1      45.911   0.706   8.437  0.00  0.00    +0.000 C 
ATOM     10  C   UNL     1      46.392   1.698   7.419  0.00  0.00    +0.000 A 
ATOM     11  C   UNL     1      47.493   1.360   6.617  0.00  0.00    +0.000 A 
ATOM     12  C   UNL     1      47.991   2.265   5.690  0.00  0.00    +0.000 A 
ATOM     13  C   UNL     1      47.374   3.494   5.592  0.00  0.00    +0.000 A 
ATOM     14  N   UNL     1      46.327   3.870   6.356  0.00  0.00    +0.000 NA
ATOM     15  C   UNL     1      45.846   2.982   7.273  0.00  0.00    +0.000 A 
ENDBRANCH   8  15
ENDBRANCH   2   8
ENDBRANCH   1   5
BRANCH   1  16
ATOM     16  N   UNL     1      46.665   6.763  13.514  0.00  0.00    +0.000 N 
ATOM     17  C   UNL     1      47.706   6.112  14.130  0.00  0.00    +0.000 C 
ATOM     18  O   UNL     1      47.640   4.922  14.429  0.00  0.00    +0.000 OA
ATOM     19  H   UNL     1      46.654   7.779  13.496  0.00  0.00    +0.000 HD
BRANCH  17  20
ATOM     20  C   UNL     1      48.926   6.891  14.376  0.00  0.00    +0.000 A 
ATOM     21  C   UNL     1      49.458   6.951  15.657  0.00  0.00    +0.000 A 
ATOM     22  S   UNL     1      50.893   7.865  15.760  0.00  0.00    +0.000 S 
ATOM     23  C   UNL     1      50.826   8.256  14.107  0.00  0.00    +0.000 A 
ATOM     24  N   UNL     1      51.767   9.058  13.538  0.00  0.00    +0.000 NA
ATOM     25  C   UNL     1      51.576   9.297  12.285  0.00  0.00    +0.000 A 
ATOM     26  N   UNL     1      50.535   8.803  11.543  0.00  0.00    +0.000 N 
ATOM     27  C   UNL     1      49.580   7.963  12.065  0.00  0.00    +0.000 A 
ATOM     28  O   UNL     1      48.687   7.493  11.367  0.00  0.00    +0.000 OA
ATOM     29  C   UNL     1      49.738   7.675  13.478  0.00  0.00    +0.000 A 
ATOM     30  H   UNL     1      50.449   9.018  10.562  0.00  0.00    +0.000 HD
ENDBRANCH  17  20
ENDBRANCH   1  16
TORSDOF 5
ENDMDL
MODEL 9
REMARK VINA RESULT:    -6.684      3.551      8.168
REMARK INTER + INTRA:          -9.725
REMARK INTER:                  -8.967
REMARK INTRA:                  -0.758
REMARK UNBOUND:                -1.087
REMARK  Name = 
REMARK  6 active torsions:
REMARK  status: ('A' for Active; 'I' for Inactive)
REMARK    1  A    between atoms: C_1  and  C_2
REMARK    2  A    between atoms: C_7  and  C_8
REMARK    3  A    between atoms: C_8  and  C_9
REMARK    4  A    between atoms: C_12  and  C_13
REMARK    5  A    between atoms: C_13  and  N_14
REMARK    6  A    between atoms: C_15  and  C_17
REMARK                            x       y       z     vdW  Elec       q    Type
REMARK                         _______ _______ _______ _____ _____    ______ ____
ROOT
ATOM      1  C   UNL     1      49.077   7.917  15.422  0.00  0.00    +0.000 C 
ENDROOT
BRANCH   1   5
ATOM      2  C   UNL     1      51.040   4.878  17.687  0.00  0.00    +0.000 A 
ATOM      3  C   UNL     1      51.819   5.751  16.929  0.00  0.00    +0.000 A 
ATOM      4  C   UNL     1      51.191   6.715  16.136  0.00  0.00    +0.000 A 
ATOM      5  C   UNL     1      49.799   6.805  16.124  0.00  0.00    +0.000 A 
ATOM      6  C   UNL     1      49.101   5.845  16.845  0.00  0.00    +0.000 A 
ATOM      7  N   UNL     1      49.681   4.896  17.622  0.00  0.00    +0.000 NA
BRANCH   2   8
ATOM      8  C   UNL     1      51.647   4.029  18.784  0.00  0.00    +0.000 C 
BRANCH   8  15
ATOM      9  C   UNL     1      50.949   1.533  17.166  0.00  0.00    +0.000 C 
ATOM     10  C   UNL     1      52.334   1.830  17.661  0.00  0.00    +0.000 A 
ATOM     11  C   UNL     1      53.339   0.870  17.465  0.00  0.00    +0.000 A 
ATOM     12  C   UNL     1      54.624   1.092  17.942  0.00  0.00    +0.000 A 
ATOM     13  C   UNL     1      54.871   2.272  18.611  0.00  0.00    +0.000 A 
ATOM     14  N   UNL     1      53.931   3.213  18.840  0.00  0.00    +0.000 NA
ATOM     15  C   UNL     1      52.667   2.989  18.379  0.00  0.00    +0.000 A 
ENDBRANCH   8  15
ENDBRANCH   2   8
ENDBRANCH   1   5
BRANCH   1  16
ATOM     16  N   UNL     1      47.886   7.476  14.742  0.00  0.00    +0.000 N 
ATOM     17  C   UNL     1      47.978   6.850  13.521  0.00  0.00    +0.000 C 
ATOM     18  O   UNL     1      49.063   6.584  13.010  0.00  0.00    +0.000 OA
ATOM     19  H   UNL     1      47.002   7.890  15.023  0.00  0.00    +0.000 HD
BRANCH  17  20
ATOM     20  C   UNL     1      46.718   6.470  12.871  0.00  0.00    +0.000 A 
ATOM     21  C   UNL     1      45.922   7.447  12.289  0.00  0.00    +0.000 A 
ATOM     22  S   UNL     1      44.516   6.831  11.548  0.00  0.00    +0.000 S 
ATOM     23  C   UNL     1      44.896   5.244  12.023  0.00  0.00    +0.000 A 
ATOM     24  N   UNL     1      44.067   4.206  11.725  0.00  0.00    +0.000 NA
ATOM     25  C   UNL     1      44.461   3.063  12.174  0.00  0.00    +0.000 A 
ATOM     26  N   UNL     1      45.614   2.858  12.887  0.00  0.00    +0.000 N 
ATOM     27  C   UNL     1      46.499   3.868  13.183  0.00  0.00    +0.000 A 
ATOM     28  O   UNL     1      47.548   3.648  13.778  0.00  0.00    +0.000 OA
ATOM     29  C   UNL     1      46.092   5.180  12.715  0.00  0.00    +0.000 A 
ATOM     30  H   UNL     1      45.873   1.935  13.199  0.00  0.00    +0.000 HD
ENDBRANCH  17  20
ENDBRANCH   1  16
TORSDOF 5
ENDMDL
