MODEL 1
REMARK VINA RESULT:    -8.194      0.000      0.000
REMARK INTER + INTRA:         -13.263
REMARK INTER:                 -12.026
REMARK INTRA:                  -1.237
REMARK UNBOUND:                -1.237
REMARK  Name = 
REMARK  9 active torsions:
REMARK  status: ('A' for Active; 'I' for Inactive)
REMARK    1  A    between atoms: C_1  and  O_2
REMARK    2  A    between atoms: O_2  and  C_3
REMARK    3  A    between atoms: C_10  and  C_11
REMARK    4  A    between atoms: N_13  and  C_14
REMARK    5  A    between atoms: C_14  and  C_15
REMARK    6  A    between atoms: C_18  and  C_19
REMARK    7  A    between atoms: C_19  and  O_20
REMARK    8  A    between atoms: O_20  and  C_21
REMARK    9  A    between atoms: C_21  and  C_22
REMARK                            x       y       z     vdW  Elec       q    Type
REMARK                         _______ _______ _______ _____ _____    ______ ____
ROOT
ATOM      1  C   UNL     1      48.000   6.950  13.204  0.00  0.00    +0.000 C 
ENDROOT
BRANCH   1   2
ATOM      2  C   UNL     1      46.882   6.094  12.652  0.00  0.00    +0.000 A 
ATOM      3  C   UNL     1      46.326   6.368  11.395  0.00  0.00    +0.000 A 
ATOM      4  C   UNL     1      45.271   5.596  10.891  0.00  0.00    +0.000 A 
ATOM      5  C   UNL     1      44.730   4.543  11.641  0.00  0.00    +0.000 A 
ATOM      6  C   UNL     1      45.287   4.267  12.899  0.00  0.00    +0.000 A 
ATOM      7  C   UNL     1      46.350   5.031  13.396  0.00  0.00    +0.000 A 
BRANCH   5   8
ATOM      8  C   UNL     1      43.572   3.728  11.118  0.00  0.00    +0.000 C 
BRANCH   8   9
ATOM      9  O   UNL     1      43.823   3.396   9.758  0.00  0.00    +0.000 OA
BRANCH   9  10
ATOM     10  C   UNL     1      44.524   2.155   9.623  0.00  0.00    +0.000 C 
BRANCH  10  11
ATOM     11  C   UNL     1      45.554   2.252   8.518  0.00  0.00    +0.000 A 
ATOM     12  C   UNL     1      45.762   3.457   7.846  0.00  0.00    +0.000 A 
ATOM     13  C   UNL     1      46.713   3.515   6.833  0.00  0.00    +0.000 A 
ATOM     14  C   UNL     1      47.447   2.378   6.526  0.00  0.00    +0.000 A 
ATOM     15  C   UNL     1      47.201   1.226   7.254  0.00  0.00    +0.000 A 
ATOM     16  N   UNL     1      46.279   1.137   8.241  0.00  0.00    +0.000 NA
ENDBRANCH  10  11
ENDBRANCH   9  10
ENDBRANCH   8   9
ENDBRANCH   5   8
ENDBRANCH   1   2
BRANCH   1  19
ATOM     17  C   UNL     1      49.062   7.020  15.438  0.00  0.00    +0.000 C 
ATOM     18  O   UNL     1      50.193   6.964  14.954  0.00  0.00    +0.000 OA
ATOM     19  N   UNL     1      47.947   7.021  14.645  0.00  0.00    +0.000 N 
ATOM     20  H   UNL     1      47.031   7.088  15.066  0.00  0.00    +0.000 HD
BRANCH  17  28
ATOM     21  C   UNL     1      48.845   4.604  17.877  0.00  0.00    +0.000 A 
ATOM     22  N   UNL     1      48.799   3.877  19.010  0.00  0.00    +0.000 NA
ATOM     23  C   UNL     1      48.675   4.532  20.168  0.00  0.00    +0.000 A 
ATOM     24  N   UNL     1      48.570   5.849  20.337  0.00  0.00    +0.000 NA
ATOM     25  C   UNL     1      48.634   6.533  19.181  0.00  0.00    +0.000 A 
ATOM     26  S   UNL     1      48.512   8.226  19.203  0.00  0.00    +0.000 S 
ATOM     27  C   UNL     1      48.692   8.310  17.514  0.00  0.00    +0.000 A 
ATOM     28  C   UNL     1      48.856   7.072  16.900  0.00  0.00    +0.000 A 
ATOM     29  C   UNL     1      48.790   6.008  17.902  0.00  0.00    +0.000 A 
BRANCH  21  31
ATOM     30  C   UNL     1      47.839   3.170  16.328  0.00  0.00    +0.000 C 
ATOM     31  O   UNL     1      48.992   3.928  16.684  0.00  0.00    +0.000 OA
ENDBRANCH  21  31
ENDBRANCH  17  28
ENDBRANCH   1  19
TORSDOF 8
ENDMDL
MODEL 2
REMARK VINA RESULT:    -7.516      1.692      2.883
REMARK INTER + INTRA:         -12.268
REMARK INTER:                 -11.115
REMARK INTRA:                  -1.152
REMARK UNBOUND:                -1.237
REMARK  Name = 
REMARK  9 active torsions:
REMARK  status: ('A' for Active; 'I' for Inactive)
REMARK    1  A    between atoms: C_1  and  O_2
REMARK    2  A    between atoms: O_2  and  C_3
REMARK    3  A    between atoms: C_10  and  C_11
REMARK    4  A    between atoms: N_13  and  C_14
REMARK    5  A    between atoms: C_14  and  C_15
REMARK    6  A    between atoms: C_18  and  C_19
REMARK    7  A    between atoms: C_19  and  O_20
REMARK    8  A    between atoms: O_20  and  C_21
REMARK    9  A    between atoms: C_21  and  C_22
REMARK                            x       y       z     vdW  Elec       q    Type
REMARK                         _______ _______ _______ _____ _____    ______ ____
ROOT
ATOM      1  C   UNL     1      48.546   6.682  14.066  0.00  0.00    +0.000 C 
ENDROOT
BRANCH   1   2
ATOM      2  C   UNL     1      47.359   6.113  13.321  0.00  0.00    +0.000 A 
ATOM      3  C   UNL     1      46.649   5.020  13.836  0.00  0.00    +0.000 A 
ATOM      4  C   UNL     1      45.566   4.472  13.136  0.00  0.00    +0.000 A 
ATOM      5  C   UNL     1      45.179   4.988  11.893  0.00  0.00    +0.000 A 
ATOM      6  C   UNL     1      45.888   6.083  11.376  0.00  0.00    +0.000 A 
ATOM      7  C   UNL     1      46.963   6.639  12.083  0.00  0.00    +0.000 A 
BRANCH   5   8
ATOM      8  C   UNL     1      44.035   4.381  11.118  0.00  0.00    +0.000 C 
BRANCH   8   9
ATOM      9  O   UNL     1      44.485   4.063   9.807  0.00  0.00    +0.000 OA
BRANCH   9  10
ATOM     10  C   UNL     1      44.659   2.654   9.620  0.00  0.00    +0.000 C 
BRANCH  10  11
ATOM     11  C   UNL     1      45.588   2.391   8.455  0.00  0.00    +0.000 A 
ATOM     12  C   UNL     1      45.860   3.393   7.523  0.00  0.00    +0.000 A 
ATOM     13  C   UNL     1      46.715   3.121   6.461  0.00  0.00    +0.000 A 
ATOM     14  C   UNL     1      47.294   1.863   6.362  0.00  0.00    +0.000 A 
ATOM     15  C   UNL     1      46.995   0.928   7.339  0.00  0.00    +0.000 A 
ATOM     16  N   UNL     1      46.164   1.162   8.381  0.00  0.00    +0.000 NA
ENDBRANCH  10  11
ENDBRANCH   9  10
ENDBRANCH   8   9
ENDBRANCH   5   8
ENDBRANCH   1   2
BRANCH   1  19
ATOM     17  C   UNL     1      48.900   6.257  16.478  0.00  0.00    +0.000 C 
ATOM     18  O   UNL     1      49.812   5.461  16.252  0.00  0.00    +0.000 OA
ATOM     19  N   UNL     1      48.241   6.892  15.461  0.00  0.00    +0.000 N 
ATOM     20  H   UNL     1      47.510   7.556  15.674  0.00  0.00    +0.000 HD
BRANCH  17  28
ATOM     21  C   UNL     1      48.010   9.155  18.103  0.00  0.00    +0.000 A 
ATOM     22  N   UNL     1      47.554  10.112  18.935  0.00  0.00    +0.000 NA
ATOM     23  C   UNL     1      47.186   9.746  20.166  0.00  0.00    +0.000 A 
ATOM     24  N   UNL     1      47.235   8.521  20.686  0.00  0.00    +0.000 NA
ATOM     25  C   UNL     1      47.683   7.599  19.817  0.00  0.00    +0.000 A 
ATOM     26  S   UNL     1      47.817   5.980  20.310  0.00  0.00    +0.000 S 
ATOM     27  C   UNL     1      48.376   5.507  18.775  0.00  0.00    +0.000 A 
ATOM     28  C   UNL     1      48.465   6.552  17.859  0.00  0.00    +0.000 A 
ATOM     29  C   UNL     1      48.076   7.808  18.499  0.00  0.00    +0.000 A 
BRANCH  21  31
ATOM     30  C   UNL     1      49.405  10.511  16.807  0.00  0.00    +0.000 C 
ATOM     31  O   UNL     1      48.372   9.531  16.827  0.00  0.00    +0.000 OA
ENDBRANCH  21  31
ENDBRANCH  17  28
ENDBRANCH   1  19
TORSDOF 8
ENDMDL
MODEL 3
REMARK VINA RESULT:    -7.256      1.242      1.544
REMARK INTER + INTRA:         -11.886
REMARK INTER:                 -10.933
REMARK INTRA:                  -0.953
REMARK UNBOUND:                -1.237
REMARK  Name = 
REMARK  9 active torsions:
REMARK  status: ('A' for Active; 'I' for Inactive)
REMARK    1  A    between atoms: C_1  and  O_2
REMARK    2  A    between atoms: O_2  and  C_3
REMARK    3  A    between atoms: C_10  and  C_11
REMARK    4  A    between atoms: N_13  and  C_14
REMARK    5  A    between atoms: C_14  and  C_15
REMARK    6  A    between atoms: C_18  and  C_19
REMARK    7  A    between atoms: C_19  and  O_20
REMARK    8  A    between atoms: O_20  and  C_21
REMARK    9  A    between atoms: C_21  and  C_22
REMARK                            x       y       z     vdW  Elec       q    Type
REMARK                         _______ _______ _______ _____ _____    ______ ____
ROOT
ATOM      1  C   UNL     1      48.344   6.010  13.851  0.00  0.00    +0.000 C 
ENDROOT
BRANCH   1   2
ATOM      2  C   UNL     1      47.094   5.698  13.058  0.00  0.00    +0.000 A 
ATOM      3  C   UNL     1      46.786   6.420  11.897  0.00  0.00    +0.000 A 
ATOM      4  C   UNL     1      45.615   6.154  11.174  0.00  0.00    +0.000 A 
ATOM      5  C   UNL     1      44.712   5.174  11.607  0.00  0.00    +0.000 A 
ATOM      6  C   UNL     1      45.020   4.450  12.768  0.00  0.00    +0.000 A 
ATOM      7  C   UNL     1      46.197   4.707  13.483  0.00  0.00    +0.000 A 
BRANCH   5   8
ATOM      8  C   UNL     1      43.433   4.906  10.851  0.00  0.00    +0.000 C 
BRANCH   8   9
ATOM      9  O   UNL     1      43.756   4.315   9.598  0.00  0.00    +0.000 OA
BRANCH   9  10
ATOM     10  C   UNL     1      44.310   3.002   9.744  0.00  0.00    +0.000 C 
BRANCH  10  11
ATOM     11  C   UNL     1      45.338   2.743   8.665  0.00  0.00    +0.000 A 
ATOM     12  C   UNL     1      45.715   3.758   7.786  0.00  0.00    +0.000 A 
ATOM     13  C   UNL     1      46.661   3.490   6.802  0.00  0.00    +0.000 A 
ATOM     14  C   UNL     1      47.221   2.222   6.728  0.00  0.00    +0.000 A 
ATOM     15  C   UNL     1      46.813   1.274   7.650  0.00  0.00    +0.000 A 
ATOM     16  N   UNL     1      45.893   1.504   8.616  0.00  0.00    +0.000 NA
ENDBRANCH  10  11
ENDBRANCH   9  10
ENDBRANCH   8   9
ENDBRANCH   5   8
ENDBRANCH   1   2
BRANCH   1  19
ATOM     17  C   UNL     1      49.001   7.271  15.876  0.00  0.00    +0.000 C 
ATOM     18  O   UNL     1      50.194   7.022  15.702  0.00  0.00    +0.000 OA
ATOM     19  N   UNL     1      48.044   6.814  15.012  0.00  0.00    +0.000 N 
ATOM     20  H   UNL     1      47.073   7.049  15.166  0.00  0.00    +0.000 HD
BRANCH  17  28
ATOM     21  C   UNL     1      48.057   6.438  19.077  0.00  0.00    +0.000 A 
ATOM     22  N   UNL     1      47.721   6.391  20.381  0.00  0.00    +0.000 NA
ATOM     23  C   UNL     1      47.474   7.546  21.005  0.00  0.00    +0.000 A 
ATOM     24  N   UNL     1      47.503   8.766  20.474  0.00  0.00    +0.000 NA
ATOM     25  C   UNL     1      47.855   8.765  19.176  0.00  0.00    +0.000 A 
ATOM     26  S   UNL     1      47.941  10.235  18.331  0.00  0.00    +0.000 S 
ATOM     27  C   UNL     1      48.428   9.445  16.906  0.00  0.00    +0.000 A 
ATOM     28  C   UNL     1      48.545   8.064  17.037  0.00  0.00    +0.000 A 
ATOM     29  C   UNL     1      48.172   7.660  18.393  0.00  0.00    +0.000 A 
BRANCH  21  31
ATOM     30  C   UNL     1      47.187   4.678  17.808  0.00  0.00    +0.000 C 
ATOM     31  O   UNL     1      48.330   5.246  18.439  0.00  0.00    +0.000 OA
ENDBRANCH  21  31
ENDBRANCH  17  28
ENDBRANCH   1  19
TORSDOF 8
ENDMDL
MODEL 4
REMARK VINA RESULT:    -7.225      2.711      3.453
REMARK INTER + INTRA:         -11.841
REMARK INTER:                 -10.767
REMARK INTRA:                  -1.074
REMARK UNBOUND:                -1.237
REMARK  Name = 
REMARK  9 active torsions:
REMARK  status: ('A' for Active; 'I' for Inactive)
REMARK    1  A    between atoms: C_1  and  O_2
REMARK    2  A    between atoms: O_2  and  C_3
REMARK    3  A    between atoms: C_10  and  C_11
REMARK    4  A    between atoms: N_13  and  C_14
REMARK    5  A    between atoms: C_14  and  C_15
REMARK    6  A    between atoms: C_18  and  C_19
REMARK    7  A    between atoms: C_19  and  O_20
REMARK    8  A    between atoms: O_20  and  C_21
REMARK    9  A    between atoms: C_21  and  C_22
REMARK                            x       y       z     vdW  Elec       q    Type
REMARK                         _______ _______ _______ _____ _____    ______ ____
ROOT
ATOM      1  C   UNL     1      49.151   6.993  15.691  0.00  0.00    +0.000 C 
ENDROOT
BRANCH   1   2
ATOM      2  C   UNL     1      48.149   6.338  14.766  0.00  0.00    +0.000 A 
ATOM      3  C   UNL     1      47.500   5.154  15.140  0.00  0.00    +0.000 A 
ATOM      4  C   UNL     1      46.592   4.528  14.275  0.00  0.00    +0.000 A 
ATOM      5  C   UNL     1      46.327   5.059  13.006  0.00  0.00    +0.000 A 
ATOM      6  C   UNL     1      46.975   6.245  12.631  0.00  0.00    +0.000 A 
ATOM      7  C   UNL     1      47.872   6.877  13.501  0.00  0.00    +0.000 A 
BRANCH   5   8
ATOM      8  C   UNL     1      45.375   4.371  12.058  0.00  0.00    +0.000 C 
BRANCH   8   9
ATOM      9  O   UNL     1      45.206   5.188  10.906  0.00  0.00    +0.000 OA
BRANCH   9  10
ATOM     10  C   UNL     1      44.398   4.556   9.906  0.00  0.00    +0.000 C 
BRANCH  10  11
ATOM     11  C   UNL     1      45.264   3.741   8.970  0.00  0.00    +0.000 A 
ATOM     12  C   UNL     1      45.291   2.349   9.061  0.00  0.00    +0.000 A 
ATOM     13  C   UNL     1      46.098   1.626   8.189  0.00  0.00    +0.000 A 
ATOM     14  C   UNL     1      46.845   2.305   7.236  0.00  0.00    +0.000 A 
ATOM     15  C   UNL     1      46.746   3.685   7.192  0.00  0.00    +0.000 A 
ATOM     16  N   UNL     1      45.974   4.416   8.029  0.00  0.00    +0.000 NA
ENDBRANCH  10  11
ENDBRANCH   9  10
ENDBRANCH   8   9
ENDBRANCH   5   8
ENDBRANCH   1   2
BRANCH   1  19
ATOM     17  C   UNL     1      50.560   6.054  17.496  0.00  0.00    +0.000 C 
ATOM     18  O   UNL     1      50.183   6.908  18.299  0.00  0.00    +0.000 OA
ATOM     19  N   UNL     1      50.096   6.032  16.209  0.00  0.00    +0.000 N 
ATOM     20  H   UNL     1      50.406   5.308  15.576  0.00  0.00    +0.000 HD
BRANCH  17  28
ATOM     21  C   UNL     1      50.566   2.619  17.317  0.00  0.00    +0.000 A 
ATOM     22  N   UNL     1      50.849   1.302  17.293  0.00  0.00    +0.000 NA
ATOM     23  C   UNL     1      52.049   0.912  17.733  0.00  0.00    +0.000 A 
ATOM     24  N   UNL     1      53.014   1.688  18.222  0.00  0.00    +0.000 NA
ATOM     25  C   UNL     1      52.693   2.994  18.215  0.00  0.00    +0.000 A 
ATOM     26  S   UNL     1      53.803   4.132  18.807  0.00  0.00    +0.000 S 
ATOM     27  C   UNL     1      52.746   5.418  18.458  0.00  0.00    +0.000 A 
ATOM     28  C   UNL     1      51.544   5.021  17.882  0.00  0.00    +0.000 A 
ATOM     29  C   UNL     1      51.505   3.563  17.766  0.00  0.00    +0.000 A 
BRANCH  21  31
ATOM     30  C   UNL     1      48.342   3.088  17.866  0.00  0.00    +0.000 C 
ATOM     31  O   UNL     1      49.335   3.021  16.846  0.00  0.00    +0.000 OA
ENDBRANCH  21  31
ENDBRANCH  17  28
ENDBRANCH   1  19
TORSDOF 8
ENDMDL
MODEL 5
REMARK VINA RESULT:    -7.166      1.862      3.348
REMARK INTER + INTRA:         -11.755
REMARK INTER:                 -10.504
REMARK INTRA:                  -1.251
REMARK UNBOUND:                -1.237
REMARK  Name = 
REMARK  9 active torsions:
REMARK  status: ('A' for Active; 'I' for Inactive)
REMARK    1  A    between atoms: C_1  and  O_2
REMARK    2  A    between atoms: O_2  and  C_3
REMARK    3  A    between atoms: C_10  and  C_11
REMARK    4  A    between atoms: N_13  and  C_14
REMARK    5  A    between atoms: C_14  and  C_15
REMARK    6  A    between atoms: C_18  and  C_19
REMARK    7  A    between atoms: C_19  and  O_20
REMARK    8  A    between atoms: O_20  and  C_21
REMARK    9  A    between atoms: C_21  and  C_22
REMARK                            x       y       z     vdW  Elec       q    Type
REMARK                         _______ _______ _______ _____ _____    ______ ____
ROOT
ATOM      1  C   UNL     1      47.178   4.250  14.934  0.00  0.00    +0.000 C 
ENDROOT
BRANCH   1   2
ATOM      2  C   UNL     1      46.307   4.382  13.704  0.00  0.00    +0.000 A 
ATOM      3  C   UNL     1      45.870   5.640  13.270  0.00  0.00    +0.000 A 
ATOM      4  C   UNL     1      45.039   5.766  12.148  0.00  0.00    +0.000 A 
ATOM      5  C   UNL     1      44.607   4.633  11.446  0.00  0.00    +0.000 A 
ATOM      6  C   UNL     1      45.044   3.373  11.879  0.00  0.00    +0.000 A 
ATOM      7  C   UNL     1      45.885   3.250  12.992  0.00  0.00    +0.000 A 
BRANCH   5   8
ATOM      8  C   UNL     1      43.686   4.759  10.256  0.00  0.00    +0.000 C 
BRANCH   8   9
ATOM      9  O   UNL     1      44.128   3.870   9.238  0.00  0.00    +0.000 OA
BRANCH   9  10
ATOM     10  C   UNL     1      45.269   4.375   8.535  0.00  0.00    +0.000 C 
BRANCH  10  11
ATOM     11  C   UNL     1      46.001   3.245   7.844  0.00  0.00    +0.000 A 
ATOM     12  C   UNL     1      46.699   3.472   6.657  0.00  0.00    +0.000 A 
ATOM     13  C   UNL     1      47.360   2.415   6.044  0.00  0.00    +0.000 A 
ATOM     14  C   UNL     1      47.326   1.159   6.635  0.00  0.00    +0.000 A 
ATOM     15  C   UNL     1      46.632   1.017   7.825  0.00  0.00    +0.000 A 
ATOM     16  N   UNL     1      45.976   2.026   8.443  0.00  0.00    +0.000 NA
ENDBRANCH  10  11
ENDBRANCH   9  10
ENDBRANCH   8   9
ENDBRANCH   5   8
ENDBRANCH   1   2
BRANCH   1  19
ATOM     17  C   UNL     1      48.659   5.730  16.254  0.00  0.00    +0.000 C 
ATOM     18  O   UNL     1      49.369   4.787  16.602  0.00  0.00    +0.000 OA
ATOM     19  N   UNL     1      47.576   5.543  15.438  0.00  0.00    +0.000 N 
ATOM     20  H   UNL     1      47.021   6.337  15.150  0.00  0.00    +0.000 HD
BRANCH  17  28
ATOM     21  C   UNL     1      48.742   8.777  14.659  0.00  0.00    +0.000 A 
ATOM     22  N   UNL     1      48.766  10.075  14.300  0.00  0.00    +0.000 NA
ATOM     23  C   UNL     1      49.006  10.982  15.250  0.00  0.00    +0.000 A 
ATOM     24  N   UNL     1      49.248  10.748  16.539  0.00  0.00    +0.000 NA
ATOM     25  C   UNL     1      49.203   9.442  16.853  0.00  0.00    +0.000 A 
ATOM     26  S   UNL     1      49.493   8.955  18.453  0.00  0.00    +0.000 S 
ATOM     27  C   UNL     1      49.247   7.320  18.053  0.00  0.00    +0.000 A 
ATOM     28  C   UNL     1      48.934   7.107  16.714  0.00  0.00    +0.000 A 
ATOM     29  C   UNL     1      48.938   8.381  15.993  0.00  0.00    +0.000 A 
BRANCH  21  31
ATOM     30  C   UNL     1      49.642   7.430  12.972  0.00  0.00    +0.000 C 
ATOM     31  O   UNL     1      48.477   7.843  13.680  0.00  0.00    +0.000 OA
ENDBRANCH  21  31
ENDBRANCH  17  28
ENDBRANCH   1  19
TORSDOF 8
ENDMDL
MODEL 6
REMARK VINA RESULT:    -7.165      1.847      2.160
REMARK INTER + INTRA:         -11.753
REMARK INTER:                 -10.750
REMARK INTRA:                  -1.004
REMARK UNBOUND:                -1.237
REMARK  Name = 
REMARK  9 active torsions:
REMARK  status: ('A' for Active; 'I' for Inactive)
REMARK    1  A    between atoms: C_1  and  O_2
REMARK    2  A    between atoms: O_2  and  C_3
REMARK    3  A    between atoms: C_10  and  C_11
REMARK    4  A    between atoms: N_13  and  C_14
REMARK    5  A    between atoms: C_14  and  C_15
REMARK    6  A    between atoms: C_18  and  C_19
REMARK    7  A    between atoms: C_19  and  O_20
REMARK    8  A    between atoms: O_20  and  C_21
REMARK    9  A    between atoms: C_21  and  C_22
REMARK                            x       y       z     vdW  Elec       q    Type
REMARK                         _______ _______ _______ _____ _____    ______ ____
ROOT
ATOM      1  C   UNL     1      47.554   8.475  13.227  0.00  0.00    +0.000 C 
ENDROOT
BRANCH   1   2
ATOM      2  C   UNL     1      46.567   7.447  12.720  0.00  0.00    +0.000 A 
ATOM      3  C   UNL     1      46.883   6.082  12.743  0.00  0.00    +0.000 A 
ATOM      4  C   UNL     1      45.985   5.127  12.249  0.00  0.00    +0.000 A 
ATOM      5  C   UNL     1      44.756   5.515  11.698  0.00  0.00    +0.000 A 
ATOM      6  C   UNL     1      44.438   6.881  11.676  0.00  0.00    +0.000 A 
ATOM      7  C   UNL     1      45.332   7.834  12.182  0.00  0.00    +0.000 A 
BRANCH   5   8
ATOM      8  C   UNL     1      43.798   4.494  11.134  0.00  0.00    +0.000 C 
BRANCH   8   9
ATOM      9  O   UNL     1      44.196   4.178   9.806  0.00  0.00    +0.000 OA
BRANCH   9  10
ATOM     10  C   UNL     1      44.406   2.773   9.623  0.00  0.00    +0.000 C 
BRANCH  10  11
ATOM     11  C   UNL     1      45.421   2.533   8.526  0.00  0.00    +0.000 A 
ATOM     12  C   UNL     1      45.743   3.547   7.623  0.00  0.00    +0.000 A 
ATOM     13  C   UNL     1      46.677   3.296   6.624  0.00  0.00    +0.000 A 
ATOM     14  C   UNL     1      47.281   2.048   6.558  0.00  0.00    +0.000 A 
ATOM     15  C   UNL     1      46.927   1.101   7.504  0.00  0.00    +0.000 A 
ATOM     16  N   UNL     1      46.019   1.314   8.485  0.00  0.00    +0.000 NA
ENDBRANCH  10  11
ENDBRANCH   9  10
ENDBRANCH   8   9
ENDBRANCH   5   8
ENDBRANCH   1   2
BRANCH   1  19
ATOM     17  C   UNL     1      48.879   8.116  15.287  0.00  0.00    +0.000 C 
ATOM     18  O   UNL     1      48.184   8.905  15.927  0.00  0.00    +0.000 OA
ATOM     19  N   UNL     1      48.628   7.855  13.967  0.00  0.00    +0.000 N 
ATOM     20  H   UNL     1      49.200   7.188  13.469  0.00  0.00    +0.000 HD
BRANCH  17  28
ATOM     21  C   UNL     1      49.269   5.019  16.732  0.00  0.00    +0.000 A 
ATOM     22  N   UNL     1      49.700   3.862  17.269  0.00  0.00    +0.000 NA
ATOM     23  C   UNL     1      50.992   3.768  17.598  0.00  0.00    +0.000 A 
ATOM     24  N   UNL     1      51.922   4.713  17.470  0.00  0.00    +0.000 NA
ATOM     25  C   UNL     1      51.449   5.844  16.919  0.00  0.00    +0.000 A 
ATOM     26  S   UNL     1      52.493   7.161  16.684  0.00  0.00    +0.000 S 
ATOM     27  C   UNL     1      51.249   8.088  15.988  0.00  0.00    +0.000 A 
ATOM     28  C   UNL     1      50.027   7.426  15.910  0.00  0.00    +0.000 A 
ATOM     29  C   UNL     1      50.147   6.092  16.497  0.00  0.00    +0.000 A 
BRANCH  21  31
ATOM     30  C   UNL     1      47.082   4.366  17.238  0.00  0.00    +0.000 C 
ATOM     31  O   UNL     1      47.940   5.108  16.377  0.00  0.00    +0.000 OA
ENDBRANCH  21  31
ENDBRANCH  17  28
ENDBRANCH   1  19
TORSDOF 8
ENDMDL
MODEL 7
REMARK VINA RESULT:    -7.076      1.779      2.660
REMARK INTER + INTRA:         -11.623
REMARK INTER:                 -10.540
REMARK INTRA:                  -1.083
REMARK UNBOUND:                -1.237
REMARK  Name = 
REMARK  9 active torsions:
REMARK  status: ('A' for Active; 'I' for Inactive)
REMARK    1  A    between atoms: C_1  and  O_2
REMARK    2  A    between atoms: O_2  and  C_3
REMARK    3  A    between atoms: C_10  and  C_11
REMARK    4  A    between atoms: N_13  and  C_14
REMARK    5  A    between atoms: C_14  and  C_15
REMARK    6  A    between atoms: C_18  and  C_19
REMARK    7  A    between atoms: C_19  and  O_20
REMARK    8  A    between atoms: O_20  and  C_21
REMARK    9  A    between atoms: C_21  and  C_22
REMARK                            x       y       z     vdW  Elec       q    Type
REMARK                         _______ _______ _______ _____ _____    ______ ____
ROOT
ATOM      1  C   UNL     1      47.482   3.499  15.202  0.00  0.00    +0.000 C 
ENDROOT
BRANCH   1   2
ATOM      2  C   UNL     1      46.828   4.102  13.979  0.00  0.00    +0.000 A 
ATOM      3  C   UNL     1      45.959   3.341  13.185  0.00  0.00    +0.000 A 
ATOM      4  C   UNL     1      45.373   3.886  12.034  0.00  0.00    +0.000 A 
ATOM      5  C   UNL     1      45.658   5.199  11.637  0.00  0.00    +0.000 A 
ATOM      6  C   UNL     1      46.527   5.962  12.431  0.00  0.00    +0.000 A 
ATOM      7  C   UNL     1      47.102   5.421  13.588  0.00  0.00    +0.000 A 
BRANCH   5   8
ATOM      8  C   UNL     1      45.056   5.781  10.381  0.00  0.00    +0.000 C 
BRANCH   8   9
ATOM      9  O   UNL     1      45.704   5.207   9.253  0.00  0.00    +0.000 OA
BRANCH   9  10
ATOM     10  C   UNL     1      44.883   4.241   8.588  0.00  0.00    +0.000 C 
BRANCH  10  11
ATOM     11  C   UNL     1      45.742   3.176   7.942  0.00  0.00    +0.000 A 
ATOM     12  C   UNL     1      46.549   3.483   6.846  0.00  0.00    +0.000 A 
ATOM     13  C   UNL     1      47.327   2.484   6.273  0.00  0.00    +0.000 A 
ATOM     14  C   UNL     1      47.295   1.206   6.814  0.00  0.00    +0.000 A 
ATOM     15  C   UNL     1      46.488   0.984   7.917  0.00  0.00    +0.000 A 
ATOM     16  N   UNL     1      45.718   1.935   8.495  0.00  0.00    +0.000 NA
ENDBRANCH  10  11
ENDBRANCH   9  10
ENDBRANCH   8   9
ENDBRANCH   5   8
ENDBRANCH   1   2
BRANCH   1  19
ATOM     17  C   UNL     1      47.529   4.548  17.443  0.00  0.00    +0.000 C 
ATOM     18  O   UNL     1      46.792   3.683  17.915  0.00  0.00    +0.000 OA
ATOM     19  N   UNL     1      47.909   4.520  16.129  0.00  0.00    +0.000 N 
ATOM     20  H   UNL     1      48.531   5.231  15.770  0.00  0.00    +0.000 HD
BRANCH  17  28
ATOM     21  C   UNL     1      50.612   6.030  17.804  0.00  0.00    +0.000 A 
ATOM     22  N   UNL     1      51.671   6.819  18.071  0.00  0.00    +0.000 NA
ATOM     23  C   UNL     1      51.494   7.837  18.918  0.00  0.00    +0.000 A 
ATOM     24  N   UNL     1      50.372   8.161  19.558  0.00  0.00    +0.000 NA
ATOM     25  C   UNL     1      49.341   7.355  19.252  0.00  0.00    +0.000 A 
ATOM     26  S   UNL     1      47.830   7.616  19.978  0.00  0.00    +0.000 S 
ATOM     27  C   UNL     1      47.139   6.318  19.124  0.00  0.00    +0.000 A 
ATOM     28  C   UNL     1      48.024   5.668  18.269  0.00  0.00    +0.000 A 
ATOM     29  C   UNL     1      49.351   6.276  18.373  0.00  0.00    +0.000 A 
BRANCH  21  31
ATOM     30  C   UNL     1      51.243   3.793  17.543  0.00  0.00    +0.000 C 
ATOM     31  O   UNL     1      50.792   4.990  16.916  0.00  0.00    +0.000 OA
ENDBRANCH  21  31
ENDBRANCH  17  28
ENDBRANCH   1  19
TORSDOF 8
ENDMDL
MODEL 8
REMARK VINA RESULT:    -6.575      3.539      5.502
REMARK INTER + INTRA:         -10.887
REMARK INTER:                  -9.421
REMARK INTRA:                  -1.466
REMARK UNBOUND:                -1.237
REMARK  Name = 
REMARK  9 active torsions:
REMARK  status: ('A' for Active; 'I' for Inactive)
REMARK    1  A    between atoms: C_1  and  O_2
REMARK    2  A    between atoms: O_2  and  C_3
REMARK    3  A    between atoms: C_10  and  C_11
REMARK    4  A    between atoms: N_13  and  C_14
REMARK    5  A    between atoms: C_14  and  C_15
REMARK    6  A    between atoms: C_18  and  C_19
REMARK    7  A    between atoms: C_19  and  O_20
REMARK    8  A    between atoms: O_20  and  C_21
REMARK    9  A    between atoms: C_21  and  C_22
REMARK                            x       y       z     vdW  Elec       q    Type
REMARK                         _______ _______ _______ _____ _____    ______ ____
ROOT
ATOM      1  C   UNL     1      47.942   3.527  17.483  0.00  0.00    +0.000 C 
ENDROOT
BRANCH   1   2
ATOM      2  C   UNL     1      47.765   4.366  16.236  0.00  0.00    +0.000 A 
ATOM      3  C   UNL     1      47.049   3.871  15.138  0.00  0.00    +0.000 A 
ATOM      4  C   UNL     1      46.906   4.633  13.970  0.00  0.00    +0.000 A 
ATOM      5  C   UNL     1      47.496   5.899  13.864  0.00  0.00    +0.000 A 
ATOM      6  C   UNL     1      48.212   6.396  14.962  0.00  0.00    +0.000 A 
ATOM      7  C   UNL     1      48.343   5.640  16.134  0.00  0.00    +0.000 A 
BRANCH   5   8
ATOM      8  C   UNL     1      47.373   6.711  12.596  0.00  0.00    +0.000 C 
BRANCH   8   9
ATOM      9  O   UNL     1      46.145   7.427  12.627  0.00  0.00    +0.000 OA
BRANCH   9  10
ATOM     10  C   UNL     1      45.342   7.177  11.469  0.00  0.00    +0.000 C 
BRANCH  10  11
ATOM     11  C   UNL     1      44.637   5.844  11.597  0.00  0.00    +0.000 A 
ATOM     12  C   UNL     1      44.855   4.833  10.660  0.00  0.00    +0.000 A 
ATOM     13  C   UNL     1      44.192   3.620  10.803  0.00  0.00    +0.000 A 
ATOM     14  C   UNL     1      43.340   3.435  11.883  0.00  0.00    +0.000 A 
ATOM     15  C   UNL     1      43.194   4.476  12.784  0.00  0.00    +0.000 A 
ATOM     16  N   UNL     1      43.822   5.669  12.670  0.00  0.00    +0.000 NA
ENDBRANCH  10  11
ENDBRANCH   9  10
ENDBRANCH   8   9
ENDBRANCH   5   8
ENDBRANCH   1   2
BRANCH   1  19
ATOM     17  C   UNL     1      50.080   2.354  17.062  0.00  0.00    +0.000 C 
ATOM     18  O   UNL     1      49.590   1.687  16.151  0.00  0.00    +0.000 OA
ATOM     19  N   UNL     1      49.337   3.272  17.753  0.00  0.00    +0.000 N 
ATOM     20  H   UNL     1      49.769   3.821  18.483  0.00  0.00    +0.000 HD
BRANCH  17  28
ATOM     21  C   UNL     1      52.629   4.564  17.730  0.00  0.00    +0.000 A 
ATOM     22  N   UNL     1      53.753   5.202  18.109  0.00  0.00    +0.000 NA
ATOM     23  C   UNL     1      54.796   4.459  18.492  0.00  0.00    +0.000 A 
ATOM     24  N   UNL     1      54.862   3.129  18.526  0.00  0.00    +0.000 NA
ATOM     25  C   UNL     1      53.715   2.536  18.151  0.00  0.00    +0.000 A 
ATOM     26  S   UNL     1      53.617   0.842  18.128  0.00  0.00    +0.000 S 
ATOM     27  C   UNL     1      51.995   0.893  17.618  0.00  0.00    +0.000 A 
ATOM     28  C   UNL     1      51.492   2.181  17.463  0.00  0.00    +0.000 A 
ATOM     29  C   UNL     1      52.537   3.162  17.756  0.00  0.00    +0.000 A 
BRANCH  21  31
ATOM     30  C   UNL     1      51.916   6.466  16.572  0.00  0.00    +0.000 C 
ATOM     31  O   UNL     1      51.549   5.333  17.353  0.00  0.00    +0.000 OA
ENDBRANCH  21  31
ENDBRANCH  17  28
ENDBRANCH   1  19
TORSDOF 8
ENDMDL
MODEL 9
REMARK VINA RESULT:    -6.568      3.210      8.214
REMARK INTER + INTRA:         -10.877
REMARK INTER:                  -9.360
REMARK INTRA:                  -1.517
REMARK UNBOUND:                -1.237
REMARK  Name = 
REMARK  9 active torsions:
REMARK  status: ('A' for Active; 'I' for Inactive)
REMARK    1  A    between atoms: C_1  and  O_2
REMARK    2  A    between atoms: O_2  and  C_3
REMARK    3  A    between atoms: C_10  and  C_11
REMARK    4  A    between atoms: N_13  and  C_14
REMARK    5  A    between atoms: C_14  and  C_15
REMARK    6  A    between atoms: C_18  and  C_19
REMARK    7  A    between atoms: C_19  and  O_20
REMARK    8  A    between atoms: O_20  and  C_21
REMARK    9  A    between atoms: C_21  and  C_22
REMARK                            x       y       z     vdW  Elec       q    Type
REMARK                         _______ _______ _______ _____ _____    ______ ____
ROOT
ATOM      1  C   UNL     1      48.372   8.139  11.902  0.00  0.00    +0.000 C 
ENDROOT
BRANCH   1   2
ATOM      2  C   UNL     1      48.482   8.021  13.406  0.00  0.00    +0.000 A 
ATOM      3  C   UNL     1      48.116   9.089  14.235  0.00  0.00    +0.000 A 
ATOM      4  C   UNL     1      48.243   8.996  15.628  0.00  0.00    +0.000 A 
ATOM      5  C   UNL     1      48.762   7.840  16.225  0.00  0.00    +0.000 A 
ATOM      6  C   UNL     1      49.128   6.769  15.396  0.00  0.00    +0.000 A 
ATOM      7  C   UNL     1      48.988   6.858  14.006  0.00  0.00    +0.000 A 
BRANCH   5   8
ATOM      8  C   UNL     1      48.932   7.746  17.722  0.00  0.00    +0.000 C 
BRANCH   8   9
ATOM      9  O   UNL     1      49.994   6.843  18.006  0.00  0.00    +0.000 OA
BRANCH   9  10
ATOM     10  C   UNL     1      49.597   5.808  18.913  0.00  0.00    +0.000 C 
BRANCH  10  11
ATOM     11  C   UNL     1      49.373   4.512  18.164  0.00  0.00    +0.000 A 
ATOM     12  C   UNL     1      48.094   4.149  17.740  0.00  0.00    +0.000 A 
ATOM     13  C   UNL     1      47.918   2.952  17.056  0.00  0.00    +0.000 A 
ATOM     14  C   UNL     1      49.022   2.152  16.795  0.00  0.00    +0.000 A 
ATOM     15  C   UNL     1      50.263   2.590  17.225  0.00  0.00    +0.000 A 
ATOM     16  N   UNL     1      50.465   3.748  17.896  0.00  0.00    +0.000 NA
ENDBRANCH  10  11
ENDBRANCH   9  10
ENDBRANCH   8   9
ENDBRANCH   5   8
ENDBRANCH   1   2
BRANCH   1  19
ATOM     17  C   UNL     1      46.285   6.935  11.333  0.00  0.00    +0.000 C 
ATOM     18  O   UNL     1      45.585   7.826  11.813  0.00  0.00    +0.000 OA
ATOM     19  N   UNL     1      47.651   7.022  11.338  0.00  0.00    +0.000 N 
ATOM     20  H   UNL     1      48.203   6.287  10.920  0.00  0.00    +0.000 HD
BRANCH  17  28
ATOM     21  C   UNL     1      44.508   4.303  12.652  0.00  0.00    +0.000 A 
ATOM     22  N   UNL     1      43.745   3.220  12.897  0.00  0.00    +0.000 NA
ATOM     23  C   UNL     1      43.402   2.450  11.860  0.00  0.00    +0.000 A 
ATOM     24  N   UNL     1      43.749   2.620  10.586  0.00  0.00    +0.000 NA
ATOM     25  C   UNL     1      44.499   3.718  10.388  0.00  0.00    +0.000 A 
ATOM     26  S   UNL     1      45.040   4.093   8.824  0.00  0.00    +0.000 S 
ATOM     27  C   UNL     1      45.820   5.499   9.375  0.00  0.00    +0.000 A 
ATOM     28  C   UNL     1      45.684   5.722  10.742  0.00  0.00    +0.000 A 
ATOM     29  C   UNL     1      44.916   4.634  11.349  0.00  0.00    +0.000 A 
BRANCH  21  31
ATOM     30  C   UNL     1      46.124   4.797  14.269  0.00  0.00    +0.000 C 
ATOM     31  O   UNL     1      44.846   5.106  13.721  0.00  0.00    +0.000 OA
ENDBRANCH  21  31
ENDBRANCH  17  28
ENDBRANCH   1  19
TORSDOF 8
ENDMDL
