MODEL 1
REMARK VINA RESULT:    -8.580      0.000      0.000
REMARK INTER + INTRA:         -11.374
REMARK INTER:                 -10.586
REMARK INTRA:                  -0.788
REMARK UNBOUND:                -0.788
REMARK  Name = 
REMARK  4 active torsions:
REMARK  status: ('A' for Active; 'I' for Inactive)
REMARK    1  A    between atoms: C_2  and  C_4
REMARK    2  A    between atoms: N_8  and  C_9
REMARK    3  A    between atoms: C_9  and  C_10
REMARK    4  A    between atoms: C_14  and  C_15
REMARK                            x       y       z     vdW  Elec       q    Type
REMARK                         _______ _______ _______ _____ _____    ______ ____
ROOT
ATOM      1  C   UNL     1      46.545   2.496   7.305  0.00  0.00    +0.000 A 
ATOM      2  C   UNL     1      46.028   3.727   7.689  0.00  0.00    +0.000 A 
ATOM      3  C   UNL     1      45.171   3.791   8.787  0.00  0.00    +0.000 A 
ATOM      4  C   UNL     1      44.841   2.629   9.477  0.00  0.00    +0.000 A 
ATOM      5  N   UNL     1      44.039   2.608  10.582  0.00  0.00    +0.000 N 
ATOM      6  N   UNL     1      45.305   1.425   9.086  0.00  0.00    +0.000 NA
ATOM      7  C   UNL     1      46.136   1.378   8.012  0.00  0.00    +0.000 A 
ATOM      8  H   UNL     1      43.829   1.676  10.919  0.00  0.00    +0.000 HD
ENDROOT
BRANCH   1  10
ATOM      9  N   UNL     1      47.424   3.266   5.183  0.00  0.00    +0.000 N 
ATOM     10  C   UNL     1      47.498   2.342   6.190  0.00  0.00    +0.000 C 
ATOM     11  O   UNL     1      48.343   1.458   6.180  0.00  0.00    +0.000 OA
ATOM     12  H   UNL     1      48.148   3.214   4.474  0.00  0.00    +0.000 HD
ATOM     13  H   UNL     1      46.916   4.136   5.274  0.00  0.00    +0.000 HD
ENDBRANCH   1  10
BRANCH   5  14
ATOM     14  C   UNL     1      43.399   3.741  11.207  0.00  0.00    +0.000 C 
BRANCH  14  15
ATOM     15  C   UNL     1      44.349   4.688  11.910  0.00  0.00    +0.000 A 
ATOM     16  C   UNL     1      45.271   4.157  12.821  0.00  0.00    +0.000 A 
ATOM     17  C   UNL     1      46.177   4.987  13.477  0.00  0.00    +0.000 A 
ATOM     18  C   UNL     1      46.188   6.358  13.215  0.00  0.00    +0.000 A 
ATOM     19  C   UNL     1      45.306   6.931  12.283  0.00  0.00    +0.000 A 
ATOM     20  C   UNL     1      44.373   6.073  11.668  0.00  0.00    +0.000 A 
BRANCH  19  21
ATOM     21  C   UNL     1      45.400   8.358  11.890  0.00  0.00    +0.000 A 
ATOM     22  C   UNL     1      44.336   8.997  11.224  0.00  0.00    +0.000 A 
ATOM     23  C   UNL     1      44.365  10.363  10.935  0.00  0.00    +0.000 A 
ATOM     24  C   UNL     1      45.462  11.131  11.312  0.00  0.00    +0.000 A 
ATOM     25  C   UNL     1      46.537  10.526  11.956  0.00  0.00    +0.000 A 
ATOM     26  C   UNL     1      46.509   9.156  12.231  0.00  0.00    +0.000 A 
ENDBRANCH  19  21
ENDBRANCH  14  15
ENDBRANCH   5  14
TORSDOF 4
ENDMDL
MODEL 2
REMARK VINA RESULT:    -8.308      1.727      3.966
REMARK INTER + INTRA:         -11.039
REMARK INTER:                 -10.268
REMARK INTRA:                  -0.771
REMARK UNBOUND:                -0.788
REMARK  Name = 
REMARK  4 active torsions:
REMARK  status: ('A' for Active; 'I' for Inactive)
REMARK    1  A    between atoms: C_2  and  C_4
REMARK    2  A    between atoms: N_8  and  C_9
REMARK    3  A    between atoms: C_9  and  C_10
REMARK    4  A    between atoms: C_14  and  C_15
REMARK                            x       y       z     vdW  Elec       q    Type
REMARK                         _______ _______ _______ _____ _____    ______ ____
ROOT
ATOM      1  C   UNL     1      46.558   2.602   7.300  0.00  0.00    +0.000 A 
ATOM      2  C   UNL     1      46.209   3.906   7.630  0.00  0.00    +0.000 A 
ATOM      3  C   UNL     1      45.379   4.130   8.726  0.00  0.00    +0.000 A 
ATOM      4  C   UNL     1      44.907   3.053   9.471  0.00  0.00    +0.000 A 
ATOM      5  N   UNL     1      44.120   3.186  10.579  0.00  0.00    +0.000 N 
ATOM      6  N   UNL     1      45.207   1.783   9.134  0.00  0.00    +0.000 NA
ATOM      7  C   UNL     1      46.015   1.580   8.060  0.00  0.00    +0.000 A 
ATOM      8  H   UNL     1      43.794   2.306  10.958  0.00  0.00    +0.000 HD
ENDROOT
BRANCH   1  10
ATOM      9  N   UNL     1      47.423   3.089   5.091  0.00  0.00    +0.000 N 
ATOM     10  C   UNL     1      47.472   2.275   6.190  0.00  0.00    +0.000 C 
ATOM     11  O   UNL     1      48.268   1.349   6.259  0.00  0.00    +0.000 OA
ATOM     12  H   UNL     1      48.125   2.920   4.377  0.00  0.00    +0.000 HD
ATOM     13  H   UNL     1      46.967   3.991   5.097  0.00  0.00    +0.000 HD
ENDBRANCH   1  10
BRANCH   5  14
ATOM     14  C   UNL     1      43.638   4.419  11.153  0.00  0.00    +0.000 C 
BRANCH  14  15
ATOM     15  C   UNL     1      44.710   5.266  11.807  0.00  0.00    +0.000 A 
ATOM     16  C   UNL     1      44.853   6.598  11.396  0.00  0.00    +0.000 A 
ATOM     17  C   UNL     1      45.813   7.420  11.983  0.00  0.00    +0.000 A 
ATOM     18  C   UNL     1      46.628   6.927  13.003  0.00  0.00    +0.000 A 
ATOM     19  C   UNL     1      46.498   5.610  13.472  0.00  0.00    +0.000 A 
ATOM     20  C   UNL     1      45.548   4.790  12.831  0.00  0.00    +0.000 A 
BRANCH  19  21
ATOM     21  C   UNL     1      47.256   5.118  14.648  0.00  0.00    +0.000 A 
ATOM     22  C   UNL     1      48.066   5.989  15.402  0.00  0.00    +0.000 A 
ATOM     23  C   UNL     1      48.708   5.568  16.570  0.00  0.00    +0.000 A 
ATOM     24  C   UNL     1      48.550   4.261  17.018  0.00  0.00    +0.000 A 
ATOM     25  C   UNL     1      47.770   3.372  16.287  0.00  0.00    +0.000 A 
ATOM     26  C   UNL     1      47.140   3.793  15.112  0.00  0.00    +0.000 A 
ENDBRANCH  19  21
ENDBRANCH  14  15
ENDBRANCH   5  14
TORSDOF 4
ENDMDL
MODEL 3
REMARK VINA RESULT:    -7.881      3.853      7.007
REMARK INTER + INTRA:         -10.511
REMARK INTER:                  -9.645
REMARK INTRA:                  -0.866
REMARK UNBOUND:                -0.788
REMARK  Name = 
REMARK  4 active torsions:
REMARK  status: ('A' for Active; 'I' for Inactive)
REMARK    1  A    between atoms: C_2  and  C_4
REMARK    2  A    between atoms: N_8  and  C_9
REMARK    3  A    between atoms: C_9  and  C_10
REMARK    4  A    between atoms: C_14  and  C_15
REMARK                            x       y       z     vdW  Elec       q    Type
REMARK                         _______ _______ _______ _____ _____    ______ ____
ROOT
ATOM      1  C   UNL     1      49.609   7.786  12.578  0.00  0.00    +0.000 A 
ATOM      2  C   UNL     1      48.808   7.700  11.447  0.00  0.00    +0.000 A 
ATOM      3  C   UNL     1      47.471   7.332  11.587  0.00  0.00    +0.000 A 
ATOM      4  C   UNL     1      46.958   7.051  12.849  0.00  0.00    +0.000 A 
ATOM      5  N   UNL     1      45.653   6.719  13.079  0.00  0.00    +0.000 N 
ATOM      6  N   UNL     1      47.738   7.093  13.948  0.00  0.00    +0.000 NA
ATOM      7  C   UNL     1      49.040   7.449  13.795  0.00  0.00    +0.000 A 
ATOM      8  H   UNL     1      45.457   6.465  14.039  0.00  0.00    +0.000 HD
ENDROOT
BRANCH   1  10
ATOM      9  N   UNL     1      51.785   7.708  11.518  0.00  0.00    +0.000 N 
ATOM     10  C   UNL     1      51.018   8.217  12.530  0.00  0.00    +0.000 C 
ATOM     11  O   UNL     1      51.475   9.023  13.329  0.00  0.00    +0.000 OA
ATOM     12  H   UNL     1      52.722   8.088  11.430  0.00  0.00    +0.000 HD
ATOM     13  H   UNL     1      51.389   7.244  10.711  0.00  0.00    +0.000 HD
ENDBRANCH   1  10
BRANCH   5  14
ATOM     14  C   UNL     1      44.609   6.589  12.091  0.00  0.00    +0.000 C 
BRANCH  14  15
ATOM     15  C   UNL     1      44.431   5.187  11.549  0.00  0.00    +0.000 A 
ATOM     16  C   UNL     1      43.472   4.356  12.143  0.00  0.00    +0.000 A 
ATOM     17  C   UNL     1      43.260   3.065  11.665  0.00  0.00    +0.000 A 
ATOM     18  C   UNL     1      43.989   2.594  10.572  0.00  0.00    +0.000 A 
ATOM     19  C   UNL     1      44.936   3.402   9.921  0.00  0.00    +0.000 A 
ATOM     20  C   UNL     1      45.158   4.687  10.454  0.00  0.00    +0.000 A 
BRANCH  19  21
ATOM     21  C   UNL     1      45.613   2.968   8.675  0.00  0.00    +0.000 A 
ATOM     22  C   UNL     1      45.958   3.900   7.677  0.00  0.00    +0.000 A 
ATOM     23  C   UNL     1      46.684   3.527   6.543  0.00  0.00    +0.000 A 
ATOM     24  C   UNL     1      47.091   2.207   6.381  0.00  0.00    +0.000 A 
ATOM     25  C   UNL     1      46.752   1.259   7.340  0.00  0.00    +0.000 A 
ATOM     26  C   UNL     1      46.013   1.634   8.467  0.00  0.00    +0.000 A 
ENDBRANCH  19  21
ENDBRANCH  14  15
ENDBRANCH   5  14
TORSDOF 4
ENDMDL
MODEL 4
REMARK VINA RESULT:    -7.522      4.828      8.392
REMARK INTER + INTRA:         -10.068
REMARK INTER:                  -9.525
REMARK INTRA:                  -0.544
REMARK UNBOUND:                -0.788
REMARK  Name = 
REMARK  4 active torsions:
REMARK  status: ('A' for Active; 'I' for Inactive)
REMARK    1  A    between atoms: C_2  and  C_4
REMARK    2  A    between atoms: N_8  and  C_9
REMARK    3  A    between atoms: C_9  and  C_10
REMARK    4  A    between atoms: C_14  and  C_15
REMARK                            x       y       z     vdW  Elec       q    Type
REMARK                         _______ _______ _______ _____ _____    ______ ____
ROOT
ATOM      1  C   UNL     1      48.641   4.374  18.159  0.00  0.00    +0.000 A 
ATOM      2  C   UNL     1      48.706   5.459  17.295  0.00  0.00    +0.000 A 
ATOM      3  C   UNL     1      47.944   5.445  16.128  0.00  0.00    +0.000 A 
ATOM      4  C   UNL     1      47.136   4.349  15.841  0.00  0.00    +0.000 A 
ATOM      5  N   UNL     1      46.333   4.269  14.740  0.00  0.00    +0.000 N 
ATOM      6  N   UNL     1      47.099   3.273  16.654  0.00  0.00    +0.000 NA
ATOM      7  C   UNL     1      47.850   3.301  17.785  0.00  0.00    +0.000 A 
ATOM      8  H   UNL     1      45.872   3.374  14.633  0.00  0.00    +0.000 HD
ENDROOT
BRANCH   1  10
ATOM      9  N   UNL     1      48.682   3.859  20.526  0.00  0.00    +0.000 N 
ATOM     10  C   UNL     1      49.372   4.326  19.440  0.00  0.00    +0.000 C 
ATOM     11  O   UNL     1      50.549   4.648  19.525  0.00  0.00    +0.000 OA
ATOM     12  H   UNL     1      49.220   3.732  21.377  0.00  0.00    +0.000 HD
ATOM     13  H   UNL     1      47.805   3.362  20.446  0.00  0.00    +0.000 HD
ENDBRANCH   1  10
BRANCH   5  14
ATOM     14  C   UNL     1      46.187   5.262  13.703  0.00  0.00    +0.000 C 
BRANCH  14  15
ATOM     15  C   UNL     1      45.299   4.841  12.552  0.00  0.00    +0.000 A 
ATOM     16  C   UNL     1      43.934   5.149  12.613  0.00  0.00    +0.000 A 
ATOM     17  C   UNL     1      43.081   4.798  11.568  0.00  0.00    +0.000 A 
ATOM     18  C   UNL     1      43.587   4.153  10.438  0.00  0.00    +0.000 A 
ATOM     19  C   UNL     1      44.954   3.855  10.316  0.00  0.00    +0.000 A 
ATOM     20  C   UNL     1      45.783   4.184  11.407  0.00  0.00    +0.000 A 
BRANCH  19  21
ATOM     21  C   UNL     1      45.527   3.301   9.065  0.00  0.00    +0.000 A 
ATOM     22  C   UNL     1      45.963   4.152   8.031  0.00  0.00    +0.000 A 
ATOM     23  C   UNL     1      46.596   3.655   6.889  0.00  0.00    +0.000 A 
ATOM     24  C   UNL     1      46.817   2.289   6.755  0.00  0.00    +0.000 A 
ATOM     25  C   UNL     1      46.383   1.420   7.751  0.00  0.00    +0.000 A 
ATOM     26  C   UNL     1      45.737   1.921   8.886  0.00  0.00    +0.000 A 
ENDBRANCH  19  21
ENDBRANCH  14  15
ENDBRANCH   5  14
TORSDOF 4
ENDMDL
MODEL 5
REMARK VINA RESULT:    -7.296      1.398      2.117
REMARK INTER + INTRA:          -9.790
REMARK INTER:                  -9.148
REMARK INTRA:                  -0.641
REMARK UNBOUND:                -0.788
REMARK  Name = 
REMARK  4 active torsions:
REMARK  status: ('A' for Active; 'I' for Inactive)
REMARK    1  A    between atoms: C_2  and  C_4
REMARK    2  A    between atoms: N_8  and  C_9
REMARK    3  A    between atoms: C_9  and  C_10
REMARK    4  A    between atoms: C_14  and  C_15
REMARK                            x       y       z     vdW  Elec       q    Type
REMARK                         _______ _______ _______ _____ _____    ______ ____
ROOT
ATOM      1  C   UNL     1      45.759   2.384   8.402  0.00  0.00    +0.000 A 
ATOM      2  C   UNL     1      45.947   3.754   8.529  0.00  0.00    +0.000 A 
ATOM      3  C   UNL     1      45.154   4.468   9.426  0.00  0.00    +0.000 A 
ATOM      4  C   UNL     1      44.187   3.806  10.176  0.00  0.00    +0.000 A 
ATOM      5  N   UNL     1      43.394   4.422  11.101  0.00  0.00    +0.000 N 
ATOM      6  N   UNL     1      43.970   2.483  10.028  0.00  0.00    +0.000 NA
ATOM      7  C   UNL     1      44.748   1.802   9.147  0.00  0.00    +0.000 A 
ATOM      8  H   UNL     1      42.686   3.818  11.501  0.00  0.00    +0.000 HD
ENDROOT
BRANCH   1  10
ATOM      9  N   UNL     1      47.057   2.127   6.373  0.00  0.00    +0.000 N 
ATOM     10  C   UNL     1      46.586   1.542   7.517  0.00  0.00    +0.000 C 
ATOM     11  O   UNL     1      46.874   0.389   7.805  0.00  0.00    +0.000 OA
ATOM     12  H   UNL     1      47.708   1.575   5.823  0.00  0.00    +0.000 HD
ATOM     13  H   UNL     1      47.048   3.127   6.225  0.00  0.00    +0.000 HD
ENDBRANCH   1  10
BRANCH   5  14
ATOM     14  C   UNL     1      43.403   5.822  11.451  0.00  0.00    +0.000 C 
BRANCH  14  15
ATOM     15  C   UNL     1      44.676   6.292  12.121  0.00  0.00    +0.000 A 
ATOM     16  C   UNL     1      45.314   5.431  13.023  0.00  0.00    +0.000 A 
ATOM     17  C   UNL     1      46.498   5.813  13.650  0.00  0.00    +0.000 A 
ATOM     18  C   UNL     1      47.072   7.054  13.367  0.00  0.00    +0.000 A 
ATOM     19  C   UNL     1      46.487   7.936  12.443  0.00  0.00    +0.000 A 
ATOM     20  C   UNL     1      45.269   7.540  11.858  0.00  0.00    +0.000 A 
BRANCH  19  21
ATOM     21  C   UNL     1      47.158   9.192  12.026  0.00  0.00    +0.000 A 
ATOM     22  C   UNL     1      48.550   9.232  11.816  0.00  0.00    +0.000 A 
ATOM     23  C   UNL     1      49.185  10.377  11.327  0.00  0.00    +0.000 A 
ATOM     24  C   UNL     1      48.440  11.513  11.030  0.00  0.00    +0.000 A 
ATOM     25  C   UNL     1      47.066  11.510  11.243  0.00  0.00    +0.000 A 
ATOM     26  C   UNL     1      46.436  10.367  11.745  0.00  0.00    +0.000 A 
ENDBRANCH  19  21
ENDBRANCH  14  15
ENDBRANCH   5  14
TORSDOF 4
ENDMDL
MODEL 6
REMARK VINA RESULT:    -6.637      6.409      8.623
REMARK INTER + INTRA:          -8.976
REMARK INTER:                  -8.196
REMARK INTRA:                  -0.781
REMARK UNBOUND:                -0.788
REMARK  Name = 
REMARK  4 active torsions:
REMARK  status: ('A' for Active; 'I' for Inactive)
REMARK    1  A    between atoms: C_2  and  C_4
REMARK    2  A    between atoms: N_8  and  C_9
REMARK    3  A    between atoms: C_9  and  C_10
REMARK    4  A    between atoms: C_14  and  C_15
REMARK                            x       y       z     vdW  Elec       q    Type
REMARK                         _______ _______ _______ _____ _____    ______ ____
ROOT
ATOM      1  C   UNL     1      52.568   2.249  18.026  0.00  0.00    +0.000 A 
ATOM      2  C   UNL     1      51.946   3.467  18.272  0.00  0.00    +0.000 A 
ATOM      3  C   UNL     1      50.610   3.632  17.913  0.00  0.00    +0.000 A 
ATOM      4  C   UNL     1      49.919   2.586  17.311  0.00  0.00    +0.000 A 
ATOM      5  N   UNL     1      48.600   2.651  16.961  0.00  0.00    +0.000 N 
ATOM      6  N   UNL     1      50.525   1.414  17.031  0.00  0.00    +0.000 NA
ATOM      7  C   UNL     1      51.829   1.269  17.383  0.00  0.00    +0.000 A 
ATOM      8  H   UNL     1      48.268   1.837  16.459  0.00  0.00    +0.000 HD
ENDROOT
BRANCH   1  10
ATOM      9  N   UNL     1      54.933   2.736  17.837  0.00  0.00    +0.000 N 
ATOM     10  C   UNL     1      53.961   1.968  18.419  0.00  0.00    +0.000 C 
ATOM     11  O   UNL     1      54.238   1.119  19.255  0.00  0.00    +0.000 OA
ATOM     12  H   UNL     1      55.876   2.607  18.189  0.00  0.00    +0.000 HD
ATOM     13  H   UNL     1      54.729   3.594  17.341  0.00  0.00    +0.000 HD
ENDBRANCH   1  10
BRANCH   5  14
ATOM     14  C   UNL     1      47.717   3.780  17.131  0.00  0.00    +0.000 C 
BRANCH  14  15
ATOM     15  C   UNL     1      47.661   4.717  15.943  0.00  0.00    +0.000 A 
ATOM     16  C   UNL     1      48.504   5.835  15.933  0.00  0.00    +0.000 A 
ATOM     17  C   UNL     1      48.501   6.715  14.853  0.00  0.00    +0.000 A 
ATOM     18  C   UNL     1      47.669   6.476  13.757  0.00  0.00    +0.000 A 
ATOM     19  C   UNL     1      46.832   5.348  13.707  0.00  0.00    +0.000 A 
ATOM     20  C   UNL     1      46.826   4.501  14.832  0.00  0.00    +0.000 A 
BRANCH  19  21
ATOM     21  C   UNL     1      46.051   5.005  12.493  0.00  0.00    +0.000 A 
ATOM     22  C   UNL     1      46.050   5.856  11.370  0.00  0.00    +0.000 A 
ATOM     23  C   UNL     1      45.404   5.503  10.183  0.00  0.00    +0.000 A 
ATOM     24  C   UNL     1      44.745   4.283  10.086  0.00  0.00    +0.000 A 
ATOM     25  C   UNL     1      44.713   3.428  11.183  0.00  0.00    +0.000 A 
ATOM     26  C   UNL     1      45.350   3.791  12.374  0.00  0.00    +0.000 A 
ENDBRANCH  19  21
ENDBRANCH  14  15
ENDBRANCH   5  14
TORSDOF 4
ENDMDL
MODEL 7
REMARK VINA RESULT:    -6.454      4.950      8.246
REMARK INTER + INTRA:          -8.751
REMARK INTER:                  -8.184
REMARK INTRA:                  -0.567
REMARK UNBOUND:                -0.788
REMARK  Name = 
REMARK  4 active torsions:
REMARK  status: ('A' for Active; 'I' for Inactive)
REMARK    1  A    between atoms: C_2  and  C_4
REMARK    2  A    between atoms: N_8  and  C_9
REMARK    3  A    between atoms: C_9  and  C_10
REMARK    4  A    between atoms: C_14  and  C_15
REMARK                            x       y       z     vdW  Elec       q    Type
REMARK                         _______ _______ _______ _____ _____    ______ ____
ROOT
ATOM      1  C   UNL     1      49.782   8.593  15.896  0.00  0.00    +0.000 A 
ATOM      2  C   UNL     1      48.716   9.309  15.368  0.00  0.00    +0.000 A 
ATOM      3  C   UNL     1      47.792   8.652  14.556  0.00  0.00    +0.000 A 
ATOM      4  C   UNL     1      47.950   7.297  14.282  0.00  0.00    +0.000 A 
ATOM      5  N   UNL     1      47.074   6.570  13.527  0.00  0.00    +0.000 N 
ATOM      6  N   UNL     1      49.005   6.604  14.757  0.00  0.00    +0.000 NA
ATOM      7  C   UNL     1      49.898   7.259  15.543  0.00  0.00    +0.000 A 
ATOM      8  H   UNL     1      47.374   5.619  13.353  0.00  0.00    +0.000 HD
ENDROOT
BRANCH   1  10
ATOM      9  N   UNL     1      51.758   9.953  16.230  0.00  0.00    +0.000 N 
ATOM     10  C   UNL     1      50.776   9.193  16.805  0.00  0.00    +0.000 C 
ATOM     11  O   UNL     1      50.708   9.056  18.019  0.00  0.00    +0.000 OA
ATOM     12  H   UNL     1      52.375  10.445  16.868  0.00  0.00    +0.000 HD
ATOM     13  H   UNL     1      51.705  10.286  15.277  0.00  0.00    +0.000 HD
ENDBRANCH   1  10
BRANCH   5  14
ATOM     14  C   UNL     1      45.875   7.057  12.888  0.00  0.00    +0.000 C 
BRANCH  14  15
ATOM     15  C   UNL     1      45.074   5.994  12.167  0.00  0.00    +0.000 A 
ATOM     16  C   UNL     1      43.732   5.810  12.524  0.00  0.00    +0.000 A 
ATOM     17  C   UNL     1      42.950   4.857  11.874  0.00  0.00    +0.000 A 
ATOM     18  C   UNL     1      43.495   4.088  10.844  0.00  0.00    +0.000 A 
ATOM     19  C   UNL     1      44.826   4.261  10.427  0.00  0.00    +0.000 A 
ATOM     20  C   UNL     1      45.602   5.202  11.131  0.00  0.00    +0.000 A 
BRANCH  19  21
ATOM     21  C   UNL     1      45.374   3.555   9.244  0.00  0.00    +0.000 A 
ATOM     22  C   UNL     1      45.934   4.273   8.169  0.00  0.00    +0.000 A 
ATOM     23  C   UNL     1      46.546   3.625   7.093  0.00  0.00    +0.000 A 
ATOM     24  C   UNL     1      46.617   2.237   7.067  0.00  0.00    +0.000 A 
ATOM     25  C   UNL     1      46.058   1.499   8.104  0.00  0.00    +0.000 A 
ATOM     26  C   UNL     1      45.435   2.151   9.173  0.00  0.00    +0.000 A 
ENDBRANCH  19  21
ENDBRANCH  14  15
ENDBRANCH   5  14
TORSDOF 4
ENDMDL
MODEL 8
REMARK VINA RESULT:    -6.449      3.923      6.211
REMARK INTER + INTRA:          -8.745
REMARK INTER:                  -7.919
REMARK INTRA:                  -0.826
REMARK UNBOUND:                -0.788
REMARK  Name = 
REMARK  4 active torsions:
REMARK  status: ('A' for Active; 'I' for Inactive)
REMARK    1  A    between atoms: C_2  and  C_4
REMARK    2  A    between atoms: N_8  and  C_9
REMARK    3  A    between atoms: C_9  and  C_10
REMARK    4  A    between atoms: C_14  and  C_15
REMARK                            x       y       z     vdW  Elec       q    Type
REMARK                         _______ _______ _______ _____ _____    ______ ____
ROOT
ATOM      1  C   UNL     1      44.249   4.204  11.431  0.00  0.00    +0.000 A 
ATOM      2  C   UNL     1      45.085   5.034  10.697  0.00  0.00    +0.000 A 
ATOM      3  C   UNL     1      45.430   6.281  11.215  0.00  0.00    +0.000 A 
ATOM      4  C   UNL     1      44.932   6.680  12.451  0.00  0.00    +0.000 A 
ATOM      5  N   UNL     1      45.248   7.868  13.047  0.00  0.00    +0.000 N 
ATOM      6  N   UNL     1      44.087   5.897  13.152  0.00  0.00    +0.000 NA
ATOM      7  C   UNL     1      43.757   4.686  12.632  0.00  0.00    +0.000 A 
ATOM      8  H   UNL     1      44.740   8.044  13.905  0.00  0.00    +0.000 HD
ENDROOT
BRANCH   1  10
ATOM      9  N   UNL     1      44.631   2.296   9.989  0.00  0.00    +0.000 N 
ATOM     10  C   UNL     1      43.874   2.849  10.985  0.00  0.00    +0.000 C 
ATOM     11  O   UNL     1      42.957   2.227  11.505  0.00  0.00    +0.000 OA
ATOM     12  H   UNL     1      44.433   1.327   9.760  0.00  0.00    +0.000 HD
ATOM     13  H   UNL     1      45.530   2.669   9.712  0.00  0.00    +0.000 HD
ENDBRANCH   1  10
BRANCH   5  14
ATOM     14  C   UNL     1      46.113   8.895  12.519  0.00  0.00    +0.000 C 
BRANCH  14  15
ATOM     15  C   UNL     1      47.590   8.634  12.717  0.00  0.00    +0.000 A 
ATOM     16  C   UNL     1      48.492   9.133  11.769  0.00  0.00    +0.000 A 
ATOM     17  C   UNL     1      49.862   8.933  11.920  0.00  0.00    +0.000 A 
ATOM     18  C   UNL     1      50.352   8.249  13.034  0.00  0.00    +0.000 A 
ATOM     19  C   UNL     1      49.489   7.761  14.030  0.00  0.00    +0.000 A 
ATOM     20  C   UNL     1      48.107   7.941  13.827  0.00  0.00    +0.000 A 
BRANCH  19  21
ATOM     21  C   UNL     1      50.002   7.160  15.285  0.00  0.00    +0.000 A 
ATOM     22  C   UNL     1      49.150   6.437  16.141  0.00  0.00    +0.000 A 
ATOM     23  C   UNL     1      49.634   5.779  17.275  0.00  0.00    +0.000 A 
ATOM     24  C   UNL     1      50.990   5.825  17.580  0.00  0.00    +0.000 A 
ATOM     25  C   UNL     1      51.855   6.545  16.763  0.00  0.00    +0.000 A 
ATOM     26  C   UNL     1      51.364   7.213  15.637  0.00  0.00    +0.000 A 
ENDBRANCH  19  21
ENDBRANCH  14  15
ENDBRANCH   5  14
TORSDOF 4
ENDMDL
MODEL 9
REMARK VINA RESULT:    -6.365      4.330      6.045
REMARK INTER + INTRA:          -8.641
REMARK INTER:                  -7.846
REMARK INTRA:                  -0.795
REMARK UNBOUND:                -0.788
REMARK  Name = 
REMARK  4 active torsions:
REMARK  status: ('A' for Active; 'I' for Inactive)
REMARK    1  A    between atoms: C_2  and  C_4
REMARK    2  A    between atoms: N_8  and  C_9
REMARK    3  A    between atoms: C_9  and  C_10
REMARK    4  A    between atoms: C_14  and  C_15
REMARK                            x       y       z     vdW  Elec       q    Type
REMARK                         _______ _______ _______ _____ _____    ______ ____
ROOT
ATOM      1  C   UNL     1      44.375   4.215  11.520  0.00  0.00    +0.000 A 
ATOM      2  C   UNL     1      45.151   5.049  10.725  0.00  0.00    +0.000 A 
ATOM      3  C   UNL     1      45.596   6.263  11.245  0.00  0.00    +0.000 A 
ATOM      4  C   UNL     1      45.256   6.627  12.544  0.00  0.00    +0.000 A 
ATOM      5  N   UNL     1      45.678   7.779  13.143  0.00  0.00    +0.000 N 
ATOM      6  N   UNL     1      44.469   5.843  13.309  0.00  0.00    +0.000 NA
ATOM      7  C   UNL     1      44.039   4.664  12.786  0.00  0.00    +0.000 A 
ATOM      8  H   UNL     1      45.277   7.936  14.059  0.00  0.00    +0.000 HD
ENDROOT
BRANCH   1  10
ATOM      9  N   UNL     1      44.597   2.307  10.045  0.00  0.00    +0.000 N 
ATOM     10  C   UNL     1      43.905   2.892  11.070  0.00  0.00    +0.000 C 
ATOM     11  O   UNL     1      42.968   2.320  11.611  0.00  0.00    +0.000 OA
ATOM     12  H   UNL     1      44.333   1.355   9.812  0.00  0.00    +0.000 HD
ATOM     13  H   UNL     1      45.508   2.629   9.745  0.00  0.00    +0.000 HD
ENDBRANCH   1  10
BRANCH   5  14
ATOM     14  C   UNL     1      46.513   8.800  12.557  0.00  0.00    +0.000 C 
BRANCH  14  15
ATOM     15  C   UNL     1      47.991   8.642  12.844  0.00  0.00    +0.000 A 
ATOM     16  C   UNL     1      48.392   8.377  14.160  0.00  0.00    +0.000 A 
ATOM     17  C   UNL     1      49.740   8.204  14.468  0.00  0.00    +0.000 A 
ATOM     18  C   UNL     1      50.704   8.274  13.461  0.00  0.00    +0.000 A 
ATOM     19  C   UNL     1      50.346   8.504  12.121  0.00  0.00    +0.000 A 
ATOM     20  C   UNL     1      48.981   8.716  11.848  0.00  0.00    +0.000 A 
BRANCH  19  21
ATOM     21  C   UNL     1      51.341   8.438  11.023  0.00  0.00    +0.000 A 
ATOM     22  C   UNL     1      51.623   7.220  10.375  0.00  0.00    +0.000 A 
ATOM     23  C   UNL     1      52.480   7.157   9.273  0.00  0.00    +0.000 A 
ATOM     24  C   UNL     1      53.075   8.316   8.787  0.00  0.00    +0.000 A 
ATOM     25  C   UNL     1      52.830   9.532   9.415  0.00  0.00    +0.000 A 
ATOM     26  C   UNL     1      51.981   9.589  10.526  0.00  0.00    +0.000 A 
ENDBRANCH  19  21
ENDBRANCH  14  15
ENDBRANCH   5  14
TORSDOF 4
ENDMDL
