MODEL 1
REMARK VINA RESULT:    -8.499      0.000      0.000
REMARK INTER + INTRA:         -13.552
REMARK INTER:                 -12.473
REMARK INTRA:                  -1.078
REMARK UNBOUND:                -1.078
REMARK  Name = 
REMARK  9 active torsions:
REMARK  status: ('A' for Active; 'I' for Inactive)
REMARK    1  A    between atoms: C_1  and  O_2
REMARK    2  A    between atoms: O_2  and  C_3
REMARK    3  A    between atoms: C_3  and  C_4
REMARK    4  A    between atoms: C_3  and  C_18
REMARK    5  A    between atoms: C_4  and  N_5
REMARK    6  A    between atoms: C_6  and  C_8
REMARK    7  A    between atoms: C_21  and  O_22
REMARK    8  A    between atoms: O_22  and  C_23
REMARK    9  A    between atoms: C_23  and  C_24
REMARK                            x       y       z     vdW  Elec       q    Type
REMARK                         _______ _______ _______ _____ _____    ______ ____
ROOT
ATOM      1  C   UNL     1      47.559   6.014  13.824  0.00  0.00    +0.000 C 
ENDROOT
BRANCH   1   2
ATOM      2  C   UNL     1      46.615   5.415  12.782  0.00  0.00    +0.000 A 
ATOM      3  C   UNL     1      46.372   6.080  11.567  0.00  0.00    +0.000 A 
ATOM      4  C   UNL     1      45.524   5.535  10.599  0.00  0.00    +0.000 A 
ATOM      5  C   UNL     1      44.922   4.299  10.816  0.00  0.00    +0.000 A 
ATOM      6  C   UNL     1      45.122   3.644  12.028  0.00  0.00    +0.000 A 
ATOM      7  C   UNL     1      45.977   4.183  12.988  0.00  0.00    +0.000 A 
BRANCH   5   8
ATOM      8  O   UNL     1      44.169   3.806   9.787  0.00  0.00    +0.000 OA
BRANCH   8   9
ATOM      9  C   UNL     1      44.426   2.430   9.485  0.00  0.00    +0.000 C 
BRANCH   9  10
ATOM     10  C   UNL     1      45.431   2.317   8.369  0.00  0.00    +0.000 A 
ATOM     11  C   UNL     1      45.638   3.394   7.509  0.00  0.00    +0.000 A 
ATOM     12  C   UNL     1      46.623   3.292   6.535  0.00  0.00    +0.000 A 
ATOM     13  C   UNL     1      47.371   2.124   6.449  0.00  0.00    +0.000 A 
ATOM     14  C   UNL     1      47.106   1.103   7.346  0.00  0.00    +0.000 A 
ATOM     15  N   UNL     1      46.161   1.175   8.305  0.00  0.00    +0.000 NA
ENDBRANCH   9  10
ENDBRANCH   8   9
ENDBRANCH   5   8
ENDBRANCH   1   2
BRANCH   1  17
ATOM     16  C   UNL     1      48.604   8.178  13.707  0.00  0.00    +0.000 C 
ATOM     17  O   UNL     1      47.395   7.442  13.774  0.00  0.00    +0.000 OA
ENDBRANCH   1  17
BRANCH   1  18
ATOM     18  C   UNL     1      47.345   5.473  15.263  0.00  0.00    +0.000 C 
BRANCH  18  19
ATOM     19  N   UNL     1      48.600   5.144  15.919  0.00  0.00    +0.000 N 
ATOM     20  C   UNL     1      48.689   4.856  17.252  0.00  0.00    +0.000 C 
ATOM     21  O   UNL     1      47.722   4.956  18.003  0.00  0.00    +0.000 OA
ATOM     22  H   UNL     1      49.389   4.967  15.300  0.00  0.00    +0.000 HD
BRANCH  20  23
ATOM     23  C   UNL     1      50.009   4.440  17.746  0.00  0.00    +0.000 A 
ATOM     24  C   UNL     1      50.757   5.305  18.533  0.00  0.00    +0.000 A 
ATOM     25  S   UNL     1      52.235   4.642  19.067  0.00  0.00    +0.000 S 
ATOM     26  C   UNL     1      51.913   3.160  18.293  0.00  0.00    +0.000 A 
ATOM     27  N   UNL     1      52.769   2.109  18.409  0.00  0.00    +0.000 NA
ATOM     28  C   UNL     1      52.380   1.036  17.805  0.00  0.00    +0.000 A 
ATOM     29  N   UNL     1      51.223   0.924  17.080  0.00  0.00    +0.000 N 
ATOM     30  C   UNL     1      50.369   1.978  16.874  0.00  0.00    +0.000 A 
ATOM     31  O   UNL     1      49.411   1.877  16.115  0.00  0.00    +0.000 OA
ATOM     32  C   UNL     1      50.722   3.190  17.592  0.00  0.00    +0.000 A 
ATOM     33  H   UNL     1      50.994   0.070  16.593  0.00  0.00    +0.000 HD
ENDBRANCH  20  23
ENDBRANCH  18  19
ENDBRANCH   1  18
TORSDOF 8
ENDMDL
MODEL 2
REMARK VINA RESULT:    -7.577      3.244      4.253
REMARK INTER + INTRA:         -12.199
REMARK INTER:                 -11.146
REMARK INTRA:                  -1.053
REMARK UNBOUND:                -1.078
REMARK  Name = 
REMARK  9 active torsions:
REMARK  status: ('A' for Active; 'I' for Inactive)
REMARK    1  A    between atoms: C_1  and  O_2
REMARK    2  A    between atoms: O_2  and  C_3
REMARK    3  A    between atoms: C_3  and  C_4
REMARK    4  A    between atoms: C_3  and  C_18
REMARK    5  A    between atoms: C_4  and  N_5
REMARK    6  A    between atoms: C_6  and  C_8
REMARK    7  A    between atoms: C_21  and  O_22
REMARK    8  A    between atoms: O_22  and  C_23
REMARK    9  A    between atoms: C_23  and  C_24
REMARK                            x       y       z     vdW  Elec       q    Type
REMARK                         _______ _______ _______ _____ _____    ______ ____
ROOT
ATOM      1  C   UNL     1      46.891   5.534  14.069  0.00  0.00    +0.000 C 
ENDROOT
BRANCH   1   2
ATOM      2  C   UNL     1      46.181   5.028  12.813  0.00  0.00    +0.000 A 
ATOM      3  C   UNL     1      45.634   3.733  12.771  0.00  0.00    +0.000 A 
ATOM      4  C   UNL     1      44.967   3.265  11.635  0.00  0.00    +0.000 A 
ATOM      5  C   UNL     1      44.811   4.093  10.528  0.00  0.00    +0.000 A 
ATOM      6  C   UNL     1      45.379   5.365  10.539  0.00  0.00    +0.000 A 
ATOM      7  C   UNL     1      46.033   5.835  11.677  0.00  0.00    +0.000 A 
BRANCH   5   8
ATOM      8  O   UNL     1      44.083   3.582   9.491  0.00  0.00    +0.000 OA
BRANCH   8   9
ATOM      9  C   UNL     1      44.413   2.229   9.158  0.00  0.00    +0.000 C 
BRANCH   9  10
ATOM     10  C   UNL     1      45.534   2.195   8.153  0.00  0.00    +0.000 A 
ATOM     11  C   UNL     1      45.759   3.295   7.327  0.00  0.00    +0.000 A 
ATOM     12  C   UNL     1      46.846   3.268   6.461  0.00  0.00    +0.000 A 
ATOM     13  C   UNL     1      47.671   2.150   6.445  0.00  0.00    +0.000 A 
ATOM     14  C   UNL     1      47.380   1.102   7.301  0.00  0.00    +0.000 A 
ATOM     15  N   UNL     1      46.338   1.102   8.157  0.00  0.00    +0.000 NA
ENDBRANCH   9  10
ENDBRANCH   8   9
ENDBRANCH   5   8
ENDBRANCH   1   2
BRANCH   1  17
ATOM     16  C   UNL     1      47.217   4.137  16.001  0.00  0.00    +0.000 C 
ATOM     17  O   UNL     1      47.569   4.408  14.656  0.00  0.00    +0.000 OA
ENDBRANCH   1  17
BRANCH   1  18
ATOM     18  C   UNL     1      47.871   6.711  13.816  0.00  0.00    +0.000 C 
BRANCH  18  19
ATOM     19  N   UNL     1      48.039   7.549  14.992  0.00  0.00    +0.000 N 
ATOM     20  C   UNL     1      49.082   7.408  15.863  0.00  0.00    +0.000 C 
ATOM     21  O   UNL     1      49.895   6.493  15.758  0.00  0.00    +0.000 OA
ATOM     22  H   UNL     1      47.432   8.365  15.043  0.00  0.00    +0.000 HD
BRANCH  20  23
ATOM     23  C   UNL     1      49.172   8.398  16.945  0.00  0.00    +0.000 A 
ATOM     24  C   UNL     1      49.738   9.642  16.698  0.00  0.00    +0.000 A 
ATOM     25  S   UNL     1      49.709  10.687  18.046  0.00  0.00    +0.000 S 
ATOM     26  C   UNL     1      48.908   9.527  18.999  0.00  0.00    +0.000 A 
ATOM     27  N   UNL     1      48.522   9.812  20.272  0.00  0.00    +0.000 NA
ATOM     28  C   UNL     1      47.888   8.855  20.864  0.00  0.00    +0.000 A 
ATOM     29  N   UNL     1      47.623   7.632  20.306  0.00  0.00    +0.000 N 
ATOM     30  C   UNL     1      48.060   7.274  19.055  0.00  0.00    +0.000 A 
ATOM     31  O   UNL     1      47.917   6.130  18.638  0.00  0.00    +0.000 OA
ATOM     32  C   UNL     1      48.715   8.340  18.317  0.00  0.00    +0.000 A 
ATOM     33  H   UNL     1      47.162   6.907  20.835  0.00  0.00    +0.000 HD
ENDBRANCH  20  23
ENDBRANCH  18  19
ENDBRANCH   1  18
TORSDOF 8
ENDMDL
MODEL 3
REMARK VINA RESULT:    -7.472      2.121      2.945
REMARK INTER + INTRA:         -12.044
REMARK INTER:                 -11.243
REMARK INTRA:                  -0.801
REMARK UNBOUND:                -1.078
REMARK  Name = 
REMARK  9 active torsions:
REMARK  status: ('A' for Active; 'I' for Inactive)
REMARK    1  A    between atoms: C_1  and  O_2
REMARK    2  A    between atoms: O_2  and  C_3
REMARK    3  A    between atoms: C_3  and  C_4
REMARK    4  A    between atoms: C_3  and  C_18
REMARK    5  A    between atoms: C_4  and  N_5
REMARK    6  A    between atoms: C_6  and  C_8
REMARK    7  A    between atoms: C_21  and  O_22
REMARK    8  A    between atoms: O_22  and  C_23
REMARK    9  A    between atoms: C_23  and  C_24
REMARK                            x       y       z     vdW  Elec       q    Type
REMARK                         _______ _______ _______ _____ _____    ______ ____
ROOT
ATOM      1  C   UNL     1      46.885   5.023  14.546  0.00  0.00    +0.000 C 
ENDROOT
BRANCH   1   2
ATOM      2  C   UNL     1      46.228   4.776  13.188  0.00  0.00    +0.000 A 
ATOM      3  C   UNL     1      45.657   3.527  12.884  0.00  0.00    +0.000 A 
ATOM      4  C   UNL     1      45.038   3.293  11.653  0.00  0.00    +0.000 A 
ATOM      5  C   UNL     1      44.955   4.313  10.710  0.00  0.00    +0.000 A 
ATOM      6  C   UNL     1      45.548   5.544  10.980  0.00  0.00    +0.000 A 
ATOM      7  C   UNL     1      46.154   5.780  12.213  0.00  0.00    +0.000 A 
BRANCH   5   8
ATOM      8  O   UNL     1      44.269   4.021   9.565  0.00  0.00    +0.000 OA
BRANCH   8   9
ATOM      9  C   UNL     1      44.321   2.640   9.191  0.00  0.00    +0.000 C 
BRANCH   9  10
ATOM     10  C   UNL     1      45.434   2.406   8.204  0.00  0.00    +0.000 A 
ATOM     11  C   UNL     1      45.784   3.410   7.302  0.00  0.00    +0.000 A 
ATOM     12  C   UNL     1      46.863   3.197   6.452  0.00  0.00    +0.000 A 
ATOM     13  C   UNL     1      47.557   1.996   6.528  0.00  0.00    +0.000 A 
ATOM     14  C   UNL     1      47.147   1.054   7.455  0.00  0.00    +0.000 A 
ATOM     15  N   UNL     1      46.110   1.233   8.296  0.00  0.00    +0.000 NA
ENDBRANCH   9  10
ENDBRANCH   8   9
ENDBRANCH   5   8
ENDBRANCH   1   2
BRANCH   1  17
ATOM     16  C   UNL     1      47.447   3.492  16.315  0.00  0.00    +0.000 C 
ATOM     17  O   UNL     1      47.532   3.798  14.934  0.00  0.00    +0.000 OA
ENDBRANCH   1  17
BRANCH   1  18
ATOM     18  C   UNL     1      47.879   6.215  14.565  0.00  0.00    +0.000 C 
BRANCH  18  19
ATOM     19  N   UNL     1      48.386   6.487  15.900  0.00  0.00    +0.000 N 
ATOM     20  C   UNL     1      49.703   6.744  16.158  0.00  0.00    +0.000 C 
ATOM     21  O   UNL     1      50.562   6.662  15.284  0.00  0.00    +0.000 OA
ATOM     22  H   UNL     1      47.679   6.650  16.616  0.00  0.00    +0.000 HD
BRANCH  20  23
ATOM     23  C   UNL     1      50.042   7.105  17.541  0.00  0.00    +0.000 A 
ATOM     24  C   UNL     1      50.004   8.435  17.937  0.00  0.00    +0.000 A 
ATOM     25  S   UNL     1      50.370   8.670  19.587  0.00  0.00    +0.000 S 
ATOM     26  C   UNL     1      50.560   6.997  19.839  0.00  0.00    +0.000 A 
ATOM     27  N   UNL     1      50.823   6.502  21.079  0.00  0.00    +0.000 NA
ATOM     28  C   UNL     1      50.901   5.214  21.133  0.00  0.00    +0.000 A 
ATOM     29  N   UNL     1      50.760   4.378  20.057  0.00  0.00    +0.000 N 
ATOM     30  C   UNL     1      50.570   4.836  18.778  0.00  0.00    +0.000 A 
ATOM     31  O   UNL     1      50.577   4.068  17.822  0.00  0.00    +0.000 OA
ATOM     32  C   UNL     1      50.401   6.275  18.671  0.00  0.00    +0.000 A 
ATOM     33  H   UNL     1      50.876   3.380  20.153  0.00  0.00    +0.000 HD
ENDBRANCH  20  23
ENDBRANCH  18  19
ENDBRANCH   1  18
TORSDOF 8
ENDMDL
MODEL 4
REMARK VINA RESULT:    -7.298      2.516      3.276
REMARK INTER + INTRA:         -11.789
REMARK INTER:                 -10.746
REMARK INTRA:                  -1.043
REMARK UNBOUND:                -1.078
REMARK  Name = 
REMARK  9 active torsions:
REMARK  status: ('A' for Active; 'I' for Inactive)
REMARK    1  A    between atoms: C_1  and  O_2
REMARK    2  A    between atoms: O_2  and  C_3
REMARK    3  A    between atoms: C_3  and  C_4
REMARK    4  A    between atoms: C_3  and  C_18
REMARK    5  A    between atoms: C_4  and  N_5
REMARK    6  A    between atoms: C_6  and  C_8
REMARK    7  A    between atoms: C_21  and  O_22
REMARK    8  A    between atoms: O_22  and  C_23
REMARK    9  A    between atoms: C_23  and  C_24
REMARK                            x       y       z     vdW  Elec       q    Type
REMARK                         _______ _______ _______ _____ _____    ______ ____
ROOT
ATOM      1  C   UNL     1      48.318   7.462  13.000  0.00  0.00    +0.000 C 
ENDROOT
BRANCH   1   2
ATOM      2  C   UNL     1      47.232   6.506  12.507  0.00  0.00    +0.000 A 
ATOM      3  C   UNL     1      46.492   6.797  11.347  0.00  0.00    +0.000 A 
ATOM      4  C   UNL     1      45.508   5.923  10.877  0.00  0.00    +0.000 A 
ATOM      5  C   UNL     1      45.263   4.726  11.542  0.00  0.00    +0.000 A 
ATOM      6  C   UNL     1      45.961   4.438  12.712  0.00  0.00    +0.000 A 
ATOM      7  C   UNL     1      46.950   5.305  13.174  0.00  0.00    +0.000 A 
BRANCH   5   8
ATOM      8  O   UNL     1      44.338   3.897  10.972  0.00  0.00    +0.000 OA
BRANCH   8   9
ATOM      9  C   UNL     1      44.124   4.136   9.576  0.00  0.00    +0.000 C 
BRANCH   9  10
ATOM     10  C   UNL     1      45.177   3.438   8.757  0.00  0.00    +0.000 A 
ATOM     11  C   UNL     1      45.375   2.065   8.904  0.00  0.00    +0.000 A 
ATOM     12  C   UNL     1      46.300   1.432   8.084  0.00  0.00    +0.000 A 
ATOM     13  C   UNL     1      46.997   2.182   7.144  0.00  0.00    +0.000 A 
ATOM     14  C   UNL     1      46.738   3.539   7.060  0.00  0.00    +0.000 A 
ATOM     15  N   UNL     1      45.842   4.181   7.837  0.00  0.00    +0.000 NA
ENDBRANCH   9  10
ENDBRANCH   8   9
ENDBRANCH   5   8
ENDBRANCH   1   2
BRANCH   1  17
ATOM     16  C   UNL     1      50.286   8.101  11.771  0.00  0.00    +0.000 C 
ATOM     17  O   UNL     1      48.871   8.110  11.840  0.00  0.00    +0.000 OA
ENDBRANCH   1  17
BRANCH   1  18
ATOM     18  C   UNL     1      47.826   8.500  14.043  0.00  0.00    +0.000 C 
BRANCH  18  19
ATOM     19  N   UNL     1      47.917   7.998  15.404  0.00  0.00    +0.000 N 
ATOM     20  C   UNL     1      48.582   8.660  16.399  0.00  0.00    +0.000 C 
ATOM     21  O   UNL     1      49.230   9.679  16.177  0.00  0.00    +0.000 OA
ATOM     22  H   UNL     1      47.313   7.209  15.626  0.00  0.00    +0.000 HD
BRANCH  20  23
ATOM     23  C   UNL     1      48.495   8.078  17.745  0.00  0.00    +0.000 A 
ATOM     24  C   UNL     1      48.138   8.879  18.822  0.00  0.00    +0.000 A 
ATOM     25  S   UNL     1      48.030   8.033  20.299  0.00  0.00    +0.000 S 
ATOM     26  C   UNL     1      48.425   6.558  19.547  0.00  0.00    +0.000 A 
ATOM     27  N   UNL     1      48.445   5.395  20.252  0.00  0.00    +0.000 NA
ATOM     28  C   UNL     1      48.719   4.348  19.547  0.00  0.00    +0.000 A 
ATOM     29  N   UNL     1      48.996   4.361  18.206  0.00  0.00    +0.000 N 
ATOM     30  C   UNL     1      49.063   5.518  17.471  0.00  0.00    +0.000 A 
ATOM     31  O   UNL     1      49.438   5.506  16.303  0.00  0.00    +0.000 OA
ATOM     32  C   UNL     1      48.689   6.719  18.199  0.00  0.00    +0.000 A 
ATOM     33  H   UNL     1      49.248   3.515  17.717  0.00  0.00    +0.000 HD
ENDBRANCH  20  23
ENDBRANCH  18  19
ENDBRANCH   1  18
TORSDOF 8
ENDMDL
MODEL 5
REMARK VINA RESULT:    -7.266      2.609      3.484
REMARK INTER + INTRA:         -11.743
REMARK INTER:                 -10.666
REMARK INTRA:                  -1.077
REMARK UNBOUND:                -1.078
REMARK  Name = 
REMARK  9 active torsions:
REMARK  status: ('A' for Active; 'I' for Inactive)
REMARK    1  A    between atoms: C_1  and  O_2
REMARK    2  A    between atoms: O_2  and  C_3
REMARK    3  A    between atoms: C_3  and  C_4
REMARK    4  A    between atoms: C_3  and  C_18
REMARK    5  A    between atoms: C_4  and  N_5
REMARK    6  A    between atoms: C_6  and  C_8
REMARK    7  A    between atoms: C_21  and  O_22
REMARK    8  A    between atoms: O_22  and  C_23
REMARK    9  A    between atoms: C_23  and  C_24
REMARK                            x       y       z     vdW  Elec       q    Type
REMARK                         _______ _______ _______ _____ _____    ______ ____
ROOT
ATOM      1  C   UNL     1      47.025   5.720  14.275  0.00  0.00    +0.000 C 
ENDROOT
BRANCH   1   2
ATOM      2  C   UNL     1      46.332   5.266  12.991  0.00  0.00    +0.000 A 
ATOM      3  C   UNL     1      45.715   4.004  12.915  0.00  0.00    +0.000 A 
ATOM      4  C   UNL     1      45.063   3.584  11.753  0.00  0.00    +0.000 A 
ATOM      5  C   UNL     1      44.992   4.429  10.650  0.00  0.00    +0.000 A 
ATOM      6  C   UNL     1      45.628   5.667  10.694  0.00  0.00    +0.000 A 
ATOM      7  C   UNL     1      46.268   6.090  11.858  0.00  0.00    +0.000 A 
BRANCH   5   8
ATOM      8  O   UNL     1      44.272   3.969   9.583  0.00  0.00    +0.000 OA
BRANCH   8   9
ATOM      9  C   UNL     1      44.441   2.570   9.327  0.00  0.00    +0.000 C 
BRANCH   9  10
ATOM     10  C   UNL     1      45.482   2.355   8.260  0.00  0.00    +0.000 A 
ATOM     11  C   UNL     1      45.747   3.364   7.335  0.00  0.00    +0.000 A 
ATOM     12  C   UNL     1      46.764   3.169   6.409  0.00  0.00    +0.000 A 
ATOM     13  C   UNL     1      47.484   1.981   6.433  0.00  0.00    +0.000 A 
ATOM     14  C   UNL     1      47.160   1.032   7.388  0.00  0.00    +0.000 A 
ATOM     15  N   UNL     1      46.184   1.194   8.303  0.00  0.00    +0.000 NA
ENDBRANCH   9  10
ENDBRANCH   8   9
ENDBRANCH   5   8
ENDBRANCH   1   2
BRANCH   1  17
ATOM     16  C   UNL     1      47.392   4.199  16.104  0.00  0.00    +0.000 C 
ATOM     17  O   UNL     1      47.750   4.588  14.789  0.00  0.00    +0.000 OA
ENDBRANCH   1  17
BRANCH   1  18
ATOM     18  C   UNL     1      47.956   6.949  14.096  0.00  0.00    +0.000 C 
BRANCH  18  19
ATOM     19  N   UNL     1      49.287   6.713  14.630  0.00  0.00    +0.000 N 
ATOM     20  C   UNL     1      49.646   7.042  15.907  0.00  0.00    +0.000 C 
ATOM     21  O   UNL     1      48.887   7.652  16.656  0.00  0.00    +0.000 OA
ATOM     22  H   UNL     1      49.896   6.129  14.058  0.00  0.00    +0.000 HD
BRANCH  20  23
ATOM     23  C   UNL     1      50.995   6.645  16.332  0.00  0.00    +0.000 A 
ATOM     24  C   UNL     1      51.152   5.722  17.357  0.00  0.00    +0.000 A 
ATOM     25  S   UNL     1      52.780   5.331  17.684  0.00  0.00    +0.000 S 
ATOM     26  C   UNL     1      53.333   6.358  16.444  0.00  0.00    +0.000 A 
ATOM     27  N   UNL     1      54.658   6.444  16.144  0.00  0.00    +0.000 NA
ATOM     28  C   UNL     1      54.931   7.229  15.155  0.00  0.00    +0.000 A 
ATOM     29  N   UNL     1      54.002   7.951  14.453  0.00  0.00    +0.000 N 
ATOM     30  C   UNL     1      52.667   7.954  14.769  0.00  0.00    +0.000 A 
ATOM     31  O   UNL     1      51.884   8.708  14.202  0.00  0.00    +0.000 OA
ATOM     32  C   UNL     1      52.295   7.031  15.827  0.00  0.00    +0.000 A 
ATOM     33  H   UNL     1      54.282   8.582  13.717  0.00  0.00    +0.000 HD
ENDBRANCH  20  23
ENDBRANCH  18  19
ENDBRANCH   1  18
TORSDOF 8
ENDMDL
MODEL 6
REMARK VINA RESULT:    -6.748      3.997      5.480
REMARK INTER + INTRA:         -10.982
REMARK INTER:                  -9.939
REMARK INTRA:                  -1.043
REMARK UNBOUND:                -1.078
REMARK  Name = 
REMARK  9 active torsions:
REMARK  status: ('A' for Active; 'I' for Inactive)
REMARK    1  A    between atoms: C_1  and  O_2
REMARK    2  A    between atoms: O_2  and  C_3
REMARK    3  A    between atoms: C_3  and  C_4
REMARK    4  A    between atoms: C_3  and  C_18
REMARK    5  A    between atoms: C_4  and  N_5
REMARK    6  A    between atoms: C_6  and  C_8
REMARK    7  A    between atoms: C_21  and  O_22
REMARK    8  A    between atoms: O_22  and  C_23
REMARK    9  A    between atoms: C_23  and  C_24
REMARK                            x       y       z     vdW  Elec       q    Type
REMARK                         _______ _______ _______ _____ _____    ______ ____
ROOT
ATOM      1  C   UNL     1      47.846   7.138  13.759  0.00  0.00    +0.000 C 
ENDROOT
BRANCH   1   2
ATOM      2  C   UNL     1      46.936   6.263  12.897  0.00  0.00    +0.000 A 
ATOM      3  C   UNL     1      46.537   4.989  13.340  0.00  0.00    +0.000 A 
ATOM      4  C   UNL     1      45.692   4.186  12.569  0.00  0.00    +0.000 A 
ATOM      5  C   UNL     1      45.206   4.653  11.352  0.00  0.00    +0.000 A 
ATOM      6  C   UNL     1      45.620   5.896  10.881  0.00  0.00    +0.000 A 
ATOM      7  C   UNL     1      46.454   6.701  11.656  0.00  0.00    +0.000 A 
BRANCH   5   8
ATOM      8  O   UNL     1      44.326   3.835  10.700  0.00  0.00    +0.000 OA
BRANCH   8   9
ATOM      9  C   UNL     1      44.224   4.092   9.295  0.00  0.00    +0.000 C 
BRANCH   9  10
ATOM     10  C   UNL     1      45.295   3.344   8.546  0.00  0.00    +0.000 A 
ATOM     11  C   UNL     1      45.466   1.977   8.760  0.00  0.00    +0.000 A 
ATOM     12  C   UNL     1      46.411   1.296   8.002  0.00  0.00    +0.000 A 
ATOM     13  C   UNL     1      47.152   1.994   7.057  0.00  0.00    +0.000 A 
ATOM     14  C   UNL     1      46.916   3.350   6.903  0.00  0.00    +0.000 A 
ATOM     15  N   UNL     1      46.003   4.037   7.618  0.00  0.00    +0.000 NA
ENDBRANCH   9  10
ENDBRANCH   8   9
ENDBRANCH   5   8
ENDBRANCH   1   2
BRANCH   1  17
ATOM     16  C   UNL     1      48.860   6.376  15.804  0.00  0.00    +0.000 C 
ATOM     17  O   UNL     1      48.799   6.266  14.392  0.00  0.00    +0.000 OA
ENDBRANCH   1  17
BRANCH   1  18
ATOM     18  C   UNL     1      48.558   8.277  12.980  0.00  0.00    +0.000 C 
BRANCH  18  19
ATOM     19  N   UNL     1      49.988   8.046  12.854  0.00  0.00    +0.000 N 
ATOM     20  C   UNL     1      50.806   8.841  12.101  0.00  0.00    +0.000 C 
ATOM     21  O   UNL     1      50.363   9.748  11.401  0.00  0.00    +0.000 OA
ATOM     22  H   UNL     1      50.383   7.361  13.496  0.00  0.00    +0.000 HD
BRANCH  20  23
ATOM     23  C   UNL     1      52.244   8.542  12.158  0.00  0.00    +0.000 A 
ATOM     24  C   UNL     1      53.013   9.046  13.198  0.00  0.00    +0.000 A 
ATOM     25  S   UNL     1      54.646   8.556  13.141  0.00  0.00    +0.000 S 
ATOM     26  C   UNL     1      54.376   7.626  11.742  0.00  0.00    +0.000 A 
ATOM     27  N   UNL     1      55.373   6.879  11.194  0.00  0.00    +0.000 NA
ATOM     28  C   UNL     1      55.018   6.191  10.160  0.00  0.00    +0.000 A 
ATOM     29  N   UNL     1      53.762   6.197   9.613  0.00  0.00    +0.000 N 
ATOM     30  C   UNL     1      52.748   6.992  10.085  0.00  0.00    +0.000 A 
ATOM     31  O   UNL     1      51.676   7.069   9.495  0.00  0.00    +0.000 OA
ATOM     32  C   UNL     1      53.073   7.731  11.293  0.00  0.00    +0.000 A 
ATOM     33  H   UNL     1      53.555   5.672   8.776  0.00  0.00    +0.000 HD
ENDBRANCH  20  23
ENDBRANCH  18  19
ENDBRANCH   1  18
TORSDOF 8
ENDMDL
MODEL 7
REMARK VINA RESULT:    -6.674      3.828      8.334
REMARK INTER + INTRA:         -10.873
REMARK INTER:                  -9.681
REMARK INTRA:                  -1.192
REMARK UNBOUND:                -1.078
REMARK  Name = 
REMARK  9 active torsions:
REMARK  status: ('A' for Active; 'I' for Inactive)
REMARK    1  A    between atoms: C_1  and  O_2
REMARK    2  A    between atoms: O_2  and  C_3
REMARK    3  A    between atoms: C_3  and  C_4
REMARK    4  A    between atoms: C_3  and  C_18
REMARK    5  A    between atoms: C_4  and  N_5
REMARK    6  A    between atoms: C_6  and  C_8
REMARK    7  A    between atoms: C_21  and  O_22
REMARK    8  A    between atoms: O_22  and  C_23
REMARK    9  A    between atoms: C_23  and  C_24
REMARK                            x       y       z     vdW  Elec       q    Type
REMARK                         _______ _______ _______ _____ _____    ______ ____
ROOT
ATOM      1  C   UNL     1      49.389   8.841  13.264  0.00  0.00    +0.000 C 
ENDROOT
BRANCH   1   2
ATOM      2  C   UNL     1      49.507   8.354  14.708  0.00  0.00    +0.000 A 
ATOM      3  C   UNL     1      48.594   8.784  15.687  0.00  0.00    +0.000 A 
ATOM      4  C   UNL     1      48.680   8.333  17.007  0.00  0.00    +0.000 A 
ATOM      5  C   UNL     1      49.666   7.420  17.368  0.00  0.00    +0.000 A 
ATOM      6  C   UNL     1      50.601   7.012  16.421  0.00  0.00    +0.000 A 
ATOM      7  C   UNL     1      50.507   7.453  15.101  0.00  0.00    +0.000 A 
BRANCH   5   8
ATOM      8  O   UNL     1      49.632   6.975  18.660  0.00  0.00    +0.000 OA
BRANCH   8   9
ATOM      9  C   UNL     1      48.473   6.196  18.976  0.00  0.00    +0.000 C 
BRANCH   9  10
ATOM     10  C   UNL     1      48.514   4.876  18.252  0.00  0.00    +0.000 A 
ATOM     11  C   UNL     1      47.481   4.528  17.384  0.00  0.00    +0.000 A 
ATOM     12  C   UNL     1      47.579   3.340  16.671  0.00  0.00    +0.000 A 
ATOM     13  C   UNL     1      48.701   2.538  16.844  0.00  0.00    +0.000 A 
ATOM     14  C   UNL     1      49.684   2.959  17.722  0.00  0.00    +0.000 A 
ATOM     15  N   UNL     1      49.620   4.109  18.422  0.00  0.00    +0.000 NA
ENDBRANCH   9  10
ENDBRANCH   8   9
ENDBRANCH   5   8
ENDBRANCH   1   2
BRANCH   1  17
ATOM     16  C   UNL     1      50.493  10.349  11.748  0.00  0.00    +0.000 C 
ATOM     17  O   UNL     1      50.478   9.753  13.033  0.00  0.00    +0.000 OA
ENDBRANCH   1  17
BRANCH   1  18
ATOM     18  C   UNL     1      49.375   7.704  12.207  0.00  0.00    +0.000 C 
BRANCH  18  19
ATOM     19  N   UNL     1      48.026   7.270  11.884  0.00  0.00    +0.000 N 
ATOM     20  C   UNL     1      47.370   6.297  12.585  0.00  0.00    +0.000 C 
ATOM     21  O   UNL     1      47.922   5.656  13.476  0.00  0.00    +0.000 OA
ATOM     22  H   UNL     1      47.524   7.850  11.214  0.00  0.00    +0.000 HD
BRANCH  20  23
ATOM     23  C   UNL     1      45.973   6.043  12.204  0.00  0.00    +0.000 A 
ATOM     24  C   UNL     1      45.202   7.073  11.681  0.00  0.00    +0.000 A 
ATOM     25  S   UNL     1      43.626   6.592  11.240  0.00  0.00    +0.000 S 
ATOM     26  C   UNL     1      43.928   4.982  11.701  0.00  0.00    +0.000 A 
ATOM     27  N   UNL     1      42.989   4.014  11.522  0.00  0.00    +0.000 NA
ATOM     28  C   UNL     1      43.368   2.831  11.877  0.00  0.00    +0.000 A 
ATOM     29  N   UNL     1      44.592   2.532  12.415  0.00  0.00    +0.000 N 
ATOM     30  C   UNL     1      45.540   3.487  12.684  0.00  0.00    +0.000 A 
ATOM     31  O   UNL     1      46.573   3.204  13.282  0.00  0.00    +0.000 OA
ATOM     32  C   UNL     1      45.194   4.825  12.235  0.00  0.00    +0.000 A 
ATOM     33  H   UNL     1      44.815   1.595  12.715  0.00  0.00    +0.000 HD
ENDBRANCH  20  23
ENDBRANCH  18  19
ENDBRANCH   1  18
TORSDOF 8
ENDMDL
MODEL 8
REMARK VINA RESULT:    -6.589      4.173      5.715
REMARK INTER + INTRA:         -10.749
REMARK INTER:                  -9.670
REMARK INTRA:                  -1.080
REMARK UNBOUND:                -1.078
REMARK  Name = 
REMARK  9 active torsions:
REMARK  status: ('A' for Active; 'I' for Inactive)
REMARK    1  A    between atoms: C_1  and  O_2
REMARK    2  A    between atoms: O_2  and  C_3
REMARK    3  A    between atoms: C_3  and  C_4
REMARK    4  A    between atoms: C_3  and  C_18
REMARK    5  A    between atoms: C_4  and  N_5
REMARK    6  A    between atoms: C_6  and  C_8
REMARK    7  A    between atoms: C_21  and  O_22
REMARK    8  A    between atoms: O_22  and  C_23
REMARK    9  A    between atoms: C_23  and  C_24
REMARK                            x       y       z     vdW  Elec       q    Type
REMARK                         _______ _______ _______ _____ _____    ______ ____
ROOT
ATOM      1  C   UNL     1      47.442   7.183  13.945  0.00  0.00    +0.000 C 
ENDROOT
BRANCH   1   2
ATOM      2  C   UNL     1      46.658   6.173  13.108  0.00  0.00    +0.000 A 
ATOM      3  C   UNL     1      46.213   6.503  11.816  0.00  0.00    +0.000 A 
ATOM      4  C   UNL     1      45.509   5.582  11.034  0.00  0.00    +0.000 A 
ATOM      5  C   UNL     1      45.261   4.302  11.520  0.00  0.00    +0.000 A 
ATOM      6  C   UNL     1      45.662   3.970  12.811  0.00  0.00    +0.000 A 
ATOM      7  C   UNL     1      46.374   4.885  13.585  0.00  0.00    +0.000 A 
BRANCH   5   8
ATOM      8  O   UNL     1      44.634   3.443  10.661  0.00  0.00    +0.000 OA
BRANCH   8   9
ATOM      9  C   UNL     1      44.583   3.906   9.307  0.00  0.00    +0.000 C 
BRANCH   9  10
ATOM     10  C   UNL     1      45.493   3.082   8.437  0.00  0.00    +0.000 A 
ATOM     11  C   UNL     1      46.269   3.702   7.459  0.00  0.00    +0.000 A 
ATOM     12  C   UNL     1      47.156   2.930   6.720  0.00  0.00    +0.000 A 
ATOM     13  C   UNL     1      47.244   1.567   6.977  0.00  0.00    +0.000 A 
ATOM     14  C   UNL     1      46.441   1.030   7.969  0.00  0.00    +0.000 A 
ATOM     15  N   UNL     1      45.577   1.754   8.707  0.00  0.00    +0.000 NA
ENDBRANCH   9  10
ENDBRANCH   8   9
ENDBRANCH   5   8
ENDBRANCH   1   2
BRANCH   1  17
ATOM     16  C   UNL     1      49.422   6.808  15.260  0.00  0.00    +0.000 C 
ATOM     17  O   UNL     1      48.808   6.732  13.985  0.00  0.00    +0.000 OA
ENDBRANCH   1  17
BRANCH   1  18
ATOM     18  C   UNL     1      47.349   8.645  13.430  0.00  0.00    +0.000 C 
BRANCH  18  19
ATOM     19  N   UNL     1      48.484   9.008  12.597  0.00  0.00    +0.000 N 
ATOM     20  C   UNL     1      49.486   9.833  13.024  0.00  0.00    +0.000 C 
ATOM     21  O   UNL     1      49.438  10.400  14.113  0.00  0.00    +0.000 OA
ATOM     22  H   UNL     1      48.586   8.478  11.733  0.00  0.00    +0.000 HD
BRANCH  20  23
ATOM     23  C   UNL     1      50.617  10.021  12.106  0.00  0.00    +0.000 A 
ATOM     24  C   UNL     1      51.212  11.271  11.990  0.00  0.00    +0.000 A 
ATOM     25  S   UNL     1      52.544  11.299  10.925  0.00  0.00    +0.000 S 
ATOM     26  C   UNL     1      52.395   9.634  10.605  0.00  0.00    +0.000 A 
ATOM     27  N   UNL     1      53.285   8.992   9.801  0.00  0.00    +0.000 NA
ATOM     28  C   UNL     1      53.077   7.723   9.680  0.00  0.00    +0.000 A 
ATOM     29  N   UNL     1      52.046   7.042  10.273  0.00  0.00    +0.000 N 
ATOM     30  C   UNL     1      51.082   7.660  11.029  0.00  0.00    +0.000 A 
ATOM     31  O   UNL     1      50.105   7.042  11.438  0.00  0.00    +0.000 OA
ATOM     32  C   UNL     1      51.311   9.076  11.258  0.00  0.00    +0.000 A 
ATOM     33  H   UNL     1      51.908   6.056  10.105  0.00  0.00    +0.000 HD
ENDBRANCH  20  23
ENDBRANCH  18  19
ENDBRANCH   1  18
TORSDOF 8
ENDMDL
MODEL 9
REMARK VINA RESULT:    -6.568      3.250      8.623
REMARK INTER + INTRA:         -10.718
REMARK INTER:                  -9.249
REMARK INTRA:                  -1.469
REMARK UNBOUND:                -1.078
REMARK  Name = 
REMARK  9 active torsions:
REMARK  status: ('A' for Active; 'I' for Inactive)
REMARK    1  A    between atoms: C_1  and  O_2
REMARK    2  A    between atoms: O_2  and  C_3
REMARK    3  A    between atoms: C_3  and  C_4
REMARK    4  A    between atoms: C_3  and  C_18
REMARK    5  A    between atoms: C_4  and  N_5
REMARK    6  A    between atoms: C_6  and  C_8
REMARK    7  A    between atoms: C_21  and  O_22
REMARK    8  A    between atoms: O_22  and  C_23
REMARK    9  A    between atoms: C_23  and  C_24
REMARK                            x       y       z     vdW  Elec       q    Type
REMARK                         _______ _______ _______ _____ _____    ______ ____
ROOT
ATOM      1  C   UNL     1      49.088   8.360  12.526  0.00  0.00    +0.000 C 
ENDROOT
BRANCH   1   2
ATOM      2  C   UNL     1      49.157   8.124  14.034  0.00  0.00    +0.000 A 
ATOM      3  C   UNL     1      48.215   8.713  14.897  0.00  0.00    +0.000 A 
ATOM      4  C   UNL     1      48.257   8.491  16.276  0.00  0.00    +0.000 A 
ATOM      5  C   UNL     1      49.227   7.653  16.818  0.00  0.00    +0.000 A 
ATOM      6  C   UNL     1      50.189   7.091  15.984  0.00  0.00    +0.000 A 
ATOM      7  C   UNL     1      50.140   7.303  14.607  0.00  0.00    +0.000 A 
BRANCH   5   8
ATOM      8  O   UNL     1      49.149   7.432  18.164  0.00  0.00    +0.000 OA
BRANCH   8   9
ATOM      9  C   UNL     1      48.056   6.593  18.555  0.00  0.00    +0.000 C 
BRANCH   9  10
ATOM     10  C   UNL     1      48.275   5.186  18.066  0.00  0.00    +0.000 A 
ATOM     11  C   UNL     1      47.352   4.599  17.201  0.00  0.00    +0.000 A 
ATOM     12  C   UNL     1      47.615   3.328  16.706  0.00  0.00    +0.000 A 
ATOM     13  C   UNL     1      48.786   2.683  17.085  0.00  0.00    +0.000 A 
ATOM     14  C   UNL     1      49.652   3.338  17.943  0.00  0.00    +0.000 A 
ATOM     15  N   UNL     1      49.428   4.572  18.435  0.00  0.00    +0.000 NA
ENDBRANCH   9  10
ENDBRANCH   8   9
ENDBRANCH   5   8
ENDBRANCH   1   2
BRANCH   1  17
ATOM     16  C   UNL     1      50.845   7.692  11.024  0.00  0.00    +0.000 C 
ATOM     17  O   UNL     1      49.804   7.284  11.894  0.00  0.00    +0.000 OA
ENDBRANCH   1  17
BRANCH   1  18
ATOM     18  C   UNL     1      47.645   8.480  11.966  0.00  0.00    +0.000 C 
BRANCH  18  19
ATOM     19  N   UNL     1      46.938   7.211  11.992  0.00  0.00    +0.000 N 
ATOM     20  C   UNL     1      45.574   7.119  11.981  0.00  0.00    +0.000 C 
ATOM     21  O   UNL     1      44.857   8.114  12.049  0.00  0.00    +0.000 OA
ATOM     22  H   UNL     1      47.511   6.382  11.843  0.00  0.00    +0.000 HD
BRANCH  20  23
ATOM     23  C   UNL     1      45.009   5.765  11.904  0.00  0.00    +0.000 A 
ATOM     24  C   UNL     1      44.342   5.231  12.999  0.00  0.00    +0.000 A 
ATOM     25  S   UNL     1      43.700   3.676  12.718  0.00  0.00    +0.000 S 
ATOM     26  C   UNL     1      44.261   3.673  11.111  0.00  0.00    +0.000 A 
ATOM     27  N   UNL     1      43.987   2.635  10.275  0.00  0.00    +0.000 NA
ATOM     28  C   UNL     1      44.439   2.784   9.074  0.00  0.00    +0.000 A 
ATOM     29  N   UNL     1      45.156   3.867   8.639  0.00  0.00    +0.000 N 
ATOM     30  C   UNL     1      45.520   4.900   9.466  0.00  0.00    +0.000 A 
ATOM     31  O   UNL     1      46.270   5.789   9.076  0.00  0.00    +0.000 OA
ATOM     32  C   UNL     1      44.976   4.818  10.810  0.00  0.00    +0.000 A 
ATOM     33  H   UNL     1      45.521   3.907   7.699  0.00  0.00    +0.000 HD
ENDBRANCH  20  23
ENDBRANCH  18  19
ENDBRANCH   1  18
TORSDOF 8
ENDMDL
