MODEL 1
REMARK VINA RESULT:    -8.748      0.000      0.000
REMARK INTER + INTRA:         -11.892
REMARK INTER:                 -11.305
REMARK INTRA:                  -0.587
REMARK UNBOUND:                -0.587
REMARK  Name = 
REMARK  5 active torsions:
REMARK  status: ('A' for Active; 'I' for Inactive)
REMARK    1  A    between atoms: C_2  and  C_18
REMARK    2  A    between atoms: N_3  and  C_4
REMARK    3  A    between atoms: C_4  and  C_5
REMARK    4  A    between atoms: C_8  and  C_9
REMARK    5  A    between atoms: C_9  and  C_10
REMARK                            x       y       z     vdW  Elec       q    Type
REMARK                         _______ _______ _______ _____ _____    ______ ____
ROOT
ATOM      1  O   UNL     1      48.930   6.706  13.146  0.00  0.00    +0.000 OA
ATOM      2  C   UNL     1      48.151   6.634  14.093  0.00  0.00    +0.000 C 
ATOM      3  N   UNL     1      46.811   6.892  13.962  0.00  0.00    +0.000 N 
ATOM      4  H   UNL     1      46.239   6.981  14.794  0.00  0.00    +0.000 HD
ENDROOT
BRANCH   2   5
ATOM      5  C   UNL     1      48.602   6.208  15.423  0.00  0.00    +0.000 A 
ATOM      6  C   UNL     1      49.529   6.977  16.113  0.00  0.00    +0.000 A 
ATOM      7  S   UNL     1      49.950   6.339  17.637  0.00  0.00    +0.000 S 
ATOM      8  C   UNL     1      48.873   5.034  17.450  0.00  0.00    +0.000 A 
ATOM      9  N   UNL     1      48.715   4.113  18.435  0.00  0.00    +0.000 NA
ATOM     10  C   UNL     1      47.836   3.200  18.180  0.00  0.00    +0.000 A 
ATOM     11  N   UNL     1      47.113   3.120  17.018  0.00  0.00    +0.000 N 
ATOM     12  C   UNL     1      47.299   3.981  15.962  0.00  0.00    +0.000 A 
ATOM     13  O   UNL     1      46.744   3.794  14.884  0.00  0.00    +0.000 OA
ATOM     14  C   UNL     1      48.229   5.063  16.224  0.00  0.00    +0.000 A 
ATOM     15  H   UNL     1      46.469   2.358  16.866  0.00  0.00    +0.000 HD
ENDBRANCH   2   5
BRANCH   3  16
ATOM     16  C   UNL     1      46.222   7.328  12.723  0.00  0.00    +0.000 C 
BRANCH  16  17
ATOM     17  C   UNL     1      45.812   6.169  11.864  0.00  0.00    +0.000 A 
ATOM     18  C   UNL     1      45.182   5.050  12.408  0.00  0.00    +0.000 A 
ATOM     19  C   UNL     1      44.767   4.015  11.574  0.00  0.00    +0.000 A 
ATOM     20  C   UNL     1      45.013   4.113  10.207  0.00  0.00    +0.000 A 
ATOM     21  N   UNL     1      45.664   5.172   9.659  0.00  0.00    +0.000 NA
ATOM     22  C   UNL     1      46.049   6.164  10.494  0.00  0.00    +0.000 A 
BRANCH  20  23
ATOM     23  C   UNL     1      44.480   3.063   9.259  0.00  0.00    +0.000 C 
BRANCH  23  24
ATOM     24  C   UNL     1      45.522   2.590   8.270  0.00  0.00    +0.000 A 
ATOM     25  C   UNL     1      45.875   3.391   7.183  0.00  0.00    +0.000 A 
ATOM     26  C   UNL     1      46.795   2.906   6.258  0.00  0.00    +0.000 A 
ATOM     27  C   UNL     1      47.351   1.649   6.447  0.00  0.00    +0.000 A 
ATOM     28  C   UNL     1      46.967   0.927   7.564  0.00  0.00    +0.000 A 
ATOM     29  N   UNL     1      46.068   1.364   8.475  0.00  0.00    +0.000 NA
ENDBRANCH  23  24
ENDBRANCH  20  23
ENDBRANCH  16  17
ENDBRANCH   3  16
TORSDOF 5
ENDMDL
MODEL 2
REMARK VINA RESULT:    -8.376      1.646      2.307
REMARK INTER + INTRA:         -11.411
REMARK INTER:                 -10.968
REMARK INTRA:                  -0.443
REMARK UNBOUND:                -0.587
REMARK  Name = 
REMARK  5 active torsions:
REMARK  status: ('A' for Active; 'I' for Inactive)
REMARK    1  A    between atoms: C_2  and  C_18
REMARK    2  A    between atoms: N_3  and  C_4
REMARK    3  A    between atoms: C_4  and  C_5
REMARK    4  A    between atoms: C_8  and  C_9
REMARK    5  A    between atoms: C_9  and  C_10
REMARK                            x       y       z     vdW  Elec       q    Type
REMARK                         _______ _______ _______ _____ _____    ______ ____
ROOT
ATOM      1  O   UNL     1      48.915   6.272  14.479  0.00  0.00    +0.000 OA
ATOM      2  C   UNL     1      47.930   5.724  14.963  0.00  0.00    +0.000 C 
ATOM      3  N   UNL     1      46.707   5.733  14.343  0.00  0.00    +0.000 N 
ATOM      4  H   UNL     1      45.890   5.413  14.851  0.00  0.00    +0.000 HD
ENDROOT
BRANCH   2   5
ATOM      5  C   UNL     1      48.014   4.968  16.218  0.00  0.00    +0.000 A 
ATOM      6  C   UNL     1      47.662   3.626  16.237  0.00  0.00    +0.000 A 
ATOM      7  S   UNL     1      47.810   2.899  17.772  0.00  0.00    +0.000 S 
ATOM      8  C   UNL     1      48.394   4.342  18.460  0.00  0.00    +0.000 A 
ATOM      9  N   UNL     1      48.758   4.395  19.767  0.00  0.00    +0.000 NA
ATOM     10  C   UNL     1      49.223   5.539  20.149  0.00  0.00    +0.000 A 
ATOM     11  N   UNL     1      49.340   6.640  19.339  0.00  0.00    +0.000 N 
ATOM     12  C   UNL     1      48.910   6.656  18.034  0.00  0.00    +0.000 A 
ATOM     13  O   UNL     1      48.894   7.696  17.383  0.00  0.00    +0.000 OA
ATOM     14  C   UNL     1      48.438   5.376  17.539  0.00  0.00    +0.000 A 
ATOM     15  H   UNL     1      49.677   7.516  19.711  0.00  0.00    +0.000 HD
ENDBRANCH   2   5
BRANCH   3  16
ATOM     16  C   UNL     1      46.466   6.438  13.111  0.00  0.00    +0.000 C 
BRANCH  16  17
ATOM     17  C   UNL     1      45.904   5.535  12.054  0.00  0.00    +0.000 A 
ATOM     18  C   UNL     1      45.881   5.914  10.713  0.00  0.00    +0.000 A 
ATOM     19  C   UNL     1      45.402   5.029   9.751  0.00  0.00    +0.000 A 
ATOM     20  C   UNL     1      44.931   3.784  10.158  0.00  0.00    +0.000 A 
ATOM     21  N   UNL     1      44.902   3.408  11.463  0.00  0.00    +0.000 NA
ATOM     22  C   UNL     1      45.381   4.287  12.373  0.00  0.00    +0.000 A 
BRANCH  20  23
ATOM     23  C   UNL     1      44.506   2.757   9.133  0.00  0.00    +0.000 C 
BRANCH  23  24
ATOM     24  C   UNL     1      45.593   2.458   8.124  0.00  0.00    +0.000 A 
ATOM     25  C   UNL     1      45.821   3.327   7.056  0.00  0.00    +0.000 A 
ATOM     26  C   UNL     1      46.789   2.998   6.112  0.00  0.00    +0.000 A 
ATOM     27  C   UNL     1      47.517   1.826   6.264  0.00  0.00    +0.000 A 
ATOM     28  C   UNL     1      47.248   1.031   7.366  0.00  0.00    +0.000 A 
ATOM     29  N   UNL     1      46.306   1.315   8.294  0.00  0.00    +0.000 NA
ENDBRANCH  23  24
ENDBRANCH  20  23
ENDBRANCH  16  17
ENDBRANCH   3  16
TORSDOF 5
ENDMDL
MODEL 3
REMARK VINA RESULT:    -8.197      1.187      1.671
REMARK INTER + INTRA:         -11.179
REMARK INTER:                 -10.312
REMARK INTRA:                  -0.868
REMARK UNBOUND:                -0.587
REMARK  Name = 
REMARK  5 active torsions:
REMARK  status: ('A' for Active; 'I' for Inactive)
REMARK    1  A    between atoms: C_2  and  C_18
REMARK    2  A    between atoms: N_3  and  C_4
REMARK    3  A    between atoms: C_4  and  C_5
REMARK    4  A    between atoms: C_8  and  C_9
REMARK    5  A    between atoms: C_9  and  C_10
REMARK                            x       y       z     vdW  Elec       q    Type
REMARK                         _______ _______ _______ _____ _____    ______ ____
ROOT
ATOM      1  O   UNL     1      49.744   7.029  14.118  0.00  0.00    +0.000 OA
ATOM      2  C   UNL     1      48.816   6.913  14.912  0.00  0.00    +0.000 C 
ATOM      3  N   UNL     1      47.534   7.283  14.601  0.00  0.00    +0.000 N 
ATOM      4  H   UNL     1      46.836   7.325  15.336  0.00  0.00    +0.000 HD
ENDROOT
BRANCH   2   5
ATOM      5  C   UNL     1      49.014   6.312  16.237  0.00  0.00    +0.000 A 
ATOM      6  C   UNL     1      49.782   6.976  17.184  0.00  0.00    +0.000 A 
ATOM      7  S   UNL     1      49.916   6.140  18.664  0.00  0.00    +0.000 S 
ATOM      8  C   UNL     1      48.915   4.881  18.108  0.00  0.00    +0.000 A 
ATOM      9  N   UNL     1      48.588   3.840  18.917  0.00  0.00    +0.000 NA
ATOM     10  C   UNL     1      47.787   2.977  18.383  0.00  0.00    +0.000 A 
ATOM     11  N   UNL     1      47.299   3.057  17.104  0.00  0.00    +0.000 N 
ATOM     12  C   UNL     1      47.667   4.047  16.225  0.00  0.00    +0.000 A 
ATOM     13  O   UNL     1      47.329   4.008  15.046  0.00  0.00    +0.000 OA
ATOM     14  C   UNL     1      48.514   5.076  16.797  0.00  0.00    +0.000 A 
ATOM     15  H   UNL     1      46.707   2.327  16.735  0.00  0.00    +0.000 HD
ENDBRANCH   2   5
BRANCH   3  16
ATOM     16  C   UNL     1      47.185   7.895  13.345  0.00  0.00    +0.000 C 
BRANCH  16  17
ATOM     17  C   UNL     1      46.282   7.016  12.531  0.00  0.00    +0.000 A 
ATOM     18  C   UNL     1      45.221   7.547  11.799  0.00  0.00    +0.000 A 
ATOM     19  C   UNL     1      44.435   6.710  11.011  0.00  0.00    +0.000 A 
ATOM     20  C   UNL     1      44.717   5.346  10.992  0.00  0.00    +0.000 A 
ATOM     21  N   UNL     1      45.717   4.799  11.731  0.00  0.00    +0.000 NA
ATOM     22  C   UNL     1      46.466   5.640  12.481  0.00  0.00    +0.000 A 
BRANCH  20  23
ATOM     23  C   UNL     1      43.957   4.424  10.066  0.00  0.00    +0.000 C 
BRANCH  23  24
ATOM     24  C   UNL     1      44.866   3.668   9.123  0.00  0.00    +0.000 A 
ATOM     25  C   UNL     1      44.979   2.280   9.216  0.00  0.00    +0.000 A 
ATOM     26  C   UNL     1      45.865   1.616   8.373  0.00  0.00    +0.000 A 
ATOM     27  C   UNL     1      46.603   2.346   7.451  0.00  0.00    +0.000 A 
ATOM     28  C   UNL     1      46.415   3.717   7.405  0.00  0.00    +0.000 A 
ATOM     29  N   UNL     1      45.570   4.393   8.217  0.00  0.00    +0.000 NA
ENDBRANCH  23  24
ENDBRANCH  20  23
ENDBRANCH  16  17
ENDBRANCH   3  16
TORSDOF 5
ENDMDL
MODEL 4
REMARK VINA RESULT:    -8.004      2.469      4.194
REMARK INTER + INTRA:         -10.931
REMARK INTER:                  -9.977
REMARK INTRA:                  -0.954
REMARK UNBOUND:                -0.587
REMARK  Name = 
REMARK  5 active torsions:
REMARK  status: ('A' for Active; 'I' for Inactive)
REMARK    1  A    between atoms: C_2  and  C_18
REMARK    2  A    between atoms: N_3  and  C_4
REMARK    3  A    between atoms: C_4  and  C_5
REMARK    4  A    between atoms: C_8  and  C_9
REMARK    5  A    between atoms: C_9  and  C_10
REMARK                            x       y       z     vdW  Elec       q    Type
REMARK                         _______ _______ _______ _____ _____    ______ ____
ROOT
ATOM      1  O   UNL     1      48.900   5.896  15.217  0.00  0.00    +0.000 OA
ATOM      2  C   UNL     1      48.233   6.744  14.632  0.00  0.00    +0.000 C 
ATOM      3  N   UNL     1      47.028   6.455  14.047  0.00  0.00    +0.000 N 
ATOM      4  H   UNL     1      46.593   7.140  13.439  0.00  0.00    +0.000 HD
ENDROOT
BRANCH   2   5
ATOM      5  C   UNL     1      48.661   8.147  14.573  0.00  0.00    +0.000 A 
ATOM      6  C   UNL     1      48.750   8.888  15.744  0.00  0.00    +0.000 A 
ATOM      7  S   UNL     1      49.255  10.498  15.499  0.00  0.00    +0.000 S 
ATOM      8  C   UNL     1      49.419  10.251  13.823  0.00  0.00    +0.000 A 
ATOM      9  N   UNL     1      49.863  11.244  13.011  0.00  0.00    +0.000 NA
ATOM     10  C   UNL     1      49.980  10.909  11.768  0.00  0.00    +0.000 A 
ATOM     11  N   UNL     1      49.674   9.670  11.265  0.00  0.00    +0.000 N 
ATOM     12  C   UNL     1      49.145   8.662  12.034  0.00  0.00    +0.000 A 
ATOM     13  O   UNL     1      48.746   7.618  11.527  0.00  0.00    +0.000 OA
ATOM     14  C   UNL     1      49.054   8.968  13.449  0.00  0.00    +0.000 A 
ATOM     15  H   UNL     1      49.752   9.486  10.275  0.00  0.00    +0.000 HD
ENDBRANCH   2   5
BRANCH   3  16
ATOM     16  C   UNL     1      46.479   5.124  14.016  0.00  0.00    +0.000 C 
BRANCH  16  17
ATOM     17  C   UNL     1      45.913   4.788  12.669  0.00  0.00    +0.000 A 
ATOM     18  C   UNL     1      45.934   5.709  11.622  0.00  0.00    +0.000 A 
ATOM     19  C   UNL     1      45.448   5.345  10.369  0.00  0.00    +0.000 A 
ATOM     20  C   UNL     1      44.927   4.066  10.196  0.00  0.00    +0.000 A 
ATOM     21  N   UNL     1      44.855   3.166  11.211  0.00  0.00    +0.000 NA
ATOM     22  C   UNL     1      45.341   3.547  12.414  0.00  0.00    +0.000 A 
BRANCH  20  23
ATOM     23  C   UNL     1      44.493   3.599   8.825  0.00  0.00    +0.000 C 
BRANCH  23  24
ATOM     24  C   UNL     1      45.593   2.874   8.081  0.00  0.00    +0.000 A 
ATOM     25  C   UNL     1      46.291   3.515   7.056  0.00  0.00    +0.000 A 
ATOM     26  C   UNL     1      47.259   2.805   6.352  0.00  0.00    +0.000 A 
ATOM     27  C   UNL     1      47.520   1.486   6.697  0.00  0.00    +0.000 A 
ATOM     28  C   UNL     1      46.802   0.931   7.743  0.00  0.00    +0.000 A 
ATOM     29  N   UNL     1      45.847   1.589   8.439  0.00  0.00    +0.000 NA
ENDBRANCH  23  24
ENDBRANCH  20  23
ENDBRANCH  16  17
ENDBRANCH   3  16
TORSDOF 5
ENDMDL
MODEL 5
REMARK VINA RESULT:    -7.383      2.680      3.648
REMARK INTER + INTRA:         -10.127
REMARK INTER:                  -9.349
REMARK INTRA:                  -0.778
REMARK UNBOUND:                -0.587
REMARK  Name = 
REMARK  5 active torsions:
REMARK  status: ('A' for Active; 'I' for Inactive)
REMARK    1  A    between atoms: C_2  and  C_18
REMARK    2  A    between atoms: N_3  and  C_4
REMARK    3  A    between atoms: C_4  and  C_5
REMARK    4  A    between atoms: C_8  and  C_9
REMARK    5  A    between atoms: C_9  and  C_10
REMARK                            x       y       z     vdW  Elec       q    Type
REMARK                         _______ _______ _______ _____ _____    ______ ____
ROOT
ATOM      1  O   UNL     1      47.125   8.168  13.706  0.00  0.00    +0.000 OA
ATOM      2  C   UNL     1      48.023   7.340  13.586  0.00  0.00    +0.000 C 
ATOM      3  N   UNL     1      47.784   5.990  13.598  0.00  0.00    +0.000 N 
ATOM      4  H   UNL     1      48.565   5.347  13.662  0.00  0.00    +0.000 HD
ENDROOT
BRANCH   2   5
ATOM      5  C   UNL     1      49.415   7.749  13.365  0.00  0.00    +0.000 A 
ATOM      6  C   UNL     1      49.828   8.115  12.091  0.00  0.00    +0.000 A 
ATOM      7  S   UNL     1      51.473   8.557  12.005  0.00  0.00    +0.000 S 
ATOM      8  C   UNL     1      51.683   8.318  13.677  0.00  0.00    +0.000 A 
ATOM      9  N   UNL     1      52.878   8.562  14.273  0.00  0.00    +0.000 NA
ATOM     10  C   UNL     1      52.887   8.380  15.552  0.00  0.00    +0.000 A 
ATOM     11  N   UNL     1      51.807   7.959  16.285  0.00  0.00    +0.000 N 
ATOM     12  C   UNL     1      50.603   7.621  15.714  0.00  0.00    +0.000 A 
ATOM     13  O   UNL     1      49.706   7.108  16.377  0.00  0.00    +0.000 OA
ATOM     14  C   UNL     1      50.523   7.869  14.287  0.00  0.00    +0.000 A 
ATOM     15  H   UNL     1      51.892   7.799  17.278  0.00  0.00    +0.000 HD
ENDBRANCH   2   5
BRANCH   3  16
ATOM     16  C   UNL     1      46.473   5.436  13.814  0.00  0.00    +0.000 C 
BRANCH  16  17
ATOM     17  C   UNL     1      45.882   4.897  12.545  0.00  0.00    +0.000 A 
ATOM     18  C   UNL     1      45.787   5.684  11.398  0.00  0.00    +0.000 A 
ATOM     19  C   UNL     1      45.283   5.134  10.222  0.00  0.00    +0.000 A 
ATOM     20  C   UNL     1      44.859   3.808  10.226  0.00  0.00    +0.000 A 
ATOM     21  N   UNL     1      44.899   3.036  11.343  0.00  0.00    +0.000 NA
ATOM     22  C   UNL     1      45.401   3.595  12.468  0.00  0.00    +0.000 A 
BRANCH  20  23
ATOM     23  C   UNL     1      44.409   3.147   8.943  0.00  0.00    +0.000 C 
BRANCH  23  24
ATOM     24  C   UNL     1      45.567   2.640   8.113  0.00  0.00    +0.000 A 
ATOM     25  C   UNL     1      46.106   3.432   7.098  0.00  0.00    +0.000 A 
ATOM     26  C   UNL     1      47.134   2.917   6.313  0.00  0.00    +0.000 A 
ATOM     27  C   UNL     1      47.610   1.639   6.570  0.00  0.00    +0.000 A 
ATOM     28  C   UNL     1      47.040   0.928   7.612  0.00  0.00    +0.000 A 
ATOM     29  N   UNL     1      46.032   1.394   8.385  0.00  0.00    +0.000 NA
ENDBRANCH  23  24
ENDBRANCH  20  23
ENDBRANCH  16  17
ENDBRANCH   3  16
TORSDOF 5
ENDMDL
MODEL 6
REMARK VINA RESULT:    -7.268      1.762      2.471
REMARK INTER + INTRA:          -9.980
REMARK INTER:                  -9.133
REMARK INTRA:                  -0.847
REMARK UNBOUND:                -0.587
REMARK  Name = 
REMARK  5 active torsions:
REMARK  status: ('A' for Active; 'I' for Inactive)
REMARK    1  A    between atoms: C_2  and  C_18
REMARK    2  A    between atoms: N_3  and  C_4
REMARK    3  A    between atoms: C_4  and  C_5
REMARK    4  A    between atoms: C_8  and  C_9
REMARK    5  A    between atoms: C_9  and  C_10
REMARK                            x       y       z     vdW  Elec       q    Type
REMARK                         _______ _______ _______ _____ _____    ______ ____
ROOT
ATOM      1  O   UNL     1      49.336   9.369  15.368  0.00  0.00    +0.000 OA
ATOM      2  C   UNL     1      48.619   8.435  15.716  0.00  0.00    +0.000 C 
ATOM      3  N   UNL     1      47.846   7.734  14.828  0.00  0.00    +0.000 N 
ATOM      4  H   UNL     1      47.151   7.084  15.179  0.00  0.00    +0.000 HD
ENDROOT
BRANCH   2   5
ATOM      5  C   UNL     1      48.589   7.972  17.108  0.00  0.00    +0.000 A 
ATOM      6  C   UNL     1      48.516   8.899  18.139  0.00  0.00    +0.000 A 
ATOM      7  S   UNL     1      48.497   8.196  19.692  0.00  0.00    +0.000 S 
ATOM      8  C   UNL     1      48.540   6.623  19.042  0.00  0.00    +0.000 A 
ATOM      9  N   UNL     1      48.505   5.532  19.850  0.00  0.00    +0.000 NA
ATOM     10  C   UNL     1      48.501   4.402  19.225  0.00  0.00    +0.000 A 
ATOM     11  N   UNL     1      48.545   4.268  17.861  0.00  0.00    +0.000 N 
ATOM     12  C   UNL     1      48.663   5.339  17.008  0.00  0.00    +0.000 A 
ATOM     13  O   UNL     1      48.848   5.178  15.806  0.00  0.00    +0.000 OA
ATOM     14  C   UNL     1      48.607   6.635  17.659  0.00  0.00    +0.000 A 
ATOM     15  H   UNL     1      48.578   3.352  17.436  0.00  0.00    +0.000 HD
ENDBRANCH   2   5
BRANCH   3  16
ATOM     16  C   UNL     1      47.764   8.074  13.431  0.00  0.00    +0.000 C 
BRANCH  16  17
ATOM     17  C   UNL     1      46.747   7.238  12.714  0.00  0.00    +0.000 A 
ATOM     18  C   UNL     1      45.745   7.820  11.939  0.00  0.00    +0.000 A 
ATOM     19  C   UNL     1      44.850   7.012  11.243  0.00  0.00    +0.000 A 
ATOM     20  C   UNL     1      44.964   5.629  11.356  0.00  0.00    +0.000 A 
ATOM     21  N   UNL     1      45.904   5.039  12.140  0.00  0.00    +0.000 NA
ATOM     22  C   UNL     1      46.763   5.850  12.798  0.00  0.00    +0.000 A 
BRANCH  20  23
ATOM     23  C   UNL     1      44.082   4.721  10.530  0.00  0.00    +0.000 C 
BRANCH  23  24
ATOM     24  C   UNL     1      44.860   3.939   9.494  0.00  0.00    +0.000 A 
ATOM     25  C   UNL     1      44.859   2.544   9.518  0.00  0.00    +0.000 A 
ATOM     26  C   UNL     1      45.629   1.852   8.588  0.00  0.00    +0.000 A 
ATOM     27  C   UNL     1      46.363   2.564   7.649  0.00  0.00    +0.000 A 
ATOM     28  C   UNL     1      46.290   3.946   7.676  0.00  0.00    +0.000 A 
ATOM     29  N   UNL     1      45.562   4.649   8.574  0.00  0.00    +0.000 NA
ENDBRANCH  23  24
ENDBRANCH  20  23
ENDBRANCH  16  17
ENDBRANCH   3  16
TORSDOF 5
ENDMDL
MODEL 7
REMARK VINA RESULT:    -7.135      3.841      8.539
REMARK INTER + INTRA:          -9.808
REMARK INTER:                  -8.957
REMARK INTRA:                  -0.850
REMARK UNBOUND:                -0.587
REMARK  Name = 
REMARK  5 active torsions:
REMARK  status: ('A' for Active; 'I' for Inactive)
REMARK    1  A    between atoms: C_2  and  C_18
REMARK    2  A    between atoms: N_3  and  C_4
REMARK    3  A    between atoms: C_4  and  C_5
REMARK    4  A    between atoms: C_8  and  C_9
REMARK    5  A    between atoms: C_9  and  C_10
REMARK                            x       y       z     vdW  Elec       q    Type
REMARK                         _______ _______ _______ _____ _____    ______ ____
ROOT
ATOM      1  O   UNL     1      47.308   3.064  14.132  0.00  0.00    +0.000 OA
ATOM      2  C   UNL     1      46.838   4.095  14.605  0.00  0.00    +0.000 C 
ATOM      3  N   UNL     1      46.738   4.303  15.957  0.00  0.00    +0.000 N 
ATOM      4  H   UNL     1      46.198   5.089  16.300  0.00  0.00    +0.000 HD
ENDROOT
BRANCH   2   5
ATOM      5  C   UNL     1      46.402   5.202  13.746  0.00  0.00    +0.000 A 
ATOM      6  C   UNL     1      47.251   6.280  13.532  0.00  0.00    +0.000 A 
ATOM      7  S   UNL     1      46.592   7.480  12.516  0.00  0.00    +0.000 S 
ATOM      8  C   UNL     1      45.164   6.582  12.289  0.00  0.00    +0.000 A 
ATOM      9  N   UNL     1      44.175   7.036  11.477  0.00  0.00    +0.000 NA
ATOM     10  C   UNL     1      43.166   6.237  11.361  0.00  0.00    +0.000 A 
ATOM     11  N   UNL     1      43.054   5.029  12.000  0.00  0.00    +0.000 N 
ATOM     12  C   UNL     1      43.991   4.567  12.894  0.00  0.00    +0.000 A 
ATOM     13  O   UNL     1      43.791   3.555  13.558  0.00  0.00    +0.000 OA
ATOM     14  C   UNL     1      45.174   5.399  13.010  0.00  0.00    +0.000 A 
ATOM     15  H   UNL     1      42.219   4.470  11.897  0.00  0.00    +0.000 HD
ENDBRANCH   2   5
BRANCH   3  16
ATOM     16  C   UNL     1      47.116   3.307  16.925  0.00  0.00    +0.000 C 
BRANCH  16  17
ATOM     17  C   UNL     1      48.510   3.526  17.433  0.00  0.00    +0.000 A 
ATOM     18  C   UNL     1      49.548   2.656  17.101  0.00  0.00    +0.000 A 
ATOM     19  C   UNL     1      50.842   2.919  17.545  0.00  0.00    +0.000 A 
ATOM     20  C   UNL     1      51.065   4.043  18.336  0.00  0.00    +0.000 A 
ATOM     21  N   UNL     1      50.063   4.881  18.709  0.00  0.00    +0.000 NA
ATOM     22  C   UNL     1      48.819   4.602  18.256  0.00  0.00    +0.000 A 
BRANCH  20  23
ATOM     23  C   UNL     1      52.471   4.420  18.744  0.00  0.00    +0.000 C 
BRANCH  23  24
ATOM     24  C   UNL     1      53.268   5.015  17.603  0.00  0.00    +0.000 A 
ATOM     25  C   UNL     1      54.558   4.558  17.332  0.00  0.00    +0.000 A 
ATOM     26  C   UNL     1      55.288   5.162  16.313  0.00  0.00    +0.000 A 
ATOM     27  C   UNL     1      54.711   6.191  15.581  0.00  0.00    +0.000 A 
ATOM     28  C   UNL     1      53.417   6.569  15.896  0.00  0.00    +0.000 A 
ATOM     29  N   UNL     1      52.685   6.011  16.887  0.00  0.00    +0.000 NA
ENDBRANCH  23  24
ENDBRANCH  20  23
ENDBRANCH  16  17
ENDBRANCH   3  16
TORSDOF 5
ENDMDL
MODEL 8
REMARK VINA RESULT:    -7.057      3.275      8.016
REMARK INTER + INTRA:          -9.706
REMARK INTER:                  -8.829
REMARK INTRA:                  -0.877
REMARK UNBOUND:                -0.587
REMARK  Name = 
REMARK  5 active torsions:
REMARK  status: ('A' for Active; 'I' for Inactive)
REMARK    1  A    between atoms: C_2  and  C_18
REMARK    2  A    between atoms: N_3  and  C_4
REMARK    3  A    between atoms: C_4  and  C_5
REMARK    4  A    between atoms: C_8  and  C_9
REMARK    5  A    between atoms: C_9  and  C_10
REMARK                            x       y       z     vdW  Elec       q    Type
REMARK                         _______ _______ _______ _____ _____    ______ ____
ROOT
ATOM      1  O   UNL     1      46.165   7.916  11.807  0.00  0.00    +0.000 OA
ATOM      2  C   UNL     1      46.534   6.745  11.807  0.00  0.00    +0.000 C 
ATOM      3  N   UNL     1      47.606   6.315  12.546  0.00  0.00    +0.000 N 
ATOM      4  H   UNL     1      47.974   5.383  12.391  0.00  0.00    +0.000 HD
ENDROOT
BRANCH   2   5
ATOM      5  C   UNL     1      45.810   5.714  11.055  0.00  0.00    +0.000 A 
ATOM      6  C   UNL     1      45.938   5.655   9.674  0.00  0.00    +0.000 A 
ATOM      7  S   UNL     1      45.028   4.405   8.955  0.00  0.00    +0.000 S 
ATOM      8  C   UNL     1      44.464   3.869  10.469  0.00  0.00    +0.000 A 
ATOM      9  N   UNL     1      43.653   2.784  10.567  0.00  0.00    +0.000 NA
ATOM     10  C   UNL     1      43.334   2.461  11.777  0.00  0.00    +0.000 A 
ATOM     11  N   UNL     1      43.743   3.139  12.896  0.00  0.00    +0.000 N 
ATOM     12  C   UNL     1      44.495   4.289  12.840  0.00  0.00    +0.000 A 
ATOM     13  O   UNL     1      44.720   4.952  13.848  0.00  0.00    +0.000 OA
ATOM     14  C   UNL     1      44.933   4.657  11.506  0.00  0.00    +0.000 A 
ATOM     15  H   UNL     1      43.426   2.856  13.812  0.00  0.00    +0.000 HD
ENDBRANCH   2   5
BRANCH   3  16
ATOM     16  C   UNL     1      48.420   7.209  13.328  0.00  0.00    +0.000 C 
BRANCH  16  17
ATOM     17  C   UNL     1      48.753   6.627  14.669  0.00  0.00    +0.000 A 
ATOM     18  C   UNL     1      47.901   5.720  15.299  0.00  0.00    +0.000 A 
ATOM     19  C   UNL     1      48.267   5.159  16.519  0.00  0.00    +0.000 A 
ATOM     20  C   UNL     1      49.475   5.537  17.098  0.00  0.00    +0.000 A 
ATOM     21  N   UNL     1      50.301   6.452  16.526  0.00  0.00    +0.000 NA
ATOM     22  C   UNL     1      49.921   6.975  15.338  0.00  0.00    +0.000 A 
BRANCH  20  23
ATOM     23  C   UNL     1      49.956   4.868  18.366  0.00  0.00    +0.000 C 
BRANCH  23  24
ATOM     24  C   UNL     1      50.878   3.700  18.093  0.00  0.00    +0.000 A 
ATOM     25  C   UNL     1      50.392   2.550  17.469  0.00  0.00    +0.000 A 
ATOM     26  C   UNL     1      51.249   1.469  17.282  0.00  0.00    +0.000 A 
ATOM     27  C   UNL     1      52.568   1.568  17.702  0.00  0.00    +0.000 A 
ATOM     28  C   UNL     1      52.979   2.753  18.289  0.00  0.00    +0.000 A 
ATOM     29  N   UNL     1      52.169   3.816  18.496  0.00  0.00    +0.000 NA
ENDBRANCH  23  24
ENDBRANCH  20  23
ENDBRANCH  16  17
ENDBRANCH   3  16
TORSDOF 5
ENDMDL
MODEL 9
REMARK VINA RESULT:    -7.026      3.841      8.763
REMARK INTER + INTRA:          -9.666
REMARK INTER:                  -9.128
REMARK INTRA:                  -0.538
REMARK UNBOUND:                -0.587
REMARK  Name = 
REMARK  5 active torsions:
REMARK  status: ('A' for Active; 'I' for Inactive)
REMARK    1  A    between atoms: C_2  and  C_18
REMARK    2  A    between atoms: N_3  and  C_4
REMARK    3  A    between atoms: C_4  and  C_5
REMARK    4  A    between atoms: C_8  and  C_9
REMARK    5  A    between atoms: C_9  and  C_10
REMARK                            x       y       z     vdW  Elec       q    Type
REMARK                         _______ _______ _______ _____ _____    ______ ____
ROOT
ATOM      1  O   UNL     1      47.252   3.028  14.152  0.00  0.00    +0.000 OA
ATOM      2  C   UNL     1      46.893   4.102  14.627  0.00  0.00    +0.000 C 
ATOM      3  N   UNL     1      46.910   4.349  15.975  0.00  0.00    +0.000 N 
ATOM      4  H   UNL     1      46.454   5.181  16.334  0.00  0.00    +0.000 HD
ENDROOT
BRANCH   2   5
ATOM      5  C   UNL     1      46.474   5.216  13.769  0.00  0.00    +0.000 A 
ATOM      6  C   UNL     1      47.339   6.281  13.556  0.00  0.00    +0.000 A 
ATOM      7  S   UNL     1      46.698   7.492  12.542  0.00  0.00    +0.000 S 
ATOM      8  C   UNL     1      45.256   6.616  12.314  0.00  0.00    +0.000 A 
ATOM      9  N   UNL     1      44.274   7.087  11.502  0.00  0.00    +0.000 NA
ATOM     10  C   UNL     1      43.254   6.303  11.386  0.00  0.00    +0.000 A 
ATOM     11  N   UNL     1      43.123   5.096  12.023  0.00  0.00    +0.000 N 
ATOM     12  C   UNL     1      44.054   4.619  12.916  0.00  0.00    +0.000 A 
ATOM     13  O   UNL     1      43.838   3.609  13.579  0.00  0.00    +0.000 OA
ATOM     14  C   UNL     1      45.249   5.433  13.033  0.00  0.00    +0.000 A 
ATOM     15  H   UNL     1      42.281   4.549  11.919  0.00  0.00    +0.000 HD
ENDBRANCH   2   5
BRANCH   3  16
ATOM     16  C   UNL     1      47.288   3.352  16.943  0.00  0.00    +0.000 C 
BRANCH  16  17
ATOM     17  C   UNL     1      48.721   3.497  17.360  0.00  0.00    +0.000 A 
ATOM     18  C   UNL     1      49.667   2.518  17.057  0.00  0.00    +0.000 A 
ATOM     19  C   UNL     1      51.000   2.710  17.411  0.00  0.00    +0.000 A 
ATOM     20  C   UNL     1      51.355   3.875  18.086  0.00  0.00    +0.000 A 
ATOM     21  N   UNL     1      50.445   4.823  18.431  0.00  0.00    +0.000 NA
ATOM     22  C   UNL     1      49.160   4.611  18.067  0.00  0.00    +0.000 A 
BRANCH  20  23
ATOM     23  C   UNL     1      52.807   4.168  18.389  0.00  0.00    +0.000 C 
BRANCH  23  24
ATOM     24  C   UNL     1      53.705   2.975  18.140  0.00  0.00    +0.000 A 
ATOM     25  C   UNL     1      54.622   2.992  17.089  0.00  0.00    +0.000 A 
ATOM     26  C   UNL     1      55.395   1.859  16.849  0.00  0.00    +0.000 A 
ATOM     27  C   UNL     1      55.248   0.750  17.670  0.00  0.00    +0.000 A 
ATOM     28  C   UNL     1      54.334   0.823  18.707  0.00  0.00    +0.000 A 
ATOM     29  N   UNL     1      53.560   1.903  18.960  0.00  0.00    +0.000 NA
ENDBRANCH  23  24
ENDBRANCH  20  23
ENDBRANCH  16  17
ENDBRANCH   3  16
TORSDOF 5
ENDMDL
