MODEL 1
REMARK VINA RESULT:    -8.359      0.000      0.000
REMARK INTER + INTRA:         -13.362
REMARK INTER:                 -12.269
REMARK INTRA:                  -1.094
REMARK UNBOUND:                -1.094
REMARK  Name = 
REMARK  9 active torsions:
REMARK  status: ('A' for Active; 'I' for Inactive)
REMARK    1  A    between atoms: C_1  and  N_2
REMARK    2  A    between atoms: N_2  and  C_3
REMARK    3  A    between atoms: N_2  and  C_25
REMARK    4  A    between atoms: C_3  and  O_4
REMARK    5  A    between atoms: O_4  and  C_5
REMARK    6  A    between atoms: C_8  and  C_9
REMARK    7  A    between atoms: C_9  and  N_10
REMARK    8  A    between atoms: C_11  and  C_13
REMARK    9  A    between atoms: C_25  and  C_26
REMARK                            x       y       z     vdW  Elec       q    Type
REMARK                         _______ _______ _______ _____ _____    ______ ____
ROOT
ATOM      1  C   UNL     1      46.793   5.023  13.339  0.00  0.00    +0.000 A 
ATOM      2  C   UNL     1      47.548   6.153  13.026  0.00  0.00    +0.000 A 
ATOM      3  C   UNL     1      48.331   6.772  14.005  0.00  0.00    +0.000 A 
ATOM      4  C   UNL     1      48.375   6.263  15.308  0.00  0.00    +0.000 A 
ATOM      5  C   UNL     1      47.576   5.160  15.631  0.00  0.00    +0.000 A 
ATOM      6  C   UNL     1      46.798   4.542  14.650  0.00  0.00    +0.000 A 
ENDROOT
BRANCH   1   7
ATOM      7  O   UNL     1      46.025   4.305  12.467  0.00  0.00    +0.000 OA
BRANCH   7   8
ATOM      8  C   UNL     1      44.609   4.460  12.576  0.00  0.00    +0.000 C 
BRANCH   8  10
ATOM      9  C   UNL     1      42.631   5.216  11.448  0.00  0.00    +0.000 C 
ATOM     10  N   UNL     1      43.956   4.614  11.268  0.00  0.00    +0.000 NA
BRANCH  10  11
ATOM     11  C   UNL     1      43.823   3.329  10.567  0.00  0.00    +0.000 C 
BRANCH  11  12
ATOM     12  C   UNL     1      44.766   3.138   9.394  0.00  0.00    +0.000 A 
ATOM     13  C   UNL     1      45.220   4.252   8.668  0.00  0.00    +0.000 A 
ATOM     14  C   UNL     1      46.169   4.104   7.656  0.00  0.00    +0.000 A 
ATOM     15  C   UNL     1      46.668   2.840   7.346  0.00  0.00    +0.000 A 
ATOM     16  C   UNL     1      46.199   1.725   8.038  0.00  0.00    +0.000 A 
ATOM     17 CL   UNL     1      46.807   0.163   7.645  0.00  0.00    +0.000 Cl
ATOM     18  C   UNL     1      45.254   1.866   9.057  0.00  0.00    +0.000 A 
ENDBRANCH  11  12
ENDBRANCH  10  11
ENDBRANCH   8  10
ENDBRANCH   7   8
ENDBRANCH   1   7
BRANCH   4  19
ATOM     19  C   UNL     1      49.242   6.911  16.353  0.00  0.00    +0.000 C 
BRANCH  19  20
ATOM     20  N   UNL     1      50.307   6.033  16.759  0.00  0.00    +0.000 N 
ATOM     21  C   UNL     1      50.302   5.449  17.998  0.00  0.00    +0.000 C 
ATOM     22  O   UNL     1      49.376   5.612  18.789  0.00  0.00    +0.000 OA
ATOM     23  H   UNL     1      51.169   6.071  16.223  0.00  0.00    +0.000 HD
BRANCH  21  24
ATOM     24  C   UNL     1      51.429   4.566  18.310  0.00  0.00    +0.000 A 
ATOM     25  C   UNL     1      52.523   5.070  19.002  0.00  0.00    +0.000 A 
ATOM     26  S   UNL     1      53.719   3.903  19.334  0.00  0.00    +0.000 S 
ATOM     27  C   UNL     1      52.843   2.695  18.517  0.00  0.00    +0.000 A 
ATOM     28  N   UNL     1      53.335   1.431  18.410  0.00  0.00    +0.000 NA
ATOM     29  C   UNL     1      52.583   0.623  17.737  0.00  0.00    +0.000 A 
ATOM     30  N   UNL     1      51.382   0.965  17.171  0.00  0.00    +0.000 N 
ATOM     31  C   UNL     1      50.834   2.219  17.279  0.00  0.00    +0.000 A 
ATOM     32  O   UNL     1      49.739   2.483  16.791  0.00  0.00    +0.000 OA
ATOM     33  C   UNL     1      51.646   3.172  18.016  0.00  0.00    +0.000 A 
ATOM     34  H   UNL     1      50.839   0.280  16.662  0.00  0.00    +0.000 HD
ENDBRANCH  21  24
ENDBRANCH  19  20
ENDBRANCH   4  19
TORSDOF 8
ENDMDL
MODEL 2
REMARK VINA RESULT:    -7.456      1.955      3.166
REMARK INTER + INTRA:         -12.038
REMARK INTER:                 -10.588
REMARK INTRA:                  -1.450
REMARK UNBOUND:                -1.094
REMARK  Name = 
REMARK  9 active torsions:
REMARK  status: ('A' for Active; 'I' for Inactive)
REMARK    1  A    between atoms: C_1  and  N_2
REMARK    2  A    between atoms: N_2  and  C_3
REMARK    3  A    between atoms: N_2  and  C_25
REMARK    4  A    between atoms: C_3  and  O_4
REMARK    5  A    between atoms: O_4  and  C_5
REMARK    6  A    between atoms: C_8  and  C_9
REMARK    7  A    between atoms: C_9  and  N_10
REMARK    8  A    between atoms: C_11  and  C_13
REMARK    9  A    between atoms: C_25  and  C_26
REMARK                            x       y       z     vdW  Elec       q    Type
REMARK                         _______ _______ _______ _____ _____    ______ ____
ROOT
ATOM      1  C   UNL     1      47.300   5.832  13.615  0.00  0.00    +0.000 A 
ATOM      2  C   UNL     1      46.823   4.522  13.574  0.00  0.00    +0.000 A 
ATOM      3  C   UNL     1      46.936   3.696  14.696  0.00  0.00    +0.000 A 
ATOM      4  C   UNL     1      47.521   4.171  15.875  0.00  0.00    +0.000 A 
ATOM      5  C   UNL     1      48.045   5.469  15.895  0.00  0.00    +0.000 A 
ATOM      6  C   UNL     1      47.926   6.293  14.774  0.00  0.00    +0.000 A 
ENDROOT
BRANCH   1   7
ATOM      7  O   UNL     1      47.211   6.750  12.606  0.00  0.00    +0.000 OA
BRANCH   7   8
ATOM      8  C   UNL     1      46.106   7.654  12.652  0.00  0.00    +0.000 C 
BRANCH   8  10
ATOM      9  C   UNL     1      44.542   8.794  11.235  0.00  0.00    +0.000 C 
ATOM     10  N   UNL     1      45.218   7.517  11.488  0.00  0.00    +0.000 NA
BRANCH  10  11
ATOM     11  C   UNL     1      44.217   6.458  11.683  0.00  0.00    +0.000 C 
BRANCH  11  12
ATOM     12  C   UNL     1      44.477   5.182  10.905  0.00  0.00    +0.000 A 
ATOM     13  C   UNL     1      43.837   3.989  11.278  0.00  0.00    +0.000 A 
ATOM     14  C   UNL     1      43.982   2.832  10.511  0.00  0.00    +0.000 A 
ATOM     15  C   UNL     1      44.779   2.848   9.368  0.00  0.00    +0.000 A 
ATOM     16  C   UNL     1      45.445   4.019   9.008  0.00  0.00    +0.000 A 
ATOM     17 CL   UNL     1      46.440   4.033   7.603  0.00  0.00    +0.000 Cl
ATOM     18  C   UNL     1      45.299   5.182   9.768  0.00  0.00    +0.000 A 
ENDBRANCH  11  12
ENDBRANCH  10  11
ENDBRANCH   8  10
ENDBRANCH   7   8
ENDBRANCH   1   7
BRANCH   4  19
ATOM     19  C   UNL     1      47.614   3.290  17.091  0.00  0.00    +0.000 C 
BRANCH  19  20
ATOM     20  N   UNL     1      48.979   3.142  17.520  0.00  0.00    +0.000 N 
ATOM     21  C   UNL     1      49.822   2.265  16.890  0.00  0.00    +0.000 C 
ATOM     22  O   UNL     1      49.465   1.608  15.914  0.00  0.00    +0.000 OA
ATOM     23  H   UNL     1      49.216   3.495  18.442  0.00  0.00    +0.000 HD
BRANCH  21  24
ATOM     24  C   UNL     1      51.194   2.196  17.400  0.00  0.00    +0.000 A 
ATOM     25  C   UNL     1      51.785   0.956  17.609  0.00  0.00    +0.000 A 
ATOM     26  S   UNL     1      53.399   1.050  18.149  0.00  0.00    +0.000 S 
ATOM     27  C   UNL     1      53.347   2.751  18.174  0.00  0.00    +0.000 A 
ATOM     28  N   UNL     1      54.428   3.473  18.575  0.00  0.00    +0.000 NA
ATOM     29  C   UNL     1      54.242   4.753  18.576  0.00  0.00    +0.000 A 
ATOM     30  N   UNL     1      53.075   5.371  18.205  0.00  0.00    +0.000 N 
ATOM     31  C   UNL     1      51.971   4.683  17.766  0.00  0.00    +0.000 A 
ATOM     32  O   UNL     1      50.953   5.269  17.406  0.00  0.00    +0.000 OA
ATOM     33  C   UNL     1      52.122   3.239  17.757  0.00  0.00    +0.000 A 
ATOM     34  H   UNL     1      52.998   6.379  18.223  0.00  0.00    +0.000 HD
ENDBRANCH  21  24
ENDBRANCH  19  20
ENDBRANCH   4  19
TORSDOF 8
ENDMDL
MODEL 3
REMARK VINA RESULT:    -7.413      2.762      3.153
REMARK INTER + INTRA:         -11.973
REMARK INTER:                 -11.045
REMARK INTRA:                  -0.929
REMARK UNBOUND:                -1.094
REMARK  Name = 
REMARK  9 active torsions:
REMARK  status: ('A' for Active; 'I' for Inactive)
REMARK    1  A    between atoms: C_1  and  N_2
REMARK    2  A    between atoms: N_2  and  C_3
REMARK    3  A    between atoms: N_2  and  C_25
REMARK    4  A    between atoms: C_3  and  O_4
REMARK    5  A    between atoms: O_4  and  C_5
REMARK    6  A    between atoms: C_8  and  C_9
REMARK    7  A    between atoms: C_9  and  N_10
REMARK    8  A    between atoms: C_11  and  C_13
REMARK    9  A    between atoms: C_25  and  C_26
REMARK                            x       y       z     vdW  Elec       q    Type
REMARK                         _______ _______ _______ _____ _____    ______ ____
ROOT
ATOM      1  C   UNL     1      46.654   7.014  11.757  0.00  0.00    +0.000 A 
ATOM      2  C   UNL     1      48.035   7.052  11.951  0.00  0.00    +0.000 A 
ATOM      3  C   UNL     1      48.585   7.870  12.942  0.00  0.00    +0.000 A 
ATOM      4  C   UNL     1      47.761   8.655  13.756  0.00  0.00    +0.000 A 
ATOM      5  C   UNL     1      46.380   8.654  13.523  0.00  0.00    +0.000 A 
ATOM      6  C   UNL     1      45.834   7.833  12.535  0.00  0.00    +0.000 A 
ENDROOT
BRANCH   1   7
ATOM      7  O   UNL     1      45.992   6.229  10.855  0.00  0.00    +0.000 OA
BRANCH   7   8
ATOM      8  C   UNL     1      45.178   5.182  11.387  0.00  0.00    +0.000 C 
BRANCH   8  10
ATOM      9  C   UNL     1      42.784   5.224  11.250  0.00  0.00    +0.000 C 
ATOM     10  N   UNL     1      44.018   4.882  10.535  0.00  0.00    +0.000 NA
BRANCH  10  11
ATOM     11  C   UNL     1      43.981   3.468  10.135  0.00  0.00    +0.000 C 
BRANCH  11  12
ATOM     12  C   UNL     1      44.945   3.092   9.027  0.00  0.00    +0.000 A 
ATOM     13  C   UNL     1      45.506   4.090   8.213  0.00  0.00    +0.000 A 
ATOM     14  C   UNL     1      46.474   3.771   7.259  0.00  0.00    +0.000 A 
ATOM     15  C   UNL     1      46.885   2.449   7.096  0.00  0.00    +0.000 A 
ATOM     16  C   UNL     1      46.310   1.447   7.876  0.00  0.00    +0.000 A 
ATOM     17 CL   UNL     1      46.809  -0.186   7.663  0.00  0.00    +0.000 Cl
ATOM     18  C   UNL     1      45.345   1.760   8.836  0.00  0.00    +0.000 A 
ENDBRANCH  11  12
ENDBRANCH  10  11
ENDBRANCH   8  10
ENDBRANCH   7   8
ENDBRANCH   1   7
BRANCH   4  19
ATOM     19  C   UNL     1      48.352   9.511  14.843  0.00  0.00    +0.000 C 
BRANCH  19  20
ATOM     20  N   UNL     1      48.348   8.822  16.105  0.00  0.00    +0.000 N 
ATOM     21  C   UNL     1      49.461   8.155  16.545  0.00  0.00    +0.000 C 
ATOM     22  O   UNL     1      50.512   8.155  15.908  0.00  0.00    +0.000 OA
ATOM     23  H   UNL     1      47.444   8.622  16.521  0.00  0.00    +0.000 HD
BRANCH  21  24
ATOM     24  C   UNL     1      49.355   7.491  17.847  0.00  0.00    +0.000 A 
ATOM     25  C   UNL     1      49.575   8.221  19.008  0.00  0.00    +0.000 A 
ATOM     26  S   UNL     1      49.357   7.317  20.436  0.00  0.00    +0.000 S 
ATOM     27  C   UNL     1      49.013   5.904  19.552  0.00  0.00    +0.000 A 
ATOM     28  N   UNL     1      48.752   4.732  20.190  0.00  0.00    +0.000 NA
ATOM     29  C   UNL     1      48.540   3.731  19.399  0.00  0.00    +0.000 A 
ATOM     30  N   UNL     1      48.558   3.803  18.029  0.00  0.00    +0.000 N 
ATOM     31  C   UNL     1      48.788   4.971  17.344  0.00  0.00    +0.000 A 
ATOM     32  O   UNL     1      48.761   5.009  16.118  0.00  0.00    +0.000 OA
ATOM     33  C   UNL     1      49.045   6.125  18.188  0.00  0.00    +0.000 A 
ATOM     34  H   UNL     1      48.376   2.982  17.468  0.00  0.00    +0.000 HD
ENDBRANCH  21  24
ENDBRANCH  19  20
ENDBRANCH   4  19
TORSDOF 8
ENDMDL
MODEL 4
REMARK VINA RESULT:    -7.371      4.100      9.029
REMARK INTER + INTRA:         -11.912
REMARK INTER:                 -10.153
REMARK INTRA:                  -1.758
REMARK UNBOUND:                -1.094
REMARK  Name = 
REMARK  9 active torsions:
REMARK  status: ('A' for Active; 'I' for Inactive)
REMARK    1  A    between atoms: C_1  and  N_2
REMARK    2  A    between atoms: N_2  and  C_3
REMARK    3  A    between atoms: N_2  and  C_25
REMARK    4  A    between atoms: C_3  and  O_4
REMARK    5  A    between atoms: O_4  and  C_5
REMARK    6  A    between atoms: C_8  and  C_9
REMARK    7  A    between atoms: C_9  and  N_10
REMARK    8  A    between atoms: C_11  and  C_13
REMARK    9  A    between atoms: C_25  and  C_26
REMARK                            x       y       z     vdW  Elec       q    Type
REMARK                         _______ _______ _______ _____ _____    ______ ____
ROOT
ATOM      1  C   UNL     1      49.669   7.791  15.698  0.00  0.00    +0.000 A 
ATOM      2  C   UNL     1      49.480   8.995  15.019  0.00  0.00    +0.000 A 
ATOM      3  C   UNL     1      48.683   9.039  13.872  0.00  0.00    +0.000 A 
ATOM      4  C   UNL     1      48.059   7.881  13.392  0.00  0.00    +0.000 A 
ATOM      5  C   UNL     1      48.294   6.666  14.046  0.00  0.00    +0.000 A 
ATOM      6  C   UNL     1      49.088   6.626  15.194  0.00  0.00    +0.000 A 
ENDROOT
BRANCH   1   7
ATOM      7  O   UNL     1      50.386   7.624  16.850  0.00  0.00    +0.000 OA
BRANCH   7   8
ATOM      8  C   UNL     1      49.820   8.164  18.045  0.00  0.00    +0.000 C 
BRANCH   8  10
ATOM      9  C   UNL     1      47.722   8.458  19.170  0.00  0.00    +0.000 C 
ATOM     10  N   UNL     1      48.551   7.518  18.409  0.00  0.00    +0.000 NA
BRANCH  10  11
ATOM     11  C   UNL     1      48.763   6.296  19.198  0.00  0.00    +0.000 C 
BRANCH  11  12
ATOM     12  C   UNL     1      48.588   4.999  18.431  0.00  0.00    +0.000 A 
ATOM     13  C   UNL     1      47.353   4.696  17.835  0.00  0.00    +0.000 A 
ATOM     14  C   UNL     1      47.206   3.561  17.037  0.00  0.00    +0.000 A 
ATOM     15  C   UNL     1      48.287   2.705  16.836  0.00  0.00    +0.000 A 
ATOM     16  C   UNL     1      49.508   2.979  17.451  0.00  0.00    +0.000 A 
ATOM     17 CL   UNL     1      50.838   1.913  17.212  0.00  0.00    +0.000 Cl
ATOM     18  C   UNL     1      49.663   4.117  18.245  0.00  0.00    +0.000 A 
ENDBRANCH  11  12
ENDBRANCH  10  11
ENDBRANCH   8  10
ENDBRANCH   7   8
ENDBRANCH   1   7
BRANCH   4  19
ATOM     19  C   UNL     1      47.177   7.936  12.175  0.00  0.00    +0.000 C 
BRANCH  19  20
ATOM     20  N   UNL     1      46.585   6.654  11.907  0.00  0.00    +0.000 N 
ATOM     21  C   UNL     1      45.234   6.529  11.713  0.00  0.00    +0.000 C 
ATOM     22  O   UNL     1      44.486   7.504  11.716  0.00  0.00    +0.000 OA
ATOM     23  H   UNL     1      47.140   5.832  12.125  0.00  0.00    +0.000 HD
BRANCH  21  24
ATOM     24  C   UNL     1      44.733   5.180  11.439  0.00  0.00    +0.000 A 
ATOM     25  C   UNL     1      43.997   4.512  12.410  0.00  0.00    +0.000 A 
ATOM     26  S   UNL     1      43.442   2.980  11.913  0.00  0.00    +0.000 S 
ATOM     27  C   UNL     1      44.211   3.131  10.403  0.00  0.00    +0.000 A 
ATOM     28  N   UNL     1      44.145   2.129   9.486  0.00  0.00    +0.000 NA
ATOM     29  C   UNL     1      44.800   2.362   8.395  0.00  0.00    +0.000 A 
ATOM     30  N   UNL     1      45.505   3.510   8.140  0.00  0.00    +0.000 N 
ATOM     31  C   UNL     1      45.574   4.558   9.024  0.00  0.00    +0.000 A 
ATOM     32  O   UNL     1      46.184   5.588   8.750  0.00  0.00    +0.000 OA
ATOM     33  C   UNL     1      44.865   4.343  10.274  0.00  0.00    +0.000 A 
ATOM     34  H   UNL     1      45.991   3.632   7.262  0.00  0.00    +0.000 HD
ENDBRANCH  21  24
ENDBRANCH  19  20
ENDBRANCH   4  19
TORSDOF 8
ENDMDL
MODEL 5
REMARK VINA RESULT:    -7.270      1.450      1.994
REMARK INTER + INTRA:         -11.763
REMARK INTER:                 -10.608
REMARK INTRA:                  -1.156
REMARK UNBOUND:                -1.094
REMARK  Name = 
REMARK  9 active torsions:
REMARK  status: ('A' for Active; 'I' for Inactive)
REMARK    1  A    between atoms: C_1  and  N_2
REMARK    2  A    between atoms: N_2  and  C_3
REMARK    3  A    between atoms: N_2  and  C_25
REMARK    4  A    between atoms: C_3  and  O_4
REMARK    5  A    between atoms: O_4  and  C_5
REMARK    6  A    between atoms: C_8  and  C_9
REMARK    7  A    between atoms: C_9  and  N_10
REMARK    8  A    between atoms: C_11  and  C_13
REMARK    9  A    between atoms: C_25  and  C_26
REMARK                            x       y       z     vdW  Elec       q    Type
REMARK                         _______ _______ _______ _____ _____    ______ ____
ROOT
ATOM      1  C   UNL     1      47.463   5.404  14.281  0.00  0.00    +0.000 A 
ATOM      2  C   UNL     1      47.148   4.408  15.205  0.00  0.00    +0.000 A 
ATOM      3  C   UNL     1      47.606   4.499  16.522  0.00  0.00    +0.000 A 
ATOM      4  C   UNL     1      48.378   5.591  16.935  0.00  0.00    +0.000 A 
ATOM      5  C   UNL     1      48.736   6.561  15.991  0.00  0.00    +0.000 A 
ATOM      6  C   UNL     1      48.274   6.470  14.677  0.00  0.00    +0.000 A 
ENDROOT
BRANCH   1   7
ATOM      7  O   UNL     1      47.044   5.454  12.981  0.00  0.00    +0.000 OA
BRANCH   7   8
ATOM      8  C   UNL     1      45.634   5.526  12.760  0.00  0.00    +0.000 C 
BRANCH   8  10
ATOM      9  C   UNL     1      44.892   7.545  11.700  0.00  0.00    +0.000 C 
ATOM     10  N   UNL     1      45.297   6.154  11.474  0.00  0.00    +0.000 NA
BRANCH  10  11
ATOM     11  C   UNL     1      44.222   5.434  10.777  0.00  0.00    +0.000 C 
BRANCH  11  12
ATOM     12  C   UNL     1      44.682   4.268   9.923  0.00  0.00    +0.000 A 
ATOM     13  C   UNL     1      44.280   2.961  10.241  0.00  0.00    +0.000 A 
ATOM     14  C   UNL     1      44.607   1.891   9.406  0.00  0.00    +0.000 A 
ATOM     15  C   UNL     1      45.351   2.112   8.248  0.00  0.00    +0.000 A 
ATOM     16  C   UNL     1      45.784   3.401   7.941  0.00  0.00    +0.000 A 
ATOM     17 CL   UNL     1      46.715   3.669   6.519  0.00  0.00    +0.000 Cl
ATOM     18  C   UNL     1      45.455   4.477   8.770  0.00  0.00    +0.000 A 
ENDBRANCH  11  12
ENDBRANCH  10  11
ENDBRANCH   8  10
ENDBRANCH   7   8
ENDBRANCH   1   7
BRANCH   4  19
ATOM     19  C   UNL     1      48.844   5.703  18.361  0.00  0.00    +0.000 C 
BRANCH  19  20
ATOM     20  N   UNL     1      49.930   4.798  18.623  0.00  0.00    +0.000 N 
ATOM     21  C   UNL     1      51.229   5.175  18.404  0.00  0.00    +0.000 C 
ATOM     22  O   UNL     1      51.520   6.306  18.022  0.00  0.00    +0.000 OA
ATOM     23  H   UNL     1      49.701   3.812  18.715  0.00  0.00    +0.000 HD
BRANCH  21  24
ATOM     24  C   UNL     1      52.260   4.181  18.710  0.00  0.00    +0.000 A 
ATOM     25  C   UNL     1      53.329   4.531  19.525  0.00  0.00    +0.000 A 
ATOM     26  S   UNL     1      54.408   3.247  19.828  0.00  0.00    +0.000 S 
ATOM     27  C   UNL     1      53.513   2.192  18.838  0.00  0.00    +0.000 A 
ATOM     28  N   UNL     1      53.919   0.908  18.645  0.00  0.00    +0.000 NA
ATOM     29  C   UNL     1      53.166   0.226  17.845  0.00  0.00    +0.000 A 
ATOM     30  N   UNL     1      52.041   0.713  17.229  0.00  0.00    +0.000 N 
ATOM     31  C   UNL     1      51.579   1.992  17.418  0.00  0.00    +0.000 A 
ATOM     32  O   UNL     1      50.548   2.385  16.880  0.00  0.00    +0.000 OA
ATOM     33  C   UNL     1      52.397   2.806  18.300  0.00  0.00    +0.000 A 
ATOM     34  H   UNL     1      51.492   0.123  16.619  0.00  0.00    +0.000 HD
ENDBRANCH  21  24
ENDBRANCH  19  20
ENDBRANCH   4  19
TORSDOF 8
ENDMDL
MODEL 6
REMARK VINA RESULT:    -7.252      4.278      8.847
REMARK INTER + INTRA:         -11.738
REMARK INTER:                 -10.097
REMARK INTRA:                  -1.641
REMARK UNBOUND:                -1.094
REMARK  Name = 
REMARK  9 active torsions:
REMARK  status: ('A' for Active; 'I' for Inactive)
REMARK    1  A    between atoms: C_1  and  N_2
REMARK    2  A    between atoms: N_2  and  C_3
REMARK    3  A    between atoms: N_2  and  C_25
REMARK    4  A    between atoms: C_3  and  O_4
REMARK    5  A    between atoms: O_4  and  C_5
REMARK    6  A    between atoms: C_8  and  C_9
REMARK    7  A    between atoms: C_9  and  N_10
REMARK    8  A    between atoms: C_11  and  C_13
REMARK    9  A    between atoms: C_25  and  C_26
REMARK                            x       y       z     vdW  Elec       q    Type
REMARK                         _______ _______ _______ _____ _____    ______ ____
ROOT
ATOM      1  C   UNL     1      48.901   7.793  16.176  0.00  0.00    +0.000 A 
ATOM      2  C   UNL     1      48.856   6.656  15.368  0.00  0.00    +0.000 A 
ATOM      3  C   UNL     1      48.618   6.777  13.996  0.00  0.00    +0.000 A 
ATOM      4  C   UNL     1      48.431   8.036  13.412  0.00  0.00    +0.000 A 
ATOM      5  C   UNL     1      48.427   9.168  14.235  0.00  0.00    +0.000 A 
ATOM      6  C   UNL     1      48.668   9.045  15.605  0.00  0.00    +0.000 A 
ENDROOT
BRANCH   1   7
ATOM      7  O   UNL     1      49.166   7.813  17.517  0.00  0.00    +0.000 OA
BRANCH   7   8
ATOM      8  C   UNL     1      48.081   8.150  18.383  0.00  0.00    +0.000 C 
BRANCH   8  10
ATOM      9  C   UNL     1      47.580   7.682  20.681  0.00  0.00    +0.000 C 
ATOM     10  N   UNL     1      47.787   7.088  19.357  0.00  0.00    +0.000 NA
BRANCH  10  11
ATOM     11  C   UNL     1      48.867   6.092  19.425  0.00  0.00    +0.000 C 
BRANCH  11  12
ATOM     12  C   UNL     1      48.649   4.853  18.578  0.00  0.00    +0.000 A 
ATOM     13  C   UNL     1      47.386   4.595  18.021  0.00  0.00    +0.000 A 
ATOM     14  C   UNL     1      47.196   3.518  17.154  0.00  0.00    +0.000 A 
ATOM     15  C   UNL     1      48.263   2.677  16.842  0.00  0.00    +0.000 A 
ATOM     16  C   UNL     1      49.512   2.905  17.416  0.00  0.00    +0.000 A 
ATOM     17 CL   UNL     1      50.825   1.857  17.040  0.00  0.00    +0.000 Cl
ATOM     18  C   UNL     1      49.710   3.985  18.280  0.00  0.00    +0.000 A 
ENDBRANCH  11  12
ENDBRANCH  10  11
ENDBRANCH   8  10
ENDBRANCH   7   8
ENDBRANCH   1   7
BRANCH   4  19
ATOM     19  C   UNL     1      48.207   8.166  11.931  0.00  0.00    +0.000 C 
BRANCH  19  20
ATOM     20  N   UNL     1      47.527   7.012  11.407  0.00  0.00    +0.000 N 
ATOM     21  C   UNL     1      46.161   6.984  11.312  0.00  0.00    +0.000 C 
ATOM     22  O   UNL     1      45.469   7.950  11.625  0.00  0.00    +0.000 OA
ATOM     23  H   UNL     1      48.053   6.144  11.363  0.00  0.00    +0.000 HD
BRANCH  21  24
ATOM     24  C   UNL     1      45.567   5.764  10.758  0.00  0.00    +0.000 A 
ATOM     25  C   UNL     1      45.712   5.486   9.405  0.00  0.00    +0.000 A 
ATOM     26  S   UNL     1      45.014   4.005   8.934  0.00  0.00    +0.000 S 
ATOM     27  C   UNL     1      44.447   3.709  10.510  0.00  0.00    +0.000 A 
ATOM     28  N   UNL     1      43.730   2.588  10.792  0.00  0.00    +0.000 NA
ATOM     29  C   UNL     1      43.334   2.504  12.020  0.00  0.00    +0.000 A 
ATOM     30  N   UNL     1      43.600   3.437  12.990  0.00  0.00    +0.000 N 
ATOM     31  C   UNL     1      44.344   4.567  12.757  0.00  0.00    +0.000 A 
ATOM     32  O   UNL     1      44.595   5.365  13.656  0.00  0.00    +0.000 OA
ATOM     33  C   UNL     1      44.803   4.717  11.387  0.00  0.00    +0.000 A 
ATOM     34  H   UNL     1      43.266   3.307  13.936  0.00  0.00    +0.000 HD
ENDBRANCH  21  24
ENDBRANCH  19  20
ENDBRANCH   4  19
TORSDOF 8
ENDMDL
MODEL 7
REMARK VINA RESULT:    -7.246      5.363      9.407
REMARK INTER + INTRA:         -11.729
REMARK INTER:                  -8.904
REMARK INTRA:                  -2.825
REMARK UNBOUND:                -1.094
REMARK  Name = 
REMARK  9 active torsions:
REMARK  status: ('A' for Active; 'I' for Inactive)
REMARK    1  A    between atoms: C_1  and  N_2
REMARK    2  A    between atoms: N_2  and  C_3
REMARK    3  A    between atoms: N_2  and  C_25
REMARK    4  A    between atoms: C_3  and  O_4
REMARK    5  A    between atoms: O_4  and  C_5
REMARK    6  A    between atoms: C_8  and  C_9
REMARK    7  A    between atoms: C_9  and  N_10
REMARK    8  A    between atoms: C_11  and  C_13
REMARK    9  A    between atoms: C_25  and  C_26
REMARK                            x       y       z     vdW  Elec       q    Type
REMARK                         _______ _______ _______ _____ _____    ______ ____
ROOT
ATOM      1  C   UNL     1      50.413   8.874  11.392  0.00  0.00    +0.000 A 
ATOM      2  C   UNL     1      49.511   9.928  11.537  0.00  0.00    +0.000 A 
ATOM      3  C   UNL     1      48.206   9.683  11.972  0.00  0.00    +0.000 A 
ATOM      4  C   UNL     1      47.787   8.382  12.274  0.00  0.00    +0.000 A 
ATOM      5  C   UNL     1      48.679   7.322  12.076  0.00  0.00    +0.000 A 
ATOM      6  C   UNL     1      49.984   7.570  11.646  0.00  0.00    +0.000 A 
ENDROOT
BRANCH   1   7
ATOM      7  O   UNL     1      51.723   8.985  11.018  0.00  0.00    +0.000 OA
BRANCH   7   8
ATOM      8  C   UNL     1      52.700   8.497  11.939  0.00  0.00    +0.000 C 
BRANCH   8  10
ATOM      9  C   UNL     1      54.193  10.015  13.043  0.00  0.00    +0.000 C 
ATOM     10  N   UNL     1      52.872   9.383  13.100  0.00  0.00    +0.000 NA
BRANCH  10  11
ATOM     11  C   UNL     1      52.726   8.657  14.371  0.00  0.00    +0.000 C 
BRANCH  11  12
ATOM     12  C   UNL     1      51.320   8.637  14.938  0.00  0.00    +0.000 A 
ATOM     13  C   UNL     1      50.614   9.839  15.113  0.00  0.00    +0.000 A 
ATOM     14  C   UNL     1      49.284   9.830  15.534  0.00  0.00    +0.000 A 
ATOM     15  C   UNL     1      48.644   8.620  15.798  0.00  0.00    +0.000 A 
ATOM     16  C   UNL     1      49.346   7.423  15.660  0.00  0.00    +0.000 A 
ATOM     17 CL   UNL     1      48.558   5.931  16.001  0.00  0.00    +0.000 Cl
ATOM     18  C   UNL     1      50.676   7.425  15.234  0.00  0.00    +0.000 A 
ENDBRANCH  11  12
ENDBRANCH  10  11
ENDBRANCH   8  10
ENDBRANCH   7   8
ENDBRANCH   1   7
BRANCH   4  19
ATOM     19  C   UNL     1      46.391   8.125  12.771  0.00  0.00    +0.000 C 
BRANCH  19  20
ATOM     20  N   UNL     1      45.966   6.788  12.452  0.00  0.00    +0.000 N 
ATOM     21  C   UNL     1      44.858   6.568  11.679  0.00  0.00    +0.000 C 
ATOM     22  O   UNL     1      44.211   7.493  11.192  0.00  0.00    +0.000 OA
ATOM     23  H   UNL     1      46.342   6.035  13.021  0.00  0.00    +0.000 HD
BRANCH  21  24
ATOM     24  C   UNL     1      44.515   5.169  11.408  0.00  0.00    +0.000 A 
ATOM     25  C   UNL     1      43.774   4.453  12.338  0.00  0.00    +0.000 A 
ATOM     26  S   UNL     1      43.414   2.861  11.846  0.00  0.00    +0.000 S 
ATOM     27  C   UNL     1      44.282   3.056  10.396  0.00  0.00    +0.000 A 
ATOM     28  N   UNL     1      44.388   2.032   9.507  0.00  0.00    +0.000 NA
ATOM     29  C   UNL     1      45.102   2.306   8.463  0.00  0.00    +0.000 A 
ATOM     30  N   UNL     1      45.709   3.513   8.229  0.00  0.00    +0.000 N 
ATOM     31  C   UNL     1      45.603   4.582   9.084  0.00  0.00    +0.000 A 
ATOM     32  O   UNL     1      46.129   5.661   8.827  0.00  0.00    +0.000 OA
ATOM     33  C   UNL     1      44.821   4.324  10.281  0.00  0.00    +0.000 A 
ATOM     34  H   UNL     1      46.248   3.664   7.387  0.00  0.00    +0.000 HD
ENDBRANCH  21  24
ENDBRANCH  19  20
ENDBRANCH   4  19
TORSDOF 8
ENDMDL
MODEL 8
REMARK VINA RESULT:    -7.013      3.763      9.203
REMARK INTER + INTRA:         -11.387
REMARK INTER:                  -9.942
REMARK INTRA:                  -1.446
REMARK UNBOUND:                -1.094
REMARK  Name = 
REMARK  9 active torsions:
REMARK  status: ('A' for Active; 'I' for Inactive)
REMARK    1  A    between atoms: C_1  and  N_2
REMARK    2  A    between atoms: N_2  and  C_3
REMARK    3  A    between atoms: N_2  and  C_25
REMARK    4  A    between atoms: C_3  and  O_4
REMARK    5  A    between atoms: O_4  and  C_5
REMARK    6  A    between atoms: C_8  and  C_9
REMARK    7  A    between atoms: C_9  and  N_10
REMARK    8  A    between atoms: C_11  and  C_13
REMARK    9  A    between atoms: C_25  and  C_26
REMARK                            x       y       z     vdW  Elec       q    Type
REMARK                         _______ _______ _______ _____ _____    ______ ____
ROOT
ATOM      1  C   UNL     1      49.209   8.305  15.902  0.00  0.00    +0.000 A 
ATOM      2  C   UNL     1      48.669   9.410  15.244  0.00  0.00    +0.000 A 
ATOM      3  C   UNL     1      48.174   9.282  13.942  0.00  0.00    +0.000 A 
ATOM      4  C   UNL     1      48.206   8.046  13.286  0.00  0.00    +0.000 A 
ATOM      5  C   UNL     1      48.796   6.952  13.932  0.00  0.00    +0.000 A 
ATOM      6  C   UNL     1      49.286   7.083  15.232  0.00  0.00    +0.000 A 
ENDROOT
BRANCH   1   7
ATOM      7  O   UNL     1      49.684   8.289  17.184  0.00  0.00    +0.000 OA
BRANCH   7   8
ATOM      8  C   UNL     1      50.922   7.610  17.404  0.00  0.00    +0.000 C 
BRANCH   8  10
ATOM      9  C   UNL     1      51.443   7.427  19.738  0.00  0.00    +0.000 C 
ATOM     10  N   UNL     1      50.878   6.728  18.579  0.00  0.00    +0.000 NA
BRANCH  10  11
ATOM     11  C   UNL     1      51.613   5.475  18.353  0.00  0.00    +0.000 C 
BRANCH  11  12
ATOM     12  C   UNL     1      50.778   4.334  17.803  0.00  0.00    +0.000 A 
ATOM     13  C   UNL     1      51.380   3.099  17.512  0.00  0.00    +0.000 A 
ATOM     14  C   UNL     1      50.609   2.009  17.107  0.00  0.00    +0.000 A 
ATOM     15  C   UNL     1      49.227   2.141  16.976  0.00  0.00    +0.000 A 
ATOM     16  C   UNL     1      48.625   3.372  17.231  0.00  0.00    +0.000 A 
ATOM     17 CL   UNL     1      46.921   3.536  17.055  0.00  0.00    +0.000 Cl
ATOM     18  C   UNL     1      49.390   4.465  17.642  0.00  0.00    +0.000 A 
ENDBRANCH  11  12
ENDBRANCH  10  11
ENDBRANCH   8  10
ENDBRANCH   7   8
ENDBRANCH   1   7
BRANCH   4  19
ATOM     19  C   UNL     1      47.645   7.903  11.898  0.00  0.00    +0.000 C 
BRANCH  19  20
ATOM     20  N   UNL     1      46.953   6.651  11.746  0.00  0.00    +0.000 N 
ATOM     21  C   UNL     1      45.585   6.595  11.774  0.00  0.00    +0.000 C 
ATOM     22  O   UNL     1      44.896   7.608  11.885  0.00  0.00    +0.000 OA
ATOM     23  H   UNL     1      47.495   5.802  11.882  0.00  0.00    +0.000 HD
BRANCH  21  24
ATOM     24  C   UNL     1      44.979   5.272  11.603  0.00  0.00    +0.000 A 
ATOM     25  C   UNL     1      44.311   4.682  12.667  0.00  0.00    +0.000 A 
ATOM     26  S   UNL     1      43.617   3.172  12.286  0.00  0.00    +0.000 S 
ATOM     27  C   UNL     1      44.232   3.230  10.701  0.00  0.00    +0.000 A 
ATOM     28  N   UNL     1      44.011   2.206   9.832  0.00  0.00    +0.000 NA
ATOM     29  C   UNL     1      44.561   2.365   8.673  0.00  0.00    +0.000 A 
ATOM     30  N   UNL     1      45.303   3.458   8.305  0.00  0.00    +0.000 N 
ATOM     31  C   UNL     1      45.525   4.527   9.138  0.00  0.00    +0.000 A 
ATOM     32  O   UNL     1      46.163   5.507   8.766  0.00  0.00    +0.000 OA
ATOM     33  C   UNL     1      44.939   4.394  10.461  0.00  0.00    +0.000 A 
ATOM     34  H   UNL     1      45.700   3.523   7.377  0.00  0.00    +0.000 HD
ENDBRANCH  21  24
ENDBRANCH  19  20
ENDBRANCH   4  19
TORSDOF 8
ENDMDL
MODEL 9
REMARK VINA RESULT:    -6.608      4.514      9.241
REMARK INTER + INTRA:         -10.792
REMARK INTER:                  -8.075
REMARK INTRA:                  -2.717
REMARK UNBOUND:                -1.094
REMARK  Name = 
REMARK  9 active torsions:
REMARK  status: ('A' for Active; 'I' for Inactive)
REMARK    1  A    between atoms: C_1  and  N_2
REMARK    2  A    between atoms: N_2  and  C_3
REMARK    3  A    between atoms: N_2  and  C_25
REMARK    4  A    between atoms: C_3  and  O_4
REMARK    5  A    between atoms: O_4  and  C_5
REMARK    6  A    between atoms: C_8  and  C_9
REMARK    7  A    between atoms: C_9  and  N_10
REMARK    8  A    between atoms: C_11  and  C_13
REMARK    9  A    between atoms: C_25  and  C_26
REMARK                            x       y       z     vdW  Elec       q    Type
REMARK                         _______ _______ _______ _____ _____    ______ ____
ROOT
ATOM      1  C   UNL     1      49.197   8.018  16.018  0.00  0.00    +0.000 A 
ATOM      2  C   UNL     1      49.077   6.817  15.318  0.00  0.00    +0.000 A 
ATOM      3  C   UNL     1      48.421   6.784  14.084  0.00  0.00    +0.000 A 
ATOM      4  C   UNL     1      47.884   7.952  13.530  0.00  0.00    +0.000 A 
ATOM      5  C   UNL     1      47.962   9.144  14.260  0.00  0.00    +0.000 A 
ATOM      6  C   UNL     1      48.620   9.175  15.490  0.00  0.00    +0.000 A 
ENDROOT
BRANCH   1   7
ATOM      7  O   UNL     1      49.849   8.191  17.207  0.00  0.00    +0.000 OA
BRANCH   7   8
ATOM      8  C   UNL     1      50.988   9.053  17.198  0.00  0.00    +0.000 C 
BRANCH   8  10
ATOM      9  C   UNL     1      53.162   8.041  17.149  0.00  0.00    +0.000 C 
ATOM     10  N   UNL     1      52.063   8.556  16.326  0.00  0.00    +0.000 NA
BRANCH  10  11
ATOM     11  C   UNL     1      52.568   9.603  15.427  0.00  0.00    +0.000 C 
BRANCH  11  12
ATOM     12  C   UNL     1      51.815   9.739  14.117  0.00  0.00    +0.000 A 
ATOM     13  C   UNL     1      51.319  10.991  13.718  0.00  0.00    +0.000 A 
ATOM     14  C   UNL     1      50.718  11.154  12.469  0.00  0.00    +0.000 A 
ATOM     15  C   UNL     1      50.594  10.065  11.607  0.00  0.00    +0.000 A 
ATOM     16  C   UNL     1      51.053   8.812  12.007  0.00  0.00    +0.000 A 
ATOM     17 CL   UNL     1      50.886   7.467  10.947  0.00  0.00    +0.000 Cl
ATOM     18  C   UNL     1      51.661   8.643  13.254  0.00  0.00    +0.000 A 
ENDBRANCH  11  12
ENDBRANCH  10  11
ENDBRANCH   8  10
ENDBRANCH   7   8
ENDBRANCH   1   7
BRANCH   4  19
ATOM     19  C   UNL     1      47.206   7.920  12.188  0.00  0.00    +0.000 C 
BRANCH  19  20
ATOM     20  N   UNL     1      46.603   6.637  11.943  0.00  0.00    +0.000 N 
ATOM     21  C   UNL     1      45.256   6.525  11.719  0.00  0.00    +0.000 C 
ATOM     22  O   UNL     1      44.521   7.509  11.674  0.00  0.00    +0.000 OA
ATOM     23  H   UNL     1      47.141   5.815  12.200  0.00  0.00    +0.000 HD
BRANCH  21  24
ATOM     24  C   UNL     1      44.743   5.174  11.473  0.00  0.00    +0.000 A 
ATOM     25  C   UNL     1      44.025   4.523  12.468  0.00  0.00    +0.000 A 
ATOM     26  S   UNL     1      43.453   2.986  12.002  0.00  0.00    +0.000 S 
ATOM     27  C   UNL     1      44.190   3.116  10.474  0.00  0.00    +0.000 A 
ATOM     28  N   UNL     1      44.100   2.102   9.571  0.00  0.00    +0.000 NA
ATOM     29  C   UNL     1      44.733   2.318   8.465  0.00  0.00    +0.000 A 
ATOM     30  N   UNL     1      45.437   3.460   8.180  0.00  0.00    +0.000 N 
ATOM     31  C   UNL     1      45.530   4.519   9.049  0.00  0.00    +0.000 A 
ATOM     32  O   UNL     1      46.138   5.542   8.749  0.00  0.00    +0.000 OA
ATOM     33  C   UNL     1      44.846   4.322  10.316  0.00  0.00    +0.000 A 
ATOM     34  H   UNL     1      45.905   3.568   7.290  0.00  0.00    +0.000 HD
ENDBRANCH  21  24
ENDBRANCH  19  20
ENDBRANCH   4  19
TORSDOF 8
ENDMDL
