MODEL 1
REMARK VINA RESULT:    -7.730      0.000      0.000
REMARK INTER + INTRA:         -10.818
REMARK INTER:                  -9.989
REMARK INTRA:                  -0.829
REMARK UNBOUND:                -0.829
REMARK  Name = 
REMARK  7 active torsions:
REMARK  status: ('A' for Active; 'I' for Inactive)
REMARK    1  A    between atoms: C_1  and  C_2
REMARK    2  A    between atoms: C_2  and  C_3
REMARK    3  A    between atoms: C_2  and  C_4
REMARK    4  A    between atoms: C_2  and  C_15
REMARK    5  A    between atoms: C_5  and  C_6
REMARK    6  A    between atoms: C_9  and  C_10
REMARK    7  A    between atoms: C_20  and  C_21
REMARK                            x       y       z     vdW  Elec       q    Type
REMARK                         _______ _______ _______ _____ _____    ______ ____
ROOT
ATOM      1  C   UNL     1      43.561   2.111  11.337  0.00  0.00    +0.000 C 
ATOM      2  C   UNL     1      44.322   3.420  11.023  0.00  0.00    +0.000 C 
ATOM      3  C   UNL     1      43.274   4.564  11.023  0.00  0.00    +0.000 C 
ENDROOT
BRANCH   2   4
ATOM      4  C   UNL     1      45.022   3.381   9.647  0.00  0.00    +0.000 A 
ATOM      5  C   UNL     1      45.226   4.535   8.876  0.00  0.00    +0.000 A 
ATOM      6  C   UNL     1      45.893   4.482   7.650  0.00  0.00    +0.000 A 
ATOM      7  C   UNL     1      46.388   3.274   7.157  0.00  0.00    +0.000 A 
ATOM      8 CL   UNL     1      47.199   3.347   5.637  0.00  0.00    +0.000 Cl
ATOM      9  C   UNL     1      46.216   2.098   7.890  0.00  0.00    +0.000 A 
ATOM     10  C   UNL     1      45.519   2.170   9.124  0.00  0.00    +0.000 A 
BRANCH   9  11
ATOM     11  C   UNL     1      46.750   0.752   7.472  0.00  0.00    +0.000 C 
ATOM     12  F   UNL     1      46.240  -0.331   8.112  0.00  0.00    +0.000 F 
ATOM     13  F   UNL     1      46.535   0.520   6.144  0.00  0.00    +0.000 F 
ATOM     14  F   UNL     1      48.101   0.669   7.640  0.00  0.00    +0.000 F 
ENDBRANCH   9  11
ENDBRANCH   2   4
BRANCH   2  15
ATOM     15  C   UNL     1      45.271   3.676  12.193  0.00  0.00    +0.000 C 
ATOM     16  C   UNL     1      45.622   4.852  12.748  0.00  0.00    +0.000 C 
BRANCH  16  17
ATOM     17  C   UNL     1      46.561   4.949  13.882  0.00  0.00    +0.000 A 
ATOM     18  C   UNL     1      47.548   5.935  13.935  0.00  0.00    +0.000 A 
ATOM     19  N   UNL     1      48.440   6.059  14.959  0.00  0.00    +0.000 NA
ATOM     20  C   UNL     1      48.294   5.134  15.950  0.00  0.00    +0.000 A 
ATOM     21  C   UNL     1      47.317   4.153  15.912  0.00  0.00    +0.000 A 
ATOM     22  N   UNL     1      46.436   4.040  14.884  0.00  0.00    +0.000 NA
BRANCH  20  23
ATOM     23  C   UNL     1      49.231   5.189  17.105  0.00  0.00    +0.000 C 
ATOM     24  N   UNL     1      48.780   5.830  18.227  0.00  0.00    +0.000 N 
ATOM     25  O   UNL     1      50.350   4.689  17.060  0.00  0.00    +0.000 OA
ATOM     26  H   UNL     1      47.851   6.240  18.246  0.00  0.00    +0.000 HD
ATOM     27  H   UNL     1      49.382   5.895  19.035  0.00  0.00    +0.000 HD
ENDBRANCH  20  23
ENDBRANCH  16  17
ENDBRANCH   2  15
TORSDOF 5
ENDMDL
MODEL 2
REMARK VINA RESULT:    -6.662      6.081      9.312
REMARK INTER + INTRA:          -9.439
REMARK INTER:                  -8.515
REMARK INTRA:                  -0.924
REMARK UNBOUND:                -0.829
REMARK  Name = 
REMARK  7 active torsions:
REMARK  status: ('A' for Active; 'I' for Inactive)
REMARK    1  A    between atoms: C_1  and  C_2
REMARK    2  A    between atoms: C_2  and  C_3
REMARK    3  A    between atoms: C_2  and  C_4
REMARK    4  A    between atoms: C_2  and  C_15
REMARK    5  A    between atoms: C_5  and  C_6
REMARK    6  A    between atoms: C_9  and  C_10
REMARK    7  A    between atoms: C_20  and  C_21
REMARK                            x       y       z     vdW  Elec       q    Type
REMARK                         _______ _______ _______ _____ _____    ______ ____
ROOT
ATOM      1  C   UNL     1      48.955   6.410  16.954  0.00  0.00    +0.000 C 
ATOM      2  C   UNL     1      48.435   4.959  17.086  0.00  0.00    +0.000 C 
ATOM      3  C   UNL     1      47.493   4.928  18.319  0.00  0.00    +0.000 C 
ENDROOT
BRANCH   2   4
ATOM      4  C   UNL     1      49.574   3.939  17.299  0.00  0.00    +0.000 A 
ATOM      5  C   UNL     1      49.417   2.572  17.031  0.00  0.00    +0.000 A 
ATOM      6  C   UNL     1      50.473   1.672  17.197  0.00  0.00    +0.000 A 
ATOM      7  C   UNL     1      51.726   2.111  17.628  0.00  0.00    +0.000 A 
ATOM      8 CL   UNL     1      52.945   0.902  17.784  0.00  0.00    +0.000 Cl
ATOM      9  C   UNL     1      51.934   3.464  17.903  0.00  0.00    +0.000 A 
ATOM     10  C   UNL     1      50.844   4.359  17.746  0.00  0.00    +0.000 A 
BRANCH   9  11
ATOM     11  C   UNL     1      53.256   4.049  18.329  0.00  0.00    +0.000 C 
ATOM     12  F   UNL     1      53.797   3.562  19.476  0.00  0.00    +0.000 F 
ATOM     13  F   UNL     1      54.214   3.868  17.373  0.00  0.00    +0.000 F 
ATOM     14  F   UNL     1      53.177   5.399  18.511  0.00  0.00    +0.000 F 
ENDBRANCH   9  11
ENDBRANCH   2   4
BRANCH   2  15
ATOM     15  C   UNL     1      47.575   4.679  15.854  0.00  0.00    +0.000 C 
ATOM     16  C   UNL     1      47.572   5.318  14.668  0.00  0.00    +0.000 C 
BRANCH  16  17
ATOM     17  C   UNL     1      46.676   4.937  13.560  0.00  0.00    +0.000 A 
ATOM     18  C   UNL     1      46.199   5.878  12.646  0.00  0.00    +0.000 A 
ATOM     19  N   UNL     1      45.365   5.573  11.612  0.00  0.00    +0.000 NA
ATOM     20  C   UNL     1      45.025   4.256  11.530  0.00  0.00    +0.000 A 
ATOM     21  C   UNL     1      45.494   3.310  12.427  0.00  0.00    +0.000 A 
ATOM     22  N   UNL     1      46.324   3.629  13.455  0.00  0.00    +0.000 NA
BRANCH  20  23
ATOM     23  C   UNL     1      44.111   3.833  10.433  0.00  0.00    +0.000 C 
ATOM     24  N   UNL     1      43.980   4.696   9.380  0.00  0.00    +0.000 N 
ATOM     25  O   UNL     1      43.504   2.768  10.468  0.00  0.00    +0.000 OA
ATOM     26  H   UNL     1      44.490   5.574   9.370  0.00  0.00    +0.000 HD
ATOM     27  H   UNL     1      43.369   4.453   8.614  0.00  0.00    +0.000 HD
ENDBRANCH  20  23
ENDBRANCH  16  17
ENDBRANCH   2  15
TORSDOF 5
ENDMDL
MODEL 3
REMARK VINA RESULT:    -6.501      5.453      8.715
REMARK INTER + INTRA:          -9.230
REMARK INTER:                  -8.234
REMARK INTRA:                  -0.996
REMARK UNBOUND:                -0.829
REMARK  Name = 
REMARK  7 active torsions:
REMARK  status: ('A' for Active; 'I' for Inactive)
REMARK    1  A    between atoms: C_1  and  C_2
REMARK    2  A    between atoms: C_2  and  C_3
REMARK    3  A    between atoms: C_2  and  C_4
REMARK    4  A    between atoms: C_2  and  C_15
REMARK    5  A    between atoms: C_5  and  C_6
REMARK    6  A    between atoms: C_9  and  C_10
REMARK    7  A    between atoms: C_20  and  C_21
REMARK                            x       y       z     vdW  Elec       q    Type
REMARK                         _______ _______ _______ _____ _____    ______ ____
ROOT
ATOM      1  C   UNL     1      50.005   7.610  14.046  0.00  0.00    +0.000 C 
ATOM      2  C   UNL     1      48.592   7.276  14.579  0.00  0.00    +0.000 C 
ATOM      3  C   UNL     1      47.820   8.618  14.686  0.00  0.00    +0.000 C 
ENDROOT
BRANCH   2   4
ATOM      4  C   UNL     1      48.627   6.605  15.969  0.00  0.00    +0.000 A 
ATOM      5  C   UNL     1      48.730   7.345  17.157  0.00  0.00    +0.000 A 
ATOM      6  C   UNL     1      48.724   6.719  18.406  0.00  0.00    +0.000 A 
ATOM      7  C   UNL     1      48.604   5.332  18.511  0.00  0.00    +0.000 A 
ATOM      8 CL   UNL     1      48.600   4.687  20.109  0.00  0.00    +0.000 Cl
ATOM      9  C   UNL     1      48.492   4.553  17.358  0.00  0.00    +0.000 A 
ATOM     10  C   UNL     1      48.519   5.205  16.098  0.00  0.00    +0.000 A 
BRANCH   9  11
ATOM     11  C   UNL     1      48.313   3.056  17.360  0.00  0.00    +0.000 C 
ATOM     12  F   UNL     1      47.230   2.573  18.023  0.00  0.00    +0.000 F 
ATOM     13  F   UNL     1      48.208   2.563  16.091  0.00  0.00    +0.000 F 
ATOM     14  F   UNL     1      49.387   2.419  17.908  0.00  0.00    +0.000 F 
ENDBRANCH   9  11
ENDBRANCH   2   4
BRANCH   2  15
ATOM     15  C   UNL     1      47.897   6.440  13.505  0.00  0.00    +0.000 C 
ATOM     16  C   UNL     1      46.579   6.330  13.248  0.00  0.00    +0.000 C 
BRANCH  16  17
ATOM     17  C   UNL     1      46.046   5.474  12.171  0.00  0.00    +0.000 A 
ATOM     18  C   UNL     1      45.557   4.192  12.428  0.00  0.00    +0.000 A 
ATOM     19  N   UNL     1      45.062   3.364  11.465  0.00  0.00    +0.000 NA
ATOM     20  C   UNL     1      45.075   3.889  10.207  0.00  0.00    +0.000 A 
ATOM     21  C   UNL     1      45.552   5.161   9.938  0.00  0.00    +0.000 A 
ATOM     22  N   UNL     1      46.045   5.975  10.908  0.00  0.00    +0.000 NA
BRANCH  20  23
ATOM     23  C   UNL     1      44.558   3.051   9.090  0.00  0.00    +0.000 C 
ATOM     24  N   UNL     1      44.202   3.711   7.946  0.00  0.00    +0.000 N 
ATOM     25  O   UNL     1      44.453   1.833   9.186  0.00  0.00    +0.000 OA
ATOM     26  H   UNL     1      44.294   4.720   7.885  0.00  0.00    +0.000 HD
ATOM     27  H   UNL     1      43.844   3.184   7.163  0.00  0.00    +0.000 HD
ENDBRANCH  20  23
ENDBRANCH  16  17
ENDBRANCH   2  15
TORSDOF 5
ENDMDL
MODEL 4
REMARK VINA RESULT:    -6.472      6.256      8.363
REMARK INTER + INTRA:          -9.193
REMARK INTER:                  -8.206
REMARK INTRA:                  -0.987
REMARK UNBOUND:                -0.829
REMARK  Name = 
REMARK  7 active torsions:
REMARK  status: ('A' for Active; 'I' for Inactive)
REMARK    1  A    between atoms: C_1  and  C_2
REMARK    2  A    between atoms: C_2  and  C_3
REMARK    3  A    between atoms: C_2  and  C_4
REMARK    4  A    between atoms: C_2  and  C_15
REMARK    5  A    between atoms: C_5  and  C_6
REMARK    6  A    between atoms: C_9  and  C_10
REMARK    7  A    between atoms: C_20  and  C_21
REMARK                            x       y       z     vdW  Elec       q    Type
REMARK                         _______ _______ _______ _____ _____    ______ ____
ROOT
ATOM      1  C   UNL     1      42.708   5.690  12.062  0.00  0.00    +0.000 C 
ATOM      2  C   UNL     1      44.239   5.792  12.257  0.00  0.00    +0.000 C 
ATOM      3  C   UNL     1      44.559   5.186  13.649  0.00  0.00    +0.000 C 
ENDROOT
BRANCH   2   4
ATOM      4  C   UNL     1      44.744   7.251  12.218  0.00  0.00    +0.000 A 
ATOM      5  C   UNL     1      45.902   7.662  12.894  0.00  0.00    +0.000 A 
ATOM      6  C   UNL     1      46.360   8.980  12.816  0.00  0.00    +0.000 A 
ATOM      7  C   UNL     1      45.682   9.929  12.050  0.00  0.00    +0.000 A 
ATOM      8 CL   UNL     1      46.356  11.515  12.030  0.00  0.00    +0.000 Cl
ATOM      9  C   UNL     1      44.527   9.567  11.353  0.00  0.00    +0.000 A 
ATOM     10  C   UNL     1      44.067   8.229  11.461  0.00  0.00    +0.000 A 
BRANCH   9  11
ATOM     11  C   UNL     1      43.746  10.499  10.463  0.00  0.00    +0.000 C 
ATOM     12  F   UNL     1      44.443  11.136   9.486  0.00  0.00    +0.000 F 
ATOM     13  F   UNL     1      42.736   9.846   9.818  0.00  0.00    +0.000 F 
ATOM     14  F   UNL     1      43.138  11.490  11.177  0.00  0.00    +0.000 F 
ENDBRANCH   9  11
ENDBRANCH   2   4
BRANCH   2  15
ATOM     15  C   UNL     1      44.884   4.885  11.210  0.00  0.00    +0.000 C 
ATOM     16  C   UNL     1      44.591   4.774   9.900  0.00  0.00    +0.000 C 
BRANCH  16  17
ATOM     17  C   UNL     1      45.301   3.844   9.001  0.00  0.00    +0.000 A 
ATOM     18  C   UNL     1      45.236   2.461   9.177  0.00  0.00    +0.000 A 
ATOM     19  N   UNL     1      45.880   1.565   8.376  0.00  0.00    +0.000 NA
ATOM     20  C   UNL     1      46.604   2.128   7.367  0.00  0.00    +0.000 A 
ATOM     21  C   UNL     1      46.674   3.498   7.178  0.00  0.00    +0.000 A 
ATOM     22  N   UNL     1      46.029   4.379   7.986  0.00  0.00    +0.000 NA
BRANCH  20  23
ATOM     23  C   UNL     1      47.347   1.224   6.446  0.00  0.00    +0.000 C 
ATOM     24  N   UNL     1      48.276   1.811   5.632  0.00  0.00    +0.000 N 
ATOM     25  O   UNL     1      47.140   0.015   6.415  0.00  0.00    +0.000 OA
ATOM     26  H   UNL     1      48.432   2.813   5.671  0.00  0.00    +0.000 HD
ATOM     27  H   UNL     1      48.802   1.237   4.989  0.00  0.00    +0.000 HD
ENDBRANCH  20  23
ENDBRANCH  16  17
ENDBRANCH   2  15
TORSDOF 5
ENDMDL
MODEL 5
REMARK VINA RESULT:    -6.451      5.977      9.090
REMARK INTER + INTRA:          -9.166
REMARK INTER:                  -8.266
REMARK INTRA:                  -0.899
REMARK UNBOUND:                -0.829
REMARK  Name = 
REMARK  7 active torsions:
REMARK  status: ('A' for Active; 'I' for Inactive)
REMARK    1  A    between atoms: C_1  and  C_2
REMARK    2  A    between atoms: C_2  and  C_3
REMARK    3  A    between atoms: C_2  and  C_4
REMARK    4  A    between atoms: C_2  and  C_15
REMARK    5  A    between atoms: C_5  and  C_6
REMARK    6  A    between atoms: C_9  and  C_10
REMARK    7  A    between atoms: C_20  and  C_21
REMARK                            x       y       z     vdW  Elec       q    Type
REMARK                         _______ _______ _______ _____ _____    ______ ____
ROOT
ATOM      1  C   UNL     1      47.267   5.230  18.636  0.00  0.00    +0.000 C 
ATOM      2  C   UNL     1      47.939   4.347  17.560  0.00  0.00    +0.000 C 
ATOM      3  C   UNL     1      47.731   2.871  17.991  0.00  0.00    +0.000 C 
ENDROOT
BRANCH   2   4
ATOM      4  C   UNL     1      49.453   4.622  17.429  0.00  0.00    +0.000 A 
ATOM      5  C   UNL     1      49.958   5.872  17.043  0.00  0.00    +0.000 A 
ATOM      6  C   UNL     1      51.333   6.108  16.965  0.00  0.00    +0.000 A 
ATOM      7  C   UNL     1      52.250   5.105  17.282  0.00  0.00    +0.000 A 
ATOM      8 CL   UNL     1      53.916   5.529  17.154  0.00  0.00    +0.000 Cl
ATOM      9  C   UNL     1      51.797   3.845  17.677  0.00  0.00    +0.000 A 
ATOM     10  C   UNL     1      50.397   3.619  17.732  0.00  0.00    +0.000 A 
BRANCH   9  11
ATOM     11  C   UNL     1      52.699   2.708  18.084  0.00  0.00    +0.000 C 
ATOM     12  F   UNL     1      53.812   2.513  17.330  0.00  0.00    +0.000 F 
ATOM     13  F   UNL     1      53.153   2.863  19.362  0.00  0.00    +0.000 F 
ATOM     14  F   UNL     1      52.043   1.513  18.075  0.00  0.00    +0.000 F 
ENDBRANCH   9  11
ENDBRANCH   2   4
BRANCH   2  15
ATOM     15  C   UNL     1      47.158   4.552  16.262  0.00  0.00    +0.000 C 
ATOM     16  C   UNL     1      47.226   3.843  15.119  0.00  0.00    +0.000 C 
BRANCH  16  17
ATOM     17  C   UNL     1      46.407   4.162  13.934  0.00  0.00    +0.000 A 
ATOM     18  C   UNL     1      46.041   5.473  13.626  0.00  0.00    +0.000 A 
ATOM     19  N   UNL     1      45.281   5.813  12.547  0.00  0.00    +0.000 NA
ATOM     20  C   UNL     1      44.898   4.760  11.771  0.00  0.00    +0.000 A 
ATOM     21  C   UNL     1      45.258   3.454  12.062  0.00  0.00    +0.000 A 
ATOM     22  N   UNL     1      46.014   3.130  13.143  0.00  0.00    +0.000 NA
BRANCH  20  23
ATOM     23  C   UNL     1      44.059   5.037  10.573  0.00  0.00    +0.000 C 
ATOM     24  N   UNL     1      44.639   4.812   9.355  0.00  0.00    +0.000 N 
ATOM     25  O   UNL     1      42.907   5.448  10.668  0.00  0.00    +0.000 OA
ATOM     26  H   UNL     1      45.594   4.472   9.296  0.00  0.00    +0.000 HD
ATOM     27  H   UNL     1      44.109   4.988   8.515  0.00  0.00    +0.000 HD
ENDBRANCH  20  23
ENDBRANCH  16  17
ENDBRANCH   2  15
TORSDOF 5
ENDMDL
MODEL 6
REMARK VINA RESULT:    -6.447      5.741      8.265
REMARK INTER + INTRA:          -9.160
REMARK INTER:                  -8.306
REMARK INTRA:                  -0.855
REMARK UNBOUND:                -0.829
REMARK  Name = 
REMARK  7 active torsions:
REMARK  status: ('A' for Active; 'I' for Inactive)
REMARK    1  A    between atoms: C_1  and  C_2
REMARK    2  A    between atoms: C_2  and  C_3
REMARK    3  A    between atoms: C_2  and  C_4
REMARK    4  A    between atoms: C_2  and  C_15
REMARK    5  A    between atoms: C_5  and  C_6
REMARK    6  A    between atoms: C_9  and  C_10
REMARK    7  A    between atoms: C_20  and  C_21
REMARK                            x       y       z     vdW  Elec       q    Type
REMARK                         _______ _______ _______ _____ _____    ______ ____
ROOT
ATOM      1  C   UNL     1      44.485   7.985  11.192  0.00  0.00    +0.000 C 
ATOM      2  C   UNL     1      45.522   7.079  11.895  0.00  0.00    +0.000 C 
ATOM      3  C   UNL     1      44.784   6.364  13.057  0.00  0.00    +0.000 C 
ENDROOT
BRANCH   2   4
ATOM      4  C   UNL     1      46.712   7.878  12.472  0.00  0.00    +0.000 A 
ATOM      5  C   UNL     1      46.610   8.627  13.653  0.00  0.00    +0.000 A 
ATOM      6  C   UNL     1      47.709   9.313  14.175  0.00  0.00    +0.000 A 
ATOM      7  C   UNL     1      48.950   9.265  13.540  0.00  0.00    +0.000 A 
ATOM      8 CL   UNL     1      50.226  10.148  14.292  0.00  0.00    +0.000 Cl
ATOM      9  C   UNL     1      49.104   8.529  12.364  0.00  0.00    +0.000 A 
ATOM     10  C   UNL     1      47.972   7.854  11.839  0.00  0.00    +0.000 A 
BRANCH   9  11
ATOM     11  C   UNL     1      50.408   8.374  11.624  0.00  0.00    +0.000 C 
ATOM     12  F   UNL     1      50.462   7.399  10.680  0.00  0.00    +0.000 F 
ATOM     13  F   UNL     1      50.753   9.524  10.974  0.00  0.00    +0.000 F 
ATOM     14  F   UNL     1      51.443   8.114  12.473  0.00  0.00    +0.000 F 
ENDBRANCH   9  11
ENDBRANCH   2   4
BRANCH   2  15
ATOM     15  C   UNL     1      45.929   6.003  10.889  0.00  0.00    +0.000 C 
ATOM     16  C   UNL     1      45.143   5.279  10.069  0.00  0.00    +0.000 C 
BRANCH  16  17
ATOM     17  C   UNL     1      45.678   4.262   9.144  0.00  0.00    +0.000 A 
ATOM     18  C   UNL     1      45.500   2.897   9.373  0.00  0.00    +0.000 A 
ATOM     19  N   UNL     1      45.983   1.923   8.550  0.00  0.00    +0.000 NA
ATOM     20  C   UNL     1      46.662   2.387   7.463  0.00  0.00    +0.000 A 
ATOM     21  C   UNL     1      46.843   3.739   7.221  0.00  0.00    +0.000 A 
ATOM     22  N   UNL     1      46.358   4.699   8.051  0.00  0.00    +0.000 NA
BRANCH  20  23
ATOM     23  C   UNL     1      47.230   1.392   6.512  0.00  0.00    +0.000 C 
ATOM     24  N   UNL     1      48.161   1.857   5.624  0.00  0.00    +0.000 N 
ATOM     25  O   UNL     1      46.886   0.214   6.520  0.00  0.00    +0.000 OA
ATOM     26  H   UNL     1      48.433   2.835   5.632  0.00  0.00    +0.000 HD
ATOM     27  H   UNL     1      48.572   1.219   4.959  0.00  0.00    +0.000 HD
ENDBRANCH  20  23
ENDBRANCH  16  17
ENDBRANCH   2  15
TORSDOF 5
ENDMDL
MODEL 7
REMARK VINA RESULT:    -6.375      5.932      8.359
REMARK INTER + INTRA:          -9.067
REMARK INTER:                  -8.204
REMARK INTRA:                  -0.863
REMARK UNBOUND:                -0.829
REMARK  Name = 
REMARK  7 active torsions:
REMARK  status: ('A' for Active; 'I' for Inactive)
REMARK    1  A    between atoms: C_1  and  C_2
REMARK    2  A    between atoms: C_2  and  C_3
REMARK    3  A    between atoms: C_2  and  C_4
REMARK    4  A    between atoms: C_2  and  C_15
REMARK    5  A    between atoms: C_5  and  C_6
REMARK    6  A    between atoms: C_9  and  C_10
REMARK    7  A    between atoms: C_20  and  C_21
REMARK                            x       y       z     vdW  Elec       q    Type
REMARK                         _______ _______ _______ _____ _____    ______ ____
ROOT
ATOM      1  C   UNL     1      43.453   7.279  11.241  0.00  0.00    +0.000 C 
ATOM      2  C   UNL     1      44.744   6.726  11.889  0.00  0.00    +0.000 C 
ATOM      3  C   UNL     1      44.317   5.981  13.182  0.00  0.00    +0.000 C 
ENDROOT
BRANCH   2   4
ATOM      4  C   UNL     1      45.744   7.842  12.261  0.00  0.00    +0.000 A 
ATOM      5  C   UNL     1      45.569   9.173  11.854  0.00  0.00    +0.000 A 
ATOM      6  C   UNL     1      46.469  10.173  12.231  0.00  0.00    +0.000 A 
ATOM      7  C   UNL     1      47.569   9.878  13.039  0.00  0.00    +0.000 A 
ATOM      8 CL   UNL     1      48.596  11.203  13.440  0.00  0.00    +0.000 Cl
ATOM      9  C   UNL     1      47.783   8.569  13.475  0.00  0.00    +0.000 A 
ATOM     10  C   UNL     1      46.869   7.565  13.065  0.00  0.00    +0.000 A 
BRANCH   9  11
ATOM     11  C   UNL     1      48.910   8.152  14.384  0.00  0.00    +0.000 C 
ATOM     12  F   UNL     1      48.957   6.841  14.735  0.00  0.00    +0.000 F 
ATOM     13  F   UNL     1      50.127   8.420  13.827  0.00  0.00    +0.000 F 
ATOM     14  F   UNL     1      48.892   8.841  15.561  0.00  0.00    +0.000 F 
ENDBRANCH   9  11
ENDBRANCH   2   4
BRANCH   2  15
ATOM     15  C   UNL     1      45.311   5.679  10.931  0.00  0.00    +0.000 C 
ATOM     16  C   UNL     1      44.700   5.065   9.900  0.00  0.00    +0.000 C 
BRANCH  16  17
ATOM     17  C   UNL     1      45.377   4.063   9.055  0.00  0.00    +0.000 A 
ATOM     18  C   UNL     1      45.248   2.694   9.296  0.00  0.00    +0.000 A 
ATOM     19  N   UNL     1      45.859   1.733   8.545  0.00  0.00    +0.000 NA
ATOM     20  C   UNL     1      46.619   2.215   7.521  0.00  0.00    +0.000 A 
ATOM     21  C   UNL     1      46.752   3.570   7.268  0.00  0.00    +0.000 A 
ATOM     22  N   UNL     1      46.138   4.516   8.025  0.00  0.00    +0.000 NA
BRANCH  20  23
ATOM     23  C   UNL     1      47.329   1.235   6.653  0.00  0.00    +0.000 C 
ATOM     24  N   UNL     1      48.375   1.719   5.916  0.00  0.00    +0.000 N 
ATOM     25  O   UNL     1      46.998   0.056   6.598  0.00  0.00    +0.000 OA
ATOM     26  H   UNL     1      48.635   2.699   5.974  0.00  0.00    +0.000 HD
ATOM     27  H   UNL     1      48.885   1.092   5.312  0.00  0.00    +0.000 HD
ENDBRANCH  20  23
ENDBRANCH  16  17
ENDBRANCH   2  15
TORSDOF 5
ENDMDL
MODEL 8
REMARK VINA RESULT:    -6.214      3.547      5.175
REMARK INTER + INTRA:          -8.860
REMARK INTER:                  -7.971
REMARK INTRA:                  -0.888
REMARK UNBOUND:                -0.829
REMARK  Name = 
REMARK  7 active torsions:
REMARK  status: ('A' for Active; 'I' for Inactive)
REMARK    1  A    between atoms: C_1  and  C_2
REMARK    2  A    between atoms: C_2  and  C_3
REMARK    3  A    between atoms: C_2  and  C_4
REMARK    4  A    between atoms: C_2  and  C_15
REMARK    5  A    between atoms: C_5  and  C_6
REMARK    6  A    between atoms: C_9  and  C_10
REMARK    7  A    between atoms: C_20  and  C_21
REMARK                            x       y       z     vdW  Elec       q    Type
REMARK                         _______ _______ _______ _____ _____    ______ ____
ROOT
ATOM      1  C   UNL     1      47.902   9.209  13.177  0.00  0.00    +0.000 C 
ATOM      2  C   UNL     1      48.062   7.749  12.691  0.00  0.00    +0.000 C 
ATOM      3  C   UNL     1      48.943   7.791  11.415  0.00  0.00    +0.000 C 
ENDROOT
BRANCH   2   4
ATOM      4  C   UNL     1      46.709   7.089  12.345  0.00  0.00    +0.000 A 
ATOM      5  C   UNL     1      45.612   7.827  11.877  0.00  0.00    +0.000 A 
ATOM      6  C   UNL     1      44.409   7.204  11.537  0.00  0.00    +0.000 A 
ATOM      7  C   UNL     1      44.265   5.820  11.643  0.00  0.00    +0.000 A 
ATOM      8 CL   UNL     1      42.734   5.175  11.183  0.00  0.00    +0.000 Cl
ATOM      9  C   UNL     1      45.331   5.041  12.098  0.00  0.00    +0.000 A 
ATOM     10  C   UNL     1      46.538   5.694  12.457  0.00  0.00    +0.000 A 
BRANCH   9  11
ATOM     11  C   UNL     1      45.296   3.538  12.207  0.00  0.00    +0.000 C 
ATOM     12  F   UNL     1      45.365   2.841  11.043  0.00  0.00    +0.000 F 
ATOM     13  F   UNL     1      46.327   3.068  12.969  0.00  0.00    +0.000 F 
ATOM     14  F   UNL     1      44.161   3.100  12.824  0.00  0.00    +0.000 F 
ENDBRANCH   9  11
ENDBRANCH   2   4
BRANCH   2  15
ATOM     15  C   UNL     1      48.857   7.006  13.764  0.00  0.00    +0.000 C 
ATOM     16  C   UNL     1      48.711   7.055  15.103  0.00  0.00    +0.000 C 
BRANCH  16  17
ATOM     17  C   UNL     1      49.561   6.279  16.025  0.00  0.00    +0.000 A 
ATOM     18  C   UNL     1      50.889   6.632  16.271  0.00  0.00    +0.000 A 
ATOM     19  N   UNL     1      51.713   5.941  17.110  0.00  0.00    +0.000 NA
ATOM     20  C   UNL     1      51.134   4.861  17.707  0.00  0.00    +0.000 A 
ATOM     21  C   UNL     1      49.816   4.502  17.476  0.00  0.00    +0.000 A 
ATOM     22  N   UNL     1      49.008   5.198  16.635  0.00  0.00    +0.000 NA
BRANCH  20  23
ATOM     23  C   UNL     1      51.963   4.043  18.635  0.00  0.00    +0.000 C 
ATOM     24  N   UNL     1      51.697   4.177  19.970  0.00  0.00    +0.000 N 
ATOM     25  O   UNL     1      52.840   3.288  18.229  0.00  0.00    +0.000 OA
ATOM     26  H   UNL     1      50.968   4.808  20.287  0.00  0.00    +0.000 HD
ATOM     27  H   UNL     1      52.236   3.644  20.637  0.00  0.00    +0.000 HD
ENDBRANCH  20  23
ENDBRANCH  16  17
ENDBRANCH   2  15
TORSDOF 5
ENDMDL
MODEL 9
REMARK VINA RESULT:    -6.169      3.023      4.614
REMARK INTER + INTRA:          -8.801
REMARK INTER:                  -7.855
REMARK INTRA:                  -0.947
REMARK UNBOUND:                -0.829
REMARK  Name = 
REMARK  7 active torsions:
REMARK  status: ('A' for Active; 'I' for Inactive)
REMARK    1  A    between atoms: C_1  and  C_2
REMARK    2  A    between atoms: C_2  and  C_3
REMARK    3  A    between atoms: C_2  and  C_4
REMARK    4  A    between atoms: C_2  and  C_15
REMARK    5  A    between atoms: C_5  and  C_6
REMARK    6  A    between atoms: C_9  and  C_10
REMARK    7  A    between atoms: C_20  and  C_21
REMARK                            x       y       z     vdW  Elec       q    Type
REMARK                         _______ _______ _______ _____ _____    ______ ____
ROOT
ATOM      1  C   UNL     1      46.211   8.967  12.423  0.00  0.00    +0.000 C 
ATOM      2  C   UNL     1      46.963   7.621  12.544  0.00  0.00    +0.000 C 
ATOM      3  C   UNL     1      48.125   7.658  11.517  0.00  0.00    +0.000 C 
ENDROOT
BRANCH   2   4
ATOM      4  C   UNL     1      46.059   6.408  12.235  0.00  0.00    +0.000 A 
ATOM      5  C   UNL     1      45.210   5.840  13.196  0.00  0.00    +0.000 A 
ATOM      6  C   UNL     1      44.375   4.765  12.884  0.00  0.00    +0.000 A 
ATOM      7  C   UNL     1      44.352   4.227  11.597  0.00  0.00    +0.000 A 
ATOM      8 CL   UNL     1      43.270   2.909  11.341  0.00  0.00    +0.000 Cl
ATOM      9  C   UNL     1      45.174   4.761  10.603  0.00  0.00    +0.000 A 
ATOM     10  C   UNL     1      46.029   5.841  10.945  0.00  0.00    +0.000 A 
BRANCH   9  11
ATOM     11  C   UNL     1      45.194   4.287   9.173  0.00  0.00    +0.000 C 
ATOM     12  F   UNL     1      45.537   2.989   8.966  0.00  0.00    +0.000 F 
ATOM     13  F   UNL     1      43.973   4.435   8.580  0.00  0.00    +0.000 F 
ATOM     14  F   UNL     1      46.058   5.015   8.410  0.00  0.00    +0.000 F 
ENDBRANCH   9  11
ENDBRANCH   2   4
BRANCH   2  15
ATOM     15  C   UNL     1      47.592   7.586  13.937  0.00  0.00    +0.000 C 
ATOM     16  C   UNL     1      48.527   6.743  14.415  0.00  0.00    +0.000 C 
BRANCH  16  17
ATOM     17  C   UNL     1      49.044   6.826  15.794  0.00  0.00    +0.000 A 
ATOM     18  C   UNL     1      48.839   7.956  16.588  0.00  0.00    +0.000 A 
ATOM     19  N   UNL     1      49.303   8.079  17.864  0.00  0.00    +0.000 NA
ATOM     20  C   UNL     1      49.992   6.995  18.321  0.00  0.00    +0.000 A 
ATOM     21  C   UNL     1      50.199   5.866  17.547  0.00  0.00    +0.000 A 
ATOM     22  N   UNL     1      49.732   5.758  16.275  0.00  0.00    +0.000 NA
BRANCH  20  23
ATOM     23  C   UNL     1      50.541   7.045  19.704  0.00  0.00    +0.000 C 
ATOM     24  N   UNL     1      50.943   5.854  20.245  0.00  0.00    +0.000 N 
ATOM     25  O   UNL     1      50.632   8.095  20.331  0.00  0.00    +0.000 OA
ATOM     26  H   UNL     1      50.860   4.994  19.711  0.00  0.00    +0.000 HD
ATOM     27  H   UNL     1      51.320   5.839  21.181  0.00  0.00    +0.000 HD
ENDBRANCH  20  23
ENDBRANCH  16  17
ENDBRANCH   2  15
TORSDOF 5
ENDMDL
