MODEL 1
REMARK VINA RESULT:    -7.110      0.000      0.000
REMARK INTER + INTRA:          -9.829
REMARK INTER:                  -9.188
REMARK INTRA:                  -0.641
REMARK UNBOUND:                -0.641
REMARK  Name = 
REMARK  5 active torsions:
REMARK  status: ('A' for Active; 'I' for Inactive)
REMARK    1  A    between atoms: C_2  and  C_4
REMARK    2  A    between atoms: C_4  and  O_5
REMARK    3  A    between atoms: O_5  and  C_6
REMARK    4  A    between atoms: C_9  and  C_10
REMARK    5  A    between atoms: C_10  and  N_11
REMARK                            x       y       z     vdW  Elec       q    Type
REMARK                         _______ _______ _______ _____ _____    ______ ____
ROOT
ATOM      1  C   UNL     1      45.221   3.121   8.682  0.00  0.00    +0.000 A 
ATOM      2  C   UNL     1      45.559   4.469   8.806  0.00  0.00    +0.000 A 
ATOM      3  C   UNL     1      45.216   5.182   9.960  0.00  0.00    +0.000 A 
ATOM      4  C   UNL     1      44.529   4.551  11.004  0.00  0.00    +0.000 A 
ATOM      5  C   UNL     1      44.142   3.214  10.847  0.00  0.00    +0.000 A 
ATOM      6  C   UNL     1      44.477   2.506   9.690  0.00  0.00    +0.000 A 
ENDROOT
BRANCH   1   7
ATOM      7  O   UNL     1      45.659   2.499   7.544  0.00  0.00    +0.000 OA
BRANCH   7   8
ATOM      8  C   UNL     1      46.638   3.226   6.801  0.00  0.00    +0.000 C 
BRANCH   8  10
ATOM      9  N   UNL     1      48.258   2.612   5.065  0.00  0.00    +0.000 N 
ATOM     10  C   UNL     1      47.764   2.325   6.302  0.00  0.00    +0.000 C 
ATOM     11  O   UNL     1      48.211   1.391   6.962  0.00  0.00    +0.000 OA
ATOM     12  H   UNL     1      49.024   2.061   4.704  0.00  0.00    +0.000 HD
ATOM     13  H   UNL     1      47.908   3.405   4.542  0.00  0.00    +0.000 HD
ENDBRANCH   8  10
ENDBRANCH   7   8
ENDBRANCH   1   7
BRANCH   4  14
ATOM     14  C   UNL     1      44.222   5.285  12.284  0.00  0.00    +0.000 C 
BRANCH  14  15
ATOM     15  N   UNL     1      45.414   5.827  12.916  0.00  0.00    +0.000 N 
ATOM     16  C   UNL     1      46.362   5.092  13.591  0.00  0.00    +0.000 A 
ATOM     17  C   UNL     1      47.406   5.934  13.906  0.00  0.00    +0.000 A 
ATOM     18  C   UNL     1      47.089   7.222  13.398  0.00  0.00    +0.000 A 
ATOM     19  C   UNL     1      47.735   8.468  13.362  0.00  0.00    +0.000 A 
ATOM     20  C   UNL     1      47.072   9.522  12.735  0.00  0.00    +0.000 A 
ATOM     21  C   UNL     1      45.817   9.297  12.185  0.00  0.00    +0.000 A 
ATOM     22  N   UNL     1      45.154   8.119  12.186  0.00  0.00    +0.000 NA
ATOM     23  C   UNL     1      45.834   7.129  12.799  0.00  0.00    +0.000 A 
ENDBRANCH  14  15
ENDBRANCH   4  14
TORSDOF 5
ENDMDL
MODEL 2
REMARK VINA RESULT:    -6.766      1.473      2.677
REMARK INTER + INTRA:          -9.386
REMARK INTER:                  -9.305
REMARK INTRA:                  -0.081
REMARK UNBOUND:                -0.641
REMARK  Name = 
REMARK  5 active torsions:
REMARK  status: ('A' for Active; 'I' for Inactive)
REMARK    1  A    between atoms: C_2  and  C_4
REMARK    2  A    between atoms: C_4  and  O_5
REMARK    3  A    between atoms: O_5  and  C_6
REMARK    4  A    between atoms: C_9  and  C_10
REMARK    5  A    between atoms: C_10  and  N_11
REMARK                            x       y       z     vdW  Elec       q    Type
REMARK                         _______ _______ _______ _____ _____    ______ ____
ROOT
ATOM      1  C   UNL     1      45.211   3.542   8.848  0.00  0.00    +0.000 A 
ATOM      2  C   UNL     1      45.390   4.887   9.175  0.00  0.00    +0.000 A 
ATOM      3  C   UNL     1      45.277   5.314  10.503  0.00  0.00    +0.000 A 
ATOM      4  C   UNL     1      44.981   4.396  11.519  0.00  0.00    +0.000 A 
ATOM      5  C   UNL     1      44.745   3.058  11.173  0.00  0.00    +0.000 A 
ATOM      6  C   UNL     1      44.850   2.637   9.846  0.00  0.00    +0.000 A 
ENDROOT
BRANCH   1   7
ATOM      7  O   UNL     1      45.407   3.219   7.532  0.00  0.00    +0.000 OA
BRANCH   7   8
ATOM      8  C   UNL     1      46.703   3.533   7.022  0.00  0.00    +0.000 C 
BRANCH   8  10
ATOM      9  N   UNL     1      48.746   2.445   6.211  0.00  0.00    +0.000 N 
ATOM     10  C   UNL     1      47.594   2.298   6.924  0.00  0.00    +0.000 C 
ATOM     11  O   UNL     1      47.307   1.226   7.449  0.00  0.00    +0.000 OA
ATOM     12  H   UNL     1      49.383   1.664   6.142  0.00  0.00    +0.000 HD
ATOM     13  H   UNL     1      48.993   3.342   5.811  0.00  0.00    +0.000 HD
ENDBRANCH   8  10
ENDBRANCH   7   8
ENDBRANCH   1   7
BRANCH   4  14
ATOM     14  C   UNL     1      44.933   4.827  12.962  0.00  0.00    +0.000 C 
BRANCH  14  15
ATOM     15  N   UNL     1      46.149   5.504  13.382  0.00  0.00    +0.000 N 
ATOM     16  C   UNL     1      46.653   6.656  12.823  0.00  0.00    +0.000 A 
ATOM     17  C   UNL     1      47.722   7.067  13.589  0.00  0.00    +0.000 A 
ATOM     18  C   UNL     1      47.868   6.141  14.656  0.00  0.00    +0.000 A 
ATOM     19  C   UNL     1      48.723   6.021  15.764  0.00  0.00    +0.000 A 
ATOM     20  C   UNL     1      48.526   4.935  16.617  0.00  0.00    +0.000 A 
ATOM     21  C   UNL     1      47.511   4.031  16.334  0.00  0.00    +0.000 A 
ATOM     22  N   UNL     1      46.659   4.102  15.287  0.00  0.00    +0.000 NA
ATOM     23  C   UNL     1      46.884   5.169  14.492  0.00  0.00    +0.000 A 
ENDBRANCH  14  15
ENDBRANCH   4  14
TORSDOF 5
ENDMDL
MODEL 3
REMARK VINA RESULT:    -6.574      0.981      2.199
REMARK INTER + INTRA:          -9.137
REMARK INTER:                  -8.690
REMARK INTRA:                  -0.448
REMARK UNBOUND:                -0.641
REMARK  Name = 
REMARK  5 active torsions:
REMARK  status: ('A' for Active; 'I' for Inactive)
REMARK    1  A    between atoms: C_2  and  C_4
REMARK    2  A    between atoms: C_4  and  O_5
REMARK    3  A    between atoms: O_5  and  C_6
REMARK    4  A    between atoms: C_9  and  C_10
REMARK    5  A    between atoms: C_10  and  N_11
REMARK                            x       y       z     vdW  Elec       q    Type
REMARK                         _______ _______ _______ _____ _____    ______ ____
ROOT
ATOM      1  C   UNL     1      45.282   3.447   9.022  0.00  0.00    +0.000 A 
ATOM      2  C   UNL     1      44.757   2.848  10.168  0.00  0.00    +0.000 A 
ATOM      3  C   UNL     1      44.563   3.597  11.333  0.00  0.00    +0.000 A 
ATOM      4  C   UNL     1      44.893   4.958  11.363  0.00  0.00    +0.000 A 
ATOM      5  C   UNL     1      45.474   5.537  10.227  0.00  0.00    +0.000 A 
ATOM      6  C   UNL     1      45.675   4.785   9.068  0.00  0.00    +0.000 A 
ENDROOT
BRANCH   1   7
ATOM      7  O   UNL     1      45.373   2.643   7.918  0.00  0.00    +0.000 OA
BRANCH   7   8
ATOM      8  C   UNL     1      46.354   3.044   6.961  0.00  0.00    +0.000 C 
BRANCH   8  10
ATOM      9  N   UNL     1      48.659   2.484   6.338  0.00  0.00    +0.000 N 
ATOM     10  C   UNL     1      47.475   2.018   6.826  0.00  0.00    +0.000 C 
ATOM     11  O   UNL     1      47.338   0.837   7.133  0.00  0.00    +0.000 OA
ATOM     12  H   UNL     1      49.440   1.849   6.257  0.00  0.00    +0.000 HD
ATOM     13  H   UNL     1      48.775   3.466   6.120  0.00  0.00    +0.000 HD
ENDBRANCH   8  10
ENDBRANCH   7   8
ENDBRANCH   1   7
BRANCH   4  14
ATOM     14  C   UNL     1      44.616   5.795  12.585  0.00  0.00    +0.000 C 
BRANCH  14  15
ATOM     15  N   UNL     1      45.383   7.030  12.601  0.00  0.00    +0.000 N 
ATOM     16  C   UNL     1      44.938   8.249  12.143  0.00  0.00    +0.000 A 
ATOM     17  C   UNL     1      45.886   9.196  12.468  0.00  0.00    +0.000 A 
ATOM     18  C   UNL     1      46.937   8.533  13.157  0.00  0.00    +0.000 A 
ATOM     19  C   UNL     1      48.141   8.930  13.761  0.00  0.00    +0.000 A 
ATOM     20  C   UNL     1      48.916   7.942  14.367  0.00  0.00    +0.000 A 
ATOM     21  C   UNL     1      48.472   6.627  14.342  0.00  0.00    +0.000 A 
ATOM     22  N   UNL     1      47.322   6.192  13.781  0.00  0.00    +0.000 NA
ATOM     23  C   UNL     1      46.603   7.182  13.211  0.00  0.00    +0.000 A 
ENDBRANCH  14  15
ENDBRANCH   4  14
TORSDOF 5
ENDMDL
MODEL 4
REMARK VINA RESULT:    -6.542      3.547      7.184
REMARK INTER + INTRA:          -9.096
REMARK INTER:                  -8.726
REMARK INTRA:                  -0.369
REMARK UNBOUND:                -0.641
REMARK  Name = 
REMARK  5 active torsions:
REMARK  status: ('A' for Active; 'I' for Inactive)
REMARK    1  A    between atoms: C_2  and  C_4
REMARK    2  A    between atoms: C_4  and  O_5
REMARK    3  A    between atoms: O_5  and  C_6
REMARK    4  A    between atoms: C_9  and  C_10
REMARK    5  A    between atoms: C_10  and  N_11
REMARK                            x       y       z     vdW  Elec       q    Type
REMARK                         _______ _______ _______ _____ _____    ______ ____
ROOT
ATOM      1  C   UNL     1      47.216   5.241  14.057  0.00  0.00    +0.000 A 
ATOM      2  C   UNL     1      46.269   4.229  13.890  0.00  0.00    +0.000 A 
ATOM      3  C   UNL     1      45.455   4.203  12.753  0.00  0.00    +0.000 A 
ATOM      4  C   UNL     1      45.580   5.192  11.769  0.00  0.00    +0.000 A 
ATOM      5  C   UNL     1      46.491   6.236  11.974  0.00  0.00    +0.000 A 
ATOM      6  C   UNL     1      47.297   6.266  13.114  0.00  0.00    +0.000 A 
ENDROOT
BRANCH   1   7
ATOM      7  O   UNL     1      48.005   5.140  15.171  0.00  0.00    +0.000 OA
BRANCH   7   8
ATOM      8  C   UNL     1      47.342   4.641  16.334  0.00  0.00    +0.000 C 
BRANCH   8  10
ATOM      9  N   UNL     1      47.626   2.981  18.118  0.00  0.00    +0.000 N 
ATOM     10  C   UNL     1      47.998   3.370  16.866  0.00  0.00    +0.000 C 
ATOM     11  O   UNL     1      48.815   2.721  16.218  0.00  0.00    +0.000 OA
ATOM     12  H   UNL     1      48.010   2.130  18.502  0.00  0.00    +0.000 HD
ATOM     13  H   UNL     1      46.925   3.502  18.631  0.00  0.00    +0.000 HD
ENDBRANCH   8  10
ENDBRANCH   7   8
ENDBRANCH   1   7
BRANCH   4  14
ATOM     14  C   UNL     1      44.764   5.132  10.503  0.00  0.00    +0.000 C 
BRANCH  14  15
ATOM     15  N   UNL     1      44.921   3.870   9.798  0.00  0.00    +0.000 N 
ATOM     16  C   UNL     1      44.243   2.708  10.086  0.00  0.00    +0.000 A 
ATOM     17  C   UNL     1      44.548   1.786   9.108  0.00  0.00    +0.000 A 
ATOM     18  C   UNL     1      45.432   2.411   8.188  0.00  0.00    +0.000 A 
ATOM     19  C   UNL     1      46.062   2.030   6.992  0.00  0.00    +0.000 A 
ATOM     20  C   UNL     1      46.872   2.973   6.359  0.00  0.00    +0.000 A 
ATOM     21  C   UNL     1      47.022   4.228   6.935  0.00  0.00    +0.000 A 
ATOM     22  N   UNL     1      46.436   4.647   8.078  0.00  0.00    +0.000 NA
ATOM     23  C   UNL     1      45.659   3.705   8.652  0.00  0.00    +0.000 A 
ENDBRANCH  14  15
ENDBRANCH   4  14
TORSDOF 5
ENDMDL
MODEL 5
REMARK VINA RESULT:    -6.257      3.593      7.113
REMARK INTER + INTRA:          -8.727
REMARK INTER:                  -8.231
REMARK INTRA:                  -0.496
REMARK UNBOUND:                -0.641
REMARK  Name = 
REMARK  5 active torsions:
REMARK  status: ('A' for Active; 'I' for Inactive)
REMARK    1  A    between atoms: C_2  and  C_4
REMARK    2  A    between atoms: C_4  and  O_5
REMARK    3  A    between atoms: O_5  and  C_6
REMARK    4  A    between atoms: C_9  and  C_10
REMARK    5  A    between atoms: C_10  and  N_11
REMARK                            x       y       z     vdW  Elec       q    Type
REMARK                         _______ _______ _______ _____ _____    ______ ____
ROOT
ATOM      1  C   UNL     1      48.016   7.401  13.741  0.00  0.00    +0.000 A 
ATOM      2  C   UNL     1      47.045   8.379  13.522  0.00  0.00    +0.000 A 
ATOM      3  C   UNL     1      45.932   8.104  12.720  0.00  0.00    +0.000 A 
ATOM      4  C   UNL     1      45.779   6.844  12.128  0.00  0.00    +0.000 A 
ATOM      5  C   UNL     1      46.788   5.888  12.306  0.00  0.00    +0.000 A 
ATOM      6  C   UNL     1      47.903   6.167  13.099  0.00  0.00    +0.000 A 
ENDROOT
BRANCH   1   7
ATOM      7  O   UNL     1      49.031   7.749  14.592  0.00  0.00    +0.000 OA
BRANCH   7   8
ATOM      8  C   UNL     1      48.690   7.716  15.979  0.00  0.00    +0.000 C 
BRANCH   8  10
ATOM      9  N   UNL     1      47.860   5.924  17.434  0.00  0.00    +0.000 N 
ATOM     10  C   UNL     1      48.840   6.318  16.571  0.00  0.00    +0.000 C 
ATOM     11  O   UNL     1      49.780   5.576  16.300  0.00  0.00    +0.000 OA
ATOM     12  H   UNL     1      47.899   4.996  17.829  0.00  0.00    +0.000 HD
ATOM     13  H   UNL     1      47.070   6.528  17.625  0.00  0.00    +0.000 HD
ENDBRANCH   8  10
ENDBRANCH   7   8
ENDBRANCH   1   7
BRANCH   4  14
ATOM     14  C   UNL     1      44.548   6.509  11.327  0.00  0.00    +0.000 C 
BRANCH  14  15
ATOM     15  N   UNL     1      44.405   5.081  11.094  0.00  0.00    +0.000 N 
ATOM     16  C   UNL     1      43.660   4.220  11.867  0.00  0.00    +0.000 A 
ATOM     17  C   UNL     1      43.649   2.992  11.241  0.00  0.00    +0.000 A 
ATOM     18  C   UNL     1      44.402   3.112  10.043  0.00  0.00    +0.000 A 
ATOM     19  C   UNL     1      44.730   2.256   8.979  0.00  0.00    +0.000 A 
ATOM     20  C   UNL     1      45.508   2.778   7.946  0.00  0.00    +0.000 A 
ATOM     21  C   UNL     1      45.923   4.101   8.016  0.00  0.00    +0.000 A 
ATOM     22  N   UNL     1      45.631   4.968   9.011  0.00  0.00    +0.000 NA
ATOM     23  C   UNL     1      44.874   4.422   9.986  0.00  0.00    +0.000 A 
ENDBRANCH  14  15
ENDBRANCH   4  14
TORSDOF 5
ENDMDL
MODEL 6
REMARK VINA RESULT:    -5.907      3.711      6.851
REMARK INTER + INTRA:          -8.276
REMARK INTER:                  -7.737
REMARK INTRA:                  -0.538
REMARK UNBOUND:                -0.641
REMARK  Name = 
REMARK  5 active torsions:
REMARK  status: ('A' for Active; 'I' for Inactive)
REMARK    1  A    between atoms: C_2  and  C_4
REMARK    2  A    between atoms: C_4  and  O_5
REMARK    3  A    between atoms: O_5  and  C_6
REMARK    4  A    between atoms: C_9  and  C_10
REMARK    5  A    between atoms: C_10  and  N_11
REMARK                            x       y       z     vdW  Elec       q    Type
REMARK                         _______ _______ _______ _____ _____    ______ ____
ROOT
ATOM      1  C   UNL     1      48.378   6.904  13.636  0.00  0.00    +0.000 A 
ATOM      2  C   UNL     1      47.604   5.794  13.979  0.00  0.00    +0.000 A 
ATOM      3  C   UNL     1      46.346   5.602  13.398  0.00  0.00    +0.000 A 
ATOM      4  C   UNL     1      45.847   6.522  12.467  0.00  0.00    +0.000 A 
ATOM      5  C   UNL     1      46.605   7.664  12.174  0.00  0.00    +0.000 A 
ATOM      6  C   UNL     1      47.857   7.858  12.761  0.00  0.00    +0.000 A 
ENDROOT
BRANCH   1   7
ATOM      7  O   UNL     1      49.619   6.965  14.211  0.00  0.00    +0.000 OA
BRANCH   7   8
ATOM      8  C   UNL     1      50.143   8.285  14.370  0.00  0.00    +0.000 C 
BRANCH   8  10
ATOM      9  N   UNL     1      52.524   7.824  14.002  0.00  0.00    +0.000 N 
ATOM     10  C   UNL     1      51.421   8.493  13.563  0.00  0.00    +0.000 C 
ATOM     11  O   UNL     1      51.474   9.218  12.573  0.00  0.00    +0.000 OA
ATOM     12  H   UNL     1      53.387   7.907  13.484  0.00  0.00    +0.000 HD
ATOM     13  H   UNL     1      52.464   7.200  14.798  0.00  0.00    +0.000 HD
ENDBRANCH   8  10
ENDBRANCH   7   8
ENDBRANCH   1   7
BRANCH   4  14
ATOM     14  C   UNL     1      44.529   6.287  11.776  0.00  0.00    +0.000 C 
BRANCH  14  15
ATOM     15  N   UNL     1      44.323   4.890  11.428  0.00  0.00    +0.000 N 
ATOM     16  C   UNL     1      43.551   3.999  12.137  0.00  0.00    +0.000 A 
ATOM     17  C   UNL     1      43.480   2.829  11.412  0.00  0.00    +0.000 A 
ATOM     18  C   UNL     1      44.224   3.018  10.217  0.00  0.00    +0.000 A 
ATOM     19  C   UNL     1      44.504   2.241   9.081  0.00  0.00    +0.000 A 
ATOM     20  C   UNL     1      45.292   2.814   8.083  0.00  0.00    +0.000 A 
ATOM     21  C   UNL     1      45.763   4.109   8.257  0.00  0.00    +0.000 A 
ATOM     22  N   UNL     1      45.520   4.901   9.325  0.00  0.00    +0.000 NA
ATOM     23  C   UNL     1      44.751   4.307  10.262  0.00  0.00    +0.000 A 
ENDBRANCH  14  15
ENDBRANCH   4  14
TORSDOF 5
ENDMDL
MODEL 7
REMARK VINA RESULT:    -5.804      3.100      4.891
REMARK INTER + INTRA:          -8.142
REMARK INTER:                  -7.424
REMARK INTRA:                  -0.718
REMARK UNBOUND:                -0.641
REMARK  Name = 
REMARK  5 active torsions:
REMARK  status: ('A' for Active; 'I' for Inactive)
REMARK    1  A    between atoms: C_2  and  C_4
REMARK    2  A    between atoms: C_4  and  O_5
REMARK    3  A    between atoms: O_5  and  C_6
REMARK    4  A    between atoms: C_9  and  C_10
REMARK    5  A    between atoms: C_10  and  N_11
REMARK                            x       y       z     vdW  Elec       q    Type
REMARK                         _______ _______ _______ _____ _____    ______ ____
ROOT
ATOM      1  C   UNL     1      44.737   5.579  12.039  0.00  0.00    +0.000 A 
ATOM      2  C   UNL     1      45.412   6.629  11.415  0.00  0.00    +0.000 A 
ATOM      3  C   UNL     1      46.681   7.017  11.859  0.00  0.00    +0.000 A 
ATOM      4  C   UNL     1      47.288   6.356  12.935  0.00  0.00    +0.000 A 
ATOM      5  C   UNL     1      46.577   5.343  13.592  0.00  0.00    +0.000 A 
ATOM      6  C   UNL     1      45.307   4.963  13.153  0.00  0.00    +0.000 A 
ENDROOT
BRANCH   1   7
ATOM      7  O   UNL     1      43.531   5.236  11.488  0.00  0.00    +0.000 OA
BRANCH   7   8
ATOM      8  C   UNL     1      43.409   3.862  11.117  0.00  0.00    +0.000 C 
BRANCH   8  10
ATOM      9  N   UNL     1      44.048   4.309   8.791  0.00  0.00    +0.000 N 
ATOM     10  C   UNL     1      44.247   3.524   9.888  0.00  0.00    +0.000 C 
ATOM     11  O   UNL     1      45.060   2.604   9.868  0.00  0.00    +0.000 OA
ATOM     12  H   UNL     1      44.600   4.142   7.962  0.00  0.00    +0.000 HD
ATOM     13  H   UNL     1      43.402   5.088   8.827  0.00  0.00    +0.000 HD
ENDBRANCH   8  10
ENDBRANCH   7   8
ENDBRANCH   1   7
BRANCH   4  14
ATOM     14  C   UNL     1      48.685   6.712  13.373  0.00  0.00    +0.000 C 
BRANCH  14  15
ATOM     15  N   UNL     1      48.704   7.472  14.613  0.00  0.00    +0.000 N 
ATOM     16  C   UNL     1      48.351   8.796  14.740  0.00  0.00    +0.000 A 
ATOM     17  C   UNL     1      48.353   9.108  16.082  0.00  0.00    +0.000 A 
ATOM     18  C   UNL     1      48.708   7.932  16.797  0.00  0.00    +0.000 A 
ATOM     19  C   UNL     1      48.849   7.592  18.152  0.00  0.00    +0.000 A 
ATOM     20  C   UNL     1      49.212   6.280  18.454  0.00  0.00    +0.000 A 
ATOM     21  C   UNL     1      49.420   5.382  17.415  0.00  0.00    +0.000 A 
ATOM     22  N   UNL     1      49.293   5.654  16.098  0.00  0.00    +0.000 NA
ATOM     23  C   UNL     1      48.936   6.933  15.853  0.00  0.00    +0.000 A 
ENDBRANCH  14  15
ENDBRANCH   4  14
TORSDOF 5
ENDMDL
MODEL 8
REMARK VINA RESULT:    -5.278      3.587      5.913
REMARK INTER + INTRA:          -7.463
REMARK INTER:                  -6.870
REMARK INTRA:                  -0.593
REMARK UNBOUND:                -0.641
REMARK  Name = 
REMARK  5 active torsions:
REMARK  status: ('A' for Active; 'I' for Inactive)
REMARK    1  A    between atoms: C_2  and  C_4
REMARK    2  A    between atoms: C_4  and  O_5
REMARK    3  A    between atoms: O_5  and  C_6
REMARK    4  A    between atoms: C_9  and  C_10
REMARK    5  A    between atoms: C_10  and  N_11
REMARK                            x       y       z     vdW  Elec       q    Type
REMARK                         _______ _______ _______ _____ _____    ______ ____
ROOT
ATOM      1  C   UNL     1      45.745   6.216  12.331  0.00  0.00    +0.000 A 
ATOM      2  C   UNL     1      46.388   7.454  12.282  0.00  0.00    +0.000 A 
ATOM      3  C   UNL     1      47.515   7.699  13.074  0.00  0.00    +0.000 A 
ATOM      4  C   UNL     1      48.010   6.705  13.927  0.00  0.00    +0.000 A 
ATOM      5  C   UNL     1      47.324   5.486  14.014  0.00  0.00    +0.000 A 
ATOM      6  C   UNL     1      46.194   5.247  13.229  0.00  0.00    +0.000 A 
ENDROOT
BRANCH   1   7
ATOM      7  O   UNL     1      44.693   6.057  11.470  0.00  0.00    +0.000 OA
BRANCH   7   8
ATOM      8  C   UNL     1      44.839   4.989  10.533  0.00  0.00    +0.000 C 
BRANCH   8  10
ATOM      9  N   UNL     1      42.761   4.214  11.578  0.00  0.00    +0.000 N 
ATOM     10  C   UNL     1      43.780   3.909  10.726  0.00  0.00    +0.000 C 
ATOM     11  O   UNL     1      43.825   2.822  10.157  0.00  0.00    +0.000 OA
ATOM     12  H   UNL     1      42.019   3.542  11.716  0.00  0.00    +0.000 HD
ATOM     13  H   UNL     1      42.712   5.125  12.016  0.00  0.00    +0.000 HD
ENDBRANCH   8  10
ENDBRANCH   7   8
ENDBRANCH   1   7
BRANCH   4  14
ATOM     14  C   UNL     1      49.267   6.928  14.727  0.00  0.00    +0.000 C 
BRANCH  14  15
ATOM     15  N   UNL     1      49.007   7.050  16.153  0.00  0.00    +0.000 N 
ATOM     16  C   UNL     1      48.561   8.188  16.786  0.00  0.00    +0.000 A 
ATOM     17  C   UNL     1      48.289   7.864  18.097  0.00  0.00    +0.000 A 
ATOM     18  C   UNL     1      48.568   6.482  18.266  0.00  0.00    +0.000 A 
ATOM     19  C   UNL     1      48.468   5.565  19.325  0.00  0.00    +0.000 A 
ATOM     20  C   UNL     1      48.841   4.245  19.075  0.00  0.00    +0.000 A 
ATOM     21  C   UNL     1      49.294   3.901  17.808  0.00  0.00    +0.000 A 
ATOM     22  N   UNL     1      49.404   4.740  16.754  0.00  0.00    +0.000 NA
ATOM     23  C   UNL     1      49.029   6.004  17.041  0.00  0.00    +0.000 A 
ENDBRANCH  14  15
ENDBRANCH   4  14
TORSDOF 5
ENDMDL
MODEL 9
REMARK VINA RESULT:    -5.059      3.146      4.670
REMARK INTER + INTRA:          -7.179
REMARK INTER:                  -6.468
REMARK INTRA:                  -0.711
REMARK UNBOUND:                -0.641
REMARK  Name = 
REMARK  5 active torsions:
REMARK  status: ('A' for Active; 'I' for Inactive)
REMARK    1  A    between atoms: C_2  and  C_4
REMARK    2  A    between atoms: C_4  and  O_5
REMARK    3  A    between atoms: O_5  and  C_6
REMARK    4  A    between atoms: C_9  and  C_10
REMARK    5  A    between atoms: C_10  and  N_11
REMARK                            x       y       z     vdW  Elec       q    Type
REMARK                         _______ _______ _______ _____ _____    ______ ____
ROOT
ATOM      1  C   UNL     1      44.644   5.255  12.825  0.00  0.00    +0.000 A 
ATOM      2  C   UNL     1      44.906   6.613  12.636  0.00  0.00    +0.000 A 
ATOM      3  C   UNL     1      46.182   7.130  12.888  0.00  0.00    +0.000 A 
ATOM      4  C   UNL     1      47.211   6.290  13.332  0.00  0.00    +0.000 A 
ATOM      5  C   UNL     1      46.923   4.940  13.576  0.00  0.00    +0.000 A 
ATOM      6  C   UNL     1      45.647   4.429  13.333  0.00  0.00    +0.000 A 
ENDROOT
BRANCH   1   7
ATOM      7  O   UNL     1      43.383   4.840  12.490  0.00  0.00    +0.000 OA
BRANCH   7   8
ATOM      8  C   UNL     1      43.026   5.047  11.123  0.00  0.00    +0.000 C 
BRANCH   8  10
ATOM      9  N   UNL     1      44.482   4.688   9.182  0.00  0.00    +0.000 N 
ATOM     10  C   UNL     1      43.773   4.101  10.187  0.00  0.00    +0.000 C 
ATOM     11  O   UNL     1      43.748   2.880  10.315  0.00  0.00    +0.000 OA
ATOM     12  H   UNL     1      45.016   4.105   8.553  0.00  0.00    +0.000 HD
ATOM     13  H   UNL     1      44.526   5.697   9.104  0.00  0.00    +0.000 HD
ENDBRANCH   8  10
ENDBRANCH   7   8
ENDBRANCH   1   7
BRANCH   4  14
ATOM     14  C   UNL     1      48.609   6.817  13.532  0.00  0.00    +0.000 C 
BRANCH  14  15
ATOM     15  N   UNL     1      48.760   7.534  14.788  0.00  0.00    +0.000 N 
ATOM     16  C   UNL     1      48.921   6.949  16.024  0.00  0.00    +0.000 A 
ATOM     17  C   UNL     1      49.184   7.950  16.935  0.00  0.00    +0.000 A 
ATOM     18  C   UNL     1      49.194   9.182  16.229  0.00  0.00    +0.000 A 
ATOM     19  C   UNL     1      49.428  10.525  16.567  0.00  0.00    +0.000 A 
ATOM     20  C   UNL     1      49.355  11.471  15.546  0.00  0.00    +0.000 A 
ATOM     21  C   UNL     1      49.054  11.050  14.257  0.00  0.00    +0.000 A 
ATOM     22  N   UNL     1      48.827   9.774  13.876  0.00  0.00    +0.000 NA
ATOM     23  C   UNL     1      48.911   8.894  14.896  0.00  0.00    +0.000 A 
ENDBRANCH  14  15
ENDBRANCH   4  14
TORSDOF 5
ENDMDL
