MODEL 1
REMARK VINA RESULT:    -9.408      0.000      0.000
REMARK INTER + INTRA:         -13.911
REMARK INTER:                 -12.983
REMARK INTRA:                  -0.928
REMARK UNBOUND:                -0.928
REMARK  Name = 
REMARK  7 active torsions:
REMARK  status: ('A' for Active; 'I' for Inactive)
REMARK    1  A    between atoms: C_2  and  C_4
REMARK    2  A    between atoms: N_8  and  C_9
REMARK    3  A    between atoms: C_9  and  C_10
REMARK    4  A    between atoms: C_10  and  C_11
REMARK    5  A    between atoms: C_15  and  C_16
REMARK    6  A    between atoms: C_19  and  S_20
REMARK    7  A    between atoms: S_20  and  N_21
REMARK                            x       y       z     vdW  Elec       q    Type
REMARK                         _______ _______ _______ _____ _____    ______ ____
ROOT
ATOM      1  C   UNL     1      45.146   5.995  12.194  0.00  0.00    +0.000 A 
ATOM      2  C   UNL     1      45.978   6.698  11.310  0.00  0.00    +0.000 A 
ATOM      3  C   UNL     1      47.326   6.885  11.594  0.00  0.00    +0.000 A 
ATOM      4  C   UNL     1      47.861   6.387  12.777  0.00  0.00    +0.000 A 
ATOM      5  C   UNL     1      47.060   5.709  13.713  0.00  0.00    +0.000 A 
ATOM      6  C   UNL     1      45.708   5.492  13.381  0.00  0.00    +0.000 A 
ENDROOT
BRANCH   5   7
ATOM      7  C   UNL     1      47.599   5.336  15.037  0.00  0.00    +0.000 A 
ATOM      8  C   UNL     1      48.526   6.183  15.679  0.00  0.00    +0.000 A 
ATOM      9  C   UNL     1      48.991   5.918  16.966  0.00  0.00    +0.000 A 
ATOM     10  C   UNL     1      48.512   4.801  17.645  0.00  0.00    +0.000 A 
ATOM     11  C   UNL     1      47.623   3.918  17.027  0.00  0.00    +0.000 A 
ATOM     12  C   UNL     1      47.174   4.188  15.729  0.00  0.00    +0.000 A 
BRANCH  10  13
ATOM     13  S   UNL     1      49.016   4.529  19.314  0.00  0.00    +0.000 S 
ATOM     14  O   UNL     1      50.451   4.359  19.355  0.00  0.00    +0.000 OA
ATOM     15  O   UNL     1      48.318   5.451  20.183  0.00  0.00    +0.000 OA
BRANCH  13  16
ATOM     16  N   UNL     1      48.356   3.017  19.608  0.00  0.00    +0.000 NA
ATOM     17  H   UNL     1      47.632   3.081  20.323  0.00  0.00    +0.000 HD
ATOM     18  H   UNL     1      48.052   2.590  18.735  0.00  0.00    +0.000 HD
ENDBRANCH  13  16
ENDBRANCH  10  13
ENDBRANCH   5   7
BRANCH   1  19
ATOM     19  C   UNL     1      43.666   5.773  11.943  0.00  0.00    +0.000 C 
BRANCH  19  20
ATOM     20  C   UNL     1      43.358   4.576  11.041  0.00  0.00    +0.000 C 
BRANCH  20  25
ATOM     21  C   UNL     1      46.419   2.330   7.731  0.00  0.00    +0.000 A 
ATOM     22  C   UNL     1      45.600   1.775   8.705  0.00  0.00    +0.000 A 
ATOM     23  C   UNL     1      44.698   2.597   9.375  0.00  0.00    +0.000 A 
ATOM     24  C   UNL     1      44.648   3.960   9.085  0.00  0.00    +0.000 A 
ATOM     25  N   UNL     1      43.715   4.820   9.655  0.00  0.00    +0.000 N 
ATOM     26  N   UNL     1      45.471   4.517   8.177  0.00  0.00    +0.000 NA
ATOM     27  C   UNL     1      46.338   3.698   7.522  0.00  0.00    +0.000 A 
ATOM     28  H   UNL     1      44.003   5.767   9.419  0.00  0.00    +0.000 HD
BRANCH  21  30
ATOM     29  N   UNL     1      48.513   2.117   6.523  0.00  0.00    +0.000 N 
ATOM     30  C   UNL     1      47.346   1.520   6.916  0.00  0.00    +0.000 C 
ATOM     31  O   UNL     1      47.103   0.354   6.642  0.00  0.00    +0.000 OA
ATOM     32  H   UNL     1      49.193   1.517   6.072  0.00  0.00    +0.000 HD
ATOM     33  H   UNL     1      48.854   2.971   6.940  0.00  0.00    +0.000 HD
ENDBRANCH  21  30
ENDBRANCH  20  25
ENDBRANCH  19  20
ENDBRANCH   1  19
TORSDOF 7
ENDMDL
MODEL 2
REMARK VINA RESULT:    -8.661      4.339      5.344
REMARK INTER + INTRA:         -12.881
REMARK INTER:                 -11.848
REMARK INTRA:                  -1.033
REMARK UNBOUND:                -0.928
REMARK  Name = 
REMARK  7 active torsions:
REMARK  status: ('A' for Active; 'I' for Inactive)
REMARK    1  A    between atoms: C_2  and  C_4
REMARK    2  A    between atoms: N_8  and  C_9
REMARK    3  A    between atoms: C_9  and  C_10
REMARK    4  A    between atoms: C_10  and  C_11
REMARK    5  A    between atoms: C_15  and  C_16
REMARK    6  A    between atoms: C_19  and  S_20
REMARK    7  A    between atoms: S_20  and  N_21
REMARK                            x       y       z     vdW  Elec       q    Type
REMARK                         _______ _______ _______ _____ _____    ______ ____
ROOT
ATOM      1  C   UNL     1      44.995   5.841  12.567  0.00  0.00    +0.000 A 
ATOM      2  C   UNL     1      45.392   4.784  13.399  0.00  0.00    +0.000 A 
ATOM      3  C   UNL     1      46.666   4.753  13.956  0.00  0.00    +0.000 A 
ATOM      4  C   UNL     1      47.570   5.771  13.674  0.00  0.00    +0.000 A 
ATOM      5  C   UNL     1      47.233   6.832  12.816  0.00  0.00    +0.000 A 
ATOM      6  C   UNL     1      45.922   6.865  12.301  0.00  0.00    +0.000 A 
ENDROOT
BRANCH   5   7
ATOM      7  C   UNL     1      48.254   7.813  12.391  0.00  0.00    +0.000 A 
ATOM      8  C   UNL     1      49.579   7.389  12.163  0.00  0.00    +0.000 A 
ATOM      9  C   UNL     1      50.552   8.259  11.675  0.00  0.00    +0.000 A 
ATOM     10  C   UNL     1      50.203   9.575  11.384  0.00  0.00    +0.000 A 
ATOM     11  C   UNL     1      48.911  10.040  11.634  0.00  0.00    +0.000 A 
ATOM     12  C   UNL     1      47.945   9.161  12.137  0.00  0.00    +0.000 A 
BRANCH  10  13
ATOM     13  S   UNL     1      51.408  10.642  10.661  0.00  0.00    +0.000 S 
ATOM     14  O   UNL     1      50.759  11.516   9.710  0.00  0.00    +0.000 OA
ATOM     15  O   UNL     1      52.293  11.136  11.693  0.00  0.00    +0.000 OA
BRANCH  13  16
ATOM     16  N   UNL     1      52.305   9.550   9.758  0.00  0.00    +0.000 NA
ATOM     17  H   UNL     1      51.719   9.115   9.047  0.00  0.00    +0.000 HD
ATOM     18  H   UNL     1      53.145  10.000   9.397  0.00  0.00    +0.000 HD
ENDBRANCH  13  16
ENDBRANCH  10  13
ENDBRANCH   5   7
BRANCH   1  19
ATOM     19  C   UNL     1      43.624   5.920  11.920  0.00  0.00    +0.000 C 
BRANCH  19  20
ATOM     20  C   UNL     1      43.304   4.748  10.991  0.00  0.00    +0.000 C 
BRANCH  20  25
ATOM     21  C   UNL     1      46.367   2.273   7.850  0.00  0.00    +0.000 A 
ATOM     22  C   UNL     1      45.441   1.783   8.762  0.00  0.00    +0.000 A 
ATOM     23  C   UNL     1      44.572   2.674   9.385  0.00  0.00    +0.000 A 
ATOM     24  C   UNL     1      44.659   4.040   9.112  0.00  0.00    +0.000 A 
ATOM     25  N   UNL     1      43.770   4.973   9.634  0.00  0.00    +0.000 N 
ATOM     26  N   UNL     1      45.585   4.530   8.267  0.00  0.00    +0.000 NA
ATOM     27  C   UNL     1      46.418   3.645   7.657  0.00  0.00    +0.000 A 
ATOM     28  H   UNL     1      44.154   5.893   9.431  0.00  0.00    +0.000 HD
BRANCH  21  30
ATOM     29  N   UNL     1      48.277   1.996   6.379  0.00  0.00    +0.000 N 
ATOM     30  C   UNL     1      47.270   1.393   7.084  0.00  0.00    +0.000 C 
ATOM     31  O   UNL     1      47.153   0.176   7.113  0.00  0.00    +0.000 OA
ATOM     32  H   UNL     1      48.961   1.378   5.960  0.00  0.00    +0.000 HD
ATOM     33  H   UNL     1      48.553   2.954   6.538  0.00  0.00    +0.000 HD
ENDBRANCH  21  30
ENDBRANCH  20  25
ENDBRANCH  19  20
ENDBRANCH   1  19
TORSDOF 7
ENDMDL
MODEL 3
REMARK VINA RESULT:    -8.418      1.203      1.682
REMARK INTER + INTRA:         -12.544
REMARK INTER:                 -11.346
REMARK INTRA:                  -1.198
REMARK UNBOUND:                -0.928
REMARK  Name = 
REMARK  7 active torsions:
REMARK  status: ('A' for Active; 'I' for Inactive)
REMARK    1  A    between atoms: C_2  and  C_4
REMARK    2  A    between atoms: N_8  and  C_9
REMARK    3  A    between atoms: C_9  and  C_10
REMARK    4  A    between atoms: C_10  and  C_11
REMARK    5  A    between atoms: C_15  and  C_16
REMARK    6  A    between atoms: C_19  and  S_20
REMARK    7  A    between atoms: S_20  and  N_21
REMARK                            x       y       z     vdW  Elec       q    Type
REMARK                         _______ _______ _______ _____ _____    ______ ____
ROOT
ATOM      1  C   UNL     1      44.644   5.710  12.403  0.00  0.00    +0.000 A 
ATOM      2  C   UNL     1      45.101   6.740  11.568  0.00  0.00    +0.000 A 
ATOM      3  C   UNL     1      46.351   7.317  11.765  0.00  0.00    +0.000 A 
ATOM      4  C   UNL     1      47.156   6.886  12.814  0.00  0.00    +0.000 A 
ATOM      5  C   UNL     1      46.726   5.883  13.701  0.00  0.00    +0.000 A 
ATOM      6  C   UNL     1      45.477   5.282  13.452  0.00  0.00    +0.000 A 
ENDROOT
BRANCH   5   7
ATOM      7  C   UNL     1      47.515   5.554  14.906  0.00  0.00    +0.000 A 
ATOM      8  C   UNL     1      47.297   4.331  15.572  0.00  0.00    +0.000 A 
ATOM      9  C   UNL     1      48.079   3.938  16.657  0.00  0.00    +0.000 A 
ATOM     10  C   UNL     1      49.116   4.764  17.082  0.00  0.00    +0.000 A 
ATOM     11  C   UNL     1      49.337   6.001  16.472  0.00  0.00    +0.000 A 
ATOM     12  C   UNL     1      48.536   6.390  15.392  0.00  0.00    +0.000 A 
BRANCH  10  13
ATOM     13  S   UNL     1      50.173   4.214  18.382  0.00  0.00    +0.000 S 
ATOM     14  O   UNL     1      51.527   4.641  18.107  0.00  0.00    +0.000 OA
ATOM     15  O   UNL     1      49.529   4.446  19.657  0.00  0.00    +0.000 OA
BRANCH  13  16
ATOM     16  N   UNL     1      50.147   2.555  18.139  0.00  0.00    +0.000 NA
ATOM     17  H   UNL     1      49.660   2.094  18.907  0.00  0.00    +0.000 HD
ATOM     18  H   UNL     1      49.777   2.341  17.215  0.00  0.00    +0.000 HD
ENDBRANCH  13  16
ENDBRANCH  10  13
ENDBRANCH   5   7
BRANCH   1  19
ATOM     19  C   UNL     1      43.284   5.053  12.244  0.00  0.00    +0.000 C 
BRANCH  19  20
ATOM     20  C   UNL     1      43.131   4.241  10.956  0.00  0.00    +0.000 C 
BRANCH  20  25
ATOM     21  C   UNL     1      46.466   2.710   7.507  0.00  0.00    +0.000 A 
ATOM     22  C   UNL     1      46.108   3.996   7.890  0.00  0.00    +0.000 A 
ATOM     23  C   UNL     1      45.294   4.164   9.007  0.00  0.00    +0.000 A 
ATOM     24  C   UNL     1      44.827   3.049   9.704  0.00  0.00    +0.000 A 
ATOM     25  N   UNL     1      44.082   3.147  10.874  0.00  0.00    +0.000 N 
ATOM     26  N   UNL     1      45.128   1.797   9.311  0.00  0.00    +0.000 NA
ATOM     27  C   UNL     1      45.935   1.651   8.226  0.00  0.00    +0.000 A 
ATOM     28  H   UNL     1      43.724   2.216  11.076  0.00  0.00    +0.000 HD
BRANCH  21  30
ATOM     29  N   UNL     1      47.285   3.254   5.288  0.00  0.00    +0.000 N 
ATOM     30  C   UNL     1      47.389   2.443   6.386  0.00  0.00    +0.000 C 
ATOM     31  O   UNL     1      48.238   1.567   6.453  0.00  0.00    +0.000 OA
ATOM     32  H   UNL     1      48.002   3.142   4.580  0.00  0.00    +0.000 HD
ATOM     33  H   UNL     1      46.783   4.130   5.305  0.00  0.00    +0.000 HD
ENDBRANCH  21  30
ENDBRANCH  20  25
ENDBRANCH  19  20
ENDBRANCH   1  19
TORSDOF 7
ENDMDL
MODEL 4
REMARK VINA RESULT:    -7.793      3.542      8.239
REMARK INTER + INTRA:         -11.683
REMARK INTER:                 -10.340
REMARK INTRA:                  -1.343
REMARK UNBOUND:                -0.928
REMARK  Name = 
REMARK  7 active torsions:
REMARK  status: ('A' for Active; 'I' for Inactive)
REMARK    1  A    between atoms: C_2  and  C_4
REMARK    2  A    between atoms: N_8  and  C_9
REMARK    3  A    between atoms: C_9  and  C_10
REMARK    4  A    between atoms: C_10  and  C_11
REMARK    5  A    between atoms: C_15  and  C_16
REMARK    6  A    between atoms: C_19  and  S_20
REMARK    7  A    between atoms: S_20  and  N_21
REMARK                            x       y       z     vdW  Elec       q    Type
REMARK                         _______ _______ _______ _____ _____    ______ ____
ROOT
ATOM      1  C   UNL     1      48.668   8.565  15.336  0.00  0.00    +0.000 A 
ATOM      2  C   UNL     1      49.978   8.576  14.837  0.00  0.00    +0.000 A 
ATOM      3  C   UNL     1      50.294   7.934  13.645  0.00  0.00    +0.000 A 
ATOM      4  C   UNL     1      49.306   7.254  12.941  0.00  0.00    +0.000 A 
ATOM      5  C   UNL     1      47.986   7.182  13.419  0.00  0.00    +0.000 A 
ATOM      6  C   UNL     1      47.681   7.879  14.605  0.00  0.00    +0.000 A 
ENDROOT
BRANCH   5   7
ATOM      7  C   UNL     1      46.989   6.318  12.753  0.00  0.00    +0.000 A 
ATOM      8  C   UNL     1      46.539   6.640  11.456  0.00  0.00    +0.000 A 
ATOM      9  C   UNL     1      45.670   5.806  10.756  0.00  0.00    +0.000 A 
ATOM     10  C   UNL     1      45.252   4.613  11.340  0.00  0.00    +0.000 A 
ATOM     11  C   UNL     1      45.646   4.280  12.638  0.00  0.00    +0.000 A 
ATOM     12  C   UNL     1      46.508   5.132  13.337  0.00  0.00    +0.000 A 
BRANCH  10  13
ATOM     13  S   UNL     1      44.242   3.508  10.407  0.00  0.00    +0.000 S 
ATOM     14  O   UNL     1      45.075   2.478   9.828  0.00  0.00    +0.000 OA
ATOM     15  O   UNL     1      43.041   3.207  11.154  0.00  0.00    +0.000 OA
BRANCH  13  16
ATOM     16  N   UNL     1      43.769   4.497   9.138  0.00  0.00    +0.000 NA
ATOM     17  H   UNL     1      44.023   4.072   8.247  0.00  0.00    +0.000 HD
ATOM     18  H   UNL     1      42.783   4.736   9.228  0.00  0.00    +0.000 HD
ENDBRANCH  13  16
ENDBRANCH  10  13
ENDBRANCH   5   7
BRANCH   1  19
ATOM     19  C   UNL     1      48.268   9.236  16.638  0.00  0.00    +0.000 C 
BRANCH  19  20
ATOM     20  C   UNL     1      48.730   8.491  17.891  0.00  0.00    +0.000 C 
BRANCH  20  25
ATOM     21  C   UNL     1      49.587   3.580  17.169  0.00  0.00    +0.000 A 
ATOM     22  C   UNL     1      50.453   4.583  17.584  0.00  0.00    +0.000 A 
ATOM     23  C   UNL     1      49.932   5.837  17.894  0.00  0.00    +0.000 A 
ATOM     24  C   UNL     1      48.565   6.078  17.757  0.00  0.00    +0.000 A 
ATOM     25  N   UNL     1      47.968   7.278  18.128  0.00  0.00    +0.000 N 
ATOM     26  N   UNL     1      47.725   5.127  17.308  0.00  0.00    +0.000 NA
ATOM     27  C   UNL     1      48.247   3.904  17.022  0.00  0.00    +0.000 A 
ATOM     28  H   UNL     1      47.017   7.260  17.766  0.00  0.00    +0.000 HD
BRANCH  21  30
ATOM     29  N   UNL     1      50.945   1.662  17.772  0.00  0.00    +0.000 N 
ATOM     30  C   UNL     1      50.040   2.202  16.898  0.00  0.00    +0.000 C 
ATOM     31  O   UNL     1      49.594   1.555  15.962  0.00  0.00    +0.000 OA
ATOM     32  H   UNL     1      51.153   0.678  17.648  0.00  0.00    +0.000 HD
ATOM     33  H   UNL     1      51.131   2.064  18.679  0.00  0.00    +0.000 HD
ENDBRANCH  21  30
ENDBRANCH  20  25
ENDBRANCH  19  20
ENDBRANCH   1  19
TORSDOF 7
ENDMDL
MODEL 5
REMARK VINA RESULT:    -7.677      3.333      8.589
REMARK INTER + INTRA:         -11.523
REMARK INTER:                 -10.888
REMARK INTRA:                  -0.635
REMARK UNBOUND:                -0.928
REMARK  Name = 
REMARK  7 active torsions:
REMARK  status: ('A' for Active; 'I' for Inactive)
REMARK    1  A    between atoms: C_2  and  C_4
REMARK    2  A    between atoms: N_8  and  C_9
REMARK    3  A    between atoms: C_9  and  C_10
REMARK    4  A    between atoms: C_10  and  C_11
REMARK    5  A    between atoms: C_15  and  C_16
REMARK    6  A    between atoms: C_19  and  S_20
REMARK    7  A    between atoms: S_20  and  N_21
REMARK                            x       y       z     vdW  Elec       q    Type
REMARK                         _______ _______ _______ _____ _____    ______ ____
ROOT
ATOM      1  C   UNL     1      44.770   6.555  12.461  0.00  0.00    +0.000 A 
ATOM      2  C   UNL     1      43.473   6.253  12.901  0.00  0.00    +0.000 A 
ATOM      3  C   UNL     1      42.760   5.194  12.350  0.00  0.00    +0.000 A 
ATOM      4  C   UNL     1      43.328   4.431  11.335  0.00  0.00    +0.000 A 
ATOM      5  C   UNL     1      44.609   4.718  10.834  0.00  0.00    +0.000 A 
ATOM      6  C   UNL     1      45.329   5.766  11.440  0.00  0.00    +0.000 A 
ENDROOT
BRANCH   5   7
ATOM      7  C   UNL     1      45.130   4.011   9.645  0.00  0.00    +0.000 A 
ATOM      8  C   UNL     1      45.786   4.737   8.630  0.00  0.00    +0.000 A 
ATOM      9  C   UNL     1      46.372   4.102   7.538  0.00  0.00    +0.000 A 
ATOM     10  C   UNL     1      46.330   2.713   7.456  0.00  0.00    +0.000 A 
ATOM     11  C   UNL     1      45.656   1.963   8.422  0.00  0.00    +0.000 A 
ATOM     12  C   UNL     1      45.059   2.613   9.507  0.00  0.00    +0.000 A 
BRANCH  10  13
ATOM     13  S   UNL     1      47.169   1.905   6.130  0.00  0.00    +0.000 S 
ATOM     14  O   UNL     1      47.154   0.478   6.357  0.00  0.00    +0.000 OA
ATOM     15  O   UNL     1      46.765   2.497   4.874  0.00  0.00    +0.000 OA
BRANCH  13  16
ATOM     16  N   UNL     1      48.748   2.405   6.397  0.00  0.00    +0.000 NA
ATOM     17  H   UNL     1      48.787   3.039   7.194  0.00  0.00    +0.000 HD
ATOM     18  H   UNL     1      49.365   1.597   6.467  0.00  0.00    +0.000 HD
ENDBRANCH  13  16
ENDBRANCH  10  13
ENDBRANCH   5   7
BRANCH   1  19
ATOM     19  C   UNL     1      45.588   7.707  13.016  0.00  0.00    +0.000 C 
BRANCH  19  20
ATOM     20  C   UNL     1      47.027   7.756  12.498  0.00  0.00    +0.000 C 
BRANCH  20  25
ATOM     21  C   UNL     1      47.801   4.110  15.885  0.00  0.00    +0.000 A 
ATOM     22  C   UNL     1      47.383   4.023  14.563  0.00  0.00    +0.000 A 
ATOM     23  C   UNL     1      47.426   5.165  13.768  0.00  0.00    +0.000 A 
ATOM     24  C   UNL     1      47.856   6.377  14.309  0.00  0.00    +0.000 A 
ATOM     25  N   UNL     1      48.002   7.534  13.551  0.00  0.00    +0.000 N 
ATOM     26  N   UNL     1      48.216   6.482  15.602  0.00  0.00    +0.000 NA
ATOM     27  C   UNL     1      48.180   5.354  16.362  0.00  0.00    +0.000 A 
ATOM     28  H   UNL     1      48.150   8.299  14.204  0.00  0.00    +0.000 HD
BRANCH  21  30
ATOM     29  N   UNL     1      46.875   2.809  17.712  0.00  0.00    +0.000 N 
ATOM     30  C   UNL     1      47.866   2.935  16.776  0.00  0.00    +0.000 C 
ATOM     31  O   UNL     1      48.739   2.088  16.655  0.00  0.00    +0.000 OA
ATOM     32  H   UNL     1      46.860   1.940  18.233  0.00  0.00    +0.000 HD
ATOM     33  H   UNL     1      46.016   3.338  17.670  0.00  0.00    +0.000 HD
ENDBRANCH  21  30
ENDBRANCH  20  25
ENDBRANCH  19  20
ENDBRANCH   1  19
TORSDOF 7
ENDMDL
MODEL 6
REMARK VINA RESULT:    -7.161      3.653      8.260
REMARK INTER + INTRA:         -10.810
REMARK INTER:                  -9.450
REMARK INTRA:                  -1.360
REMARK UNBOUND:                -0.928
REMARK  Name = 
REMARK  7 active torsions:
REMARK  status: ('A' for Active; 'I' for Inactive)
REMARK    1  A    between atoms: C_2  and  C_4
REMARK    2  A    between atoms: N_8  and  C_9
REMARK    3  A    between atoms: C_9  and  C_10
REMARK    4  A    between atoms: C_10  and  C_11
REMARK    5  A    between atoms: C_15  and  C_16
REMARK    6  A    between atoms: C_19  and  S_20
REMARK    7  A    between atoms: S_20  and  N_21
REMARK                            x       y       z     vdW  Elec       q    Type
REMARK                         _______ _______ _______ _____ _____    ______ ____
ROOT
ATOM      1  C   UNL     1      49.935   8.996  13.120  0.00  0.00    +0.000 A 
ATOM      2  C   UNL     1      49.562  10.213  12.532  0.00  0.00    +0.000 A 
ATOM      3  C   UNL     1      48.325  10.359  11.914  0.00  0.00    +0.000 A 
ATOM      4  C   UNL     1      47.447   9.282  11.859  0.00  0.00    +0.000 A 
ATOM      5  C   UNL     1      47.789   8.031  12.401  0.00  0.00    +0.000 A 
ATOM      6  C   UNL     1      49.029   7.921  13.061  0.00  0.00    +0.000 A 
ENDROOT
BRANCH   5   7
ATOM      7  C   UNL     1      46.922   6.853  12.187  0.00  0.00    +0.000 A 
ATOM      8  C   UNL     1      46.550   6.050  13.285  0.00  0.00    +0.000 A 
ATOM      9  C   UNL     1      45.662   4.985  13.145  0.00  0.00    +0.000 A 
ATOM     10  C   UNL     1      45.110   4.720  11.895  0.00  0.00    +0.000 A 
ATOM     11  C   UNL     1      45.484   5.470  10.778  0.00  0.00    +0.000 A 
ATOM     12  C   UNL     1      46.388   6.528  10.928  0.00  0.00    +0.000 A 
BRANCH  10  13
ATOM     13  S   UNL     1      43.901   3.444  11.744  0.00  0.00    +0.000 S 
ATOM     14  O   UNL     1      43.865   2.676  12.968  0.00  0.00    +0.000 OA
ATOM     15  O   UNL     1      42.708   3.982  11.129  0.00  0.00    +0.000 OA
BRANCH  13  16
ATOM     16  N   UNL     1      44.617   2.457  10.593  0.00  0.00    +0.000 NA
ATOM     17  H   UNL     1      44.489   1.476  10.840  0.00  0.00    +0.000 HD
ATOM     18  H   UNL     1      44.286   2.705   9.662  0.00  0.00    +0.000 HD
ENDBRANCH  13  16
ENDBRANCH  10  13
ENDBRANCH   5   7
BRANCH   1  19
ATOM     19  C   UNL     1      51.277   8.774  13.794  0.00  0.00    +0.000 C 
BRANCH  19  20
ATOM     20  C   UNL     1      51.179   8.433  15.282  0.00  0.00    +0.000 C 
BRANCH  20  25
ATOM     21  C   UNL     1      48.682   4.576  17.345  0.00  0.00    +0.000 A 
ATOM     22  C   UNL     1      48.225   5.588  16.510  0.00  0.00    +0.000 A 
ATOM     23  C   UNL     1      49.153   6.438  15.913  0.00  0.00    +0.000 A 
ATOM     24  C   UNL     1      50.513   6.284  16.181  0.00  0.00    +0.000 A 
ATOM     25  N   UNL     1      51.496   7.043  15.554  0.00  0.00    +0.000 N 
ATOM     26  N   UNL     1      50.961   5.339  17.027  0.00  0.00    +0.000 NA
ATOM     27  C   UNL     1      50.044   4.508  17.592  0.00  0.00    +0.000 A 
ATOM     28  H   UNL     1      52.368   6.863  16.048  0.00  0.00    +0.000 HD
BRANCH  21  30
ATOM     29  N   UNL     1      48.161   3.045  19.155  0.00  0.00    +0.000 N 
ATOM     30  C   UNL     1      47.778   3.581  17.955  0.00  0.00    +0.000 C 
ATOM     31  O   UNL     1      46.713   3.282  17.435  0.00  0.00    +0.000 OA
ATOM     32  H   UNL     1      47.478   2.460  19.622  0.00  0.00    +0.000 HD
ATOM     33  H   UNL     1      48.889   3.452  19.724  0.00  0.00    +0.000 HD
ENDBRANCH  21  30
ENDBRANCH  20  25
ENDBRANCH  19  20
ENDBRANCH   1  19
TORSDOF 7
ENDMDL
MODEL 7
REMARK VINA RESULT:    -6.856      4.651      8.781
REMARK INTER + INTRA:         -10.389
REMARK INTER:                  -9.426
REMARK INTRA:                  -0.963
REMARK UNBOUND:                -0.928
REMARK  Name = 
REMARK  7 active torsions:
REMARK  status: ('A' for Active; 'I' for Inactive)
REMARK    1  A    between atoms: C_2  and  C_4
REMARK    2  A    between atoms: N_8  and  C_9
REMARK    3  A    between atoms: C_9  and  C_10
REMARK    4  A    between atoms: C_10  and  C_11
REMARK    5  A    between atoms: C_15  and  C_16
REMARK    6  A    between atoms: C_19  and  S_20
REMARK    7  A    between atoms: S_20  and  N_21
REMARK                            x       y       z     vdW  Elec       q    Type
REMARK                         _______ _______ _______ _____ _____    ______ ____
ROOT
ATOM      1  C   UNL     1      44.533   6.675  12.402  0.00  0.00    +0.000 A 
ATOM      2  C   UNL     1      43.288   6.266  12.900  0.00  0.00    +0.000 A 
ATOM      3  C   UNL     1      42.666   5.121  12.415  0.00  0.00    +0.000 A 
ATOM      4  C   UNL     1      43.272   4.377  11.408  0.00  0.00    +0.000 A 
ATOM      5  C   UNL     1      44.501   4.767  10.850  0.00  0.00    +0.000 A 
ATOM      6  C   UNL     1      45.133   5.904  11.390  0.00  0.00    +0.000 A 
ENDROOT
BRANCH   5   7
ATOM      7  C   UNL     1      45.050   4.067   9.669  0.00  0.00    +0.000 A 
ATOM      8  C   UNL     1      45.802   4.785   8.717  0.00  0.00    +0.000 A 
ATOM      9  C   UNL     1      46.414   4.150   7.638  0.00  0.00    +0.000 A 
ATOM     10  C   UNL     1      46.299   2.768   7.508  0.00  0.00    +0.000 A 
ATOM     11  C   UNL     1      45.531   2.030   8.410  0.00  0.00    +0.000 A 
ATOM     12  C   UNL     1      44.909   2.680   9.481  0.00  0.00    +0.000 A 
BRANCH  10  13
ATOM     13  S   UNL     1      47.168   1.954   6.206  0.00  0.00    +0.000 S 
ATOM     14  O   UNL     1      47.168   0.530   6.452  0.00  0.00    +0.000 OA
ATOM     15  O   UNL     1      46.773   2.523   4.936  0.00  0.00    +0.000 OA
BRANCH  13  16
ATOM     16  N   UNL     1      48.736   2.479   6.486  0.00  0.00    +0.000 NA
ATOM     17  H   UNL     1      48.739   3.472   6.716  0.00  0.00    +0.000 HD
ATOM     18  H   UNL     1      49.187   1.882   7.177  0.00  0.00    +0.000 HD
ENDBRANCH  13  16
ENDBRANCH  10  13
ENDBRANCH   5   7
BRANCH   1  19
ATOM     19  C   UNL     1      45.252   7.923  12.883  0.00  0.00    +0.000 C 
BRANCH  19  20
ATOM     20  C   UNL     1      45.941   8.715  11.770  0.00  0.00    +0.000 C 
BRANCH  20  25
ATOM     21  C   UNL     1      50.771   8.518  13.184  0.00  0.00    +0.000 A 
ATOM     22  C   UNL     1      50.123   7.876  12.137  0.00  0.00    +0.000 A 
ATOM     23  C   UNL     1      48.814   8.240  11.831  0.00  0.00    +0.000 A 
ATOM     24  C   UNL     1      48.165   9.214  12.589  0.00  0.00    +0.000 A 
ATOM     25  N   UNL     1      46.891   9.684  12.286  0.00  0.00    +0.000 N 
ATOM     26  N   UNL     1      48.768   9.807  13.636  0.00  0.00    +0.000 NA
ATOM     27  C   UNL     1      50.050   9.450  13.914  0.00  0.00    +0.000 A 
ATOM     28  H   UNL     1      46.586  10.244  13.078  0.00  0.00    +0.000 HD
BRANCH  21  30
ATOM     29  N   UNL     1      53.057   8.102  12.484  0.00  0.00    +0.000 N 
ATOM     30  C   UNL     1      52.182   8.254  13.526  0.00  0.00    +0.000 C 
ATOM     31  O   UNL     1      52.562   8.217  14.687  0.00  0.00    +0.000 OA
ATOM     32  H   UNL     1      54.038   8.045  12.728  0.00  0.00    +0.000 HD
ATOM     33  H   UNL     1      52.830   8.378  11.539  0.00  0.00    +0.000 HD
ENDBRANCH  21  30
ENDBRANCH  20  25
ENDBRANCH  19  20
ENDBRANCH   1  19
TORSDOF 7
ENDMDL
MODEL 8
REMARK VINA RESULT:    -6.494      5.581      7.456
REMARK INTER + INTRA:          -9.890
REMARK INTER:                  -8.803
REMARK INTRA:                  -1.087
REMARK UNBOUND:                -0.928
REMARK  Name = 
REMARK  7 active torsions:
REMARK  status: ('A' for Active; 'I' for Inactive)
REMARK    1  A    between atoms: C_2  and  C_4
REMARK    2  A    between atoms: N_8  and  C_9
REMARK    3  A    between atoms: C_9  and  C_10
REMARK    4  A    between atoms: C_10  and  C_11
REMARK    5  A    between atoms: C_15  and  C_16
REMARK    6  A    between atoms: C_19  and  S_20
REMARK    7  A    between atoms: S_20  and  N_21
REMARK                            x       y       z     vdW  Elec       q    Type
REMARK                         _______ _______ _______ _____ _____    ______ ____
ROOT
ATOM      1  C   UNL     1      50.327   9.112  12.153  0.00  0.00    +0.000 A 
ATOM      2  C   UNL     1      50.988   9.015  13.386  0.00  0.00    +0.000 A 
ATOM      3  C   UNL     1      50.605   8.068  14.329  0.00  0.00    +0.000 A 
ATOM      4  C   UNL     1      49.540   7.214  14.061  0.00  0.00    +0.000 A 
ATOM      5  C   UNL     1      48.822   7.298  12.855  0.00  0.00    +0.000 A 
ATOM      6  C   UNL     1      49.259   8.234  11.897  0.00  0.00    +0.000 A 
ENDROOT
BRANCH   5   7
ATOM      7  C   UNL     1      47.592   6.504  12.654  0.00  0.00    +0.000 A 
ATOM      8  C   UNL     1      47.154   5.623  13.664  0.00  0.00    +0.000 A 
ATOM      9  C   UNL     1      45.953   4.924  13.556  0.00  0.00    +0.000 A 
ATOM     10  C   UNL     1      45.154   5.116  12.432  0.00  0.00    +0.000 A 
ATOM     11  C   UNL     1      45.574   5.950  11.393  0.00  0.00    +0.000 A 
ATOM     12  C   UNL     1      46.788   6.636  11.508  0.00  0.00    +0.000 A 
BRANCH  10  13
ATOM     13  S   UNL     1      43.584   4.316  12.350  0.00  0.00    +0.000 S 
ATOM     14  O   UNL     1      43.044   4.465  11.017  0.00  0.00    +0.000 OA
ATOM     15  O   UNL     1      43.661   3.035  13.018  0.00  0.00    +0.000 OA
BRANCH  13  16
ATOM     16  N   UNL     1      42.664   5.307  13.342  0.00  0.00    +0.000 NA
ATOM     17  H   UNL     1      42.262   6.071  12.801  0.00  0.00    +0.000 HD
ATOM     18  H   UNL     1      41.986   4.752  13.861  0.00  0.00    +0.000 HD
ENDBRANCH  13  16
ENDBRANCH  10  13
ENDBRANCH   5   7
BRANCH   1  19
ATOM     19  C   UNL     1      50.693  10.135  11.092  0.00  0.00    +0.000 C 
BRANCH  19  20
ATOM     20  C   UNL     1      52.158  10.083  10.654  0.00  0.00    +0.000 C 
BRANCH  20  25
ATOM     21  C   UNL     1      53.964   5.976   8.365  0.00  0.00    +0.000 A 
ATOM     22  C   UNL     1      53.226   6.091   9.536  0.00  0.00    +0.000 A 
ATOM     23  C   UNL     1      52.676   7.327   9.867  0.00  0.00    +0.000 A 
ATOM     24  C   UNL     1      52.895   8.431   9.043  0.00  0.00    +0.000 A 
ATOM     25  N   UNL     1      52.308   9.671   9.270  0.00  0.00    +0.000 N 
ATOM     26  N   UNL     1      53.650   8.341   7.932  0.00  0.00    +0.000 NA
ATOM     27  C   UNL     1      54.169   7.124   7.616  0.00  0.00    +0.000 A 
ATOM     28  H   UNL     1      52.762  10.333   8.644  0.00  0.00    +0.000 HD
BRANCH  21  30
ATOM     29  N   UNL     1      53.702   3.914   7.114  0.00  0.00    +0.000 N 
ATOM     30  C   UNL     1      54.514   4.689   7.896  0.00  0.00    +0.000 C 
ATOM     31  O   UNL     1      55.659   4.351   8.157  0.00  0.00    +0.000 OA
ATOM     32  H   UNL     1      54.130   3.096   6.697  0.00  0.00    +0.000 HD
ATOM     33  H   UNL     1      52.865   4.273   6.675  0.00  0.00    +0.000 HD
ENDBRANCH  21  30
ENDBRANCH  20  25
ENDBRANCH  19  20
ENDBRANCH   1  19
TORSDOF 7
ENDMDL
