MODEL 1
REMARK VINA RESULT:    -8.046      0.000      0.000
REMARK INTER + INTRA:         -10.394
REMARK INTER:                  -9.927
REMARK INTRA:                  -0.466
REMARK UNBOUND:                -0.466
REMARK  Name = 
REMARK  5 active torsions:
REMARK  status: ('A' for Active; 'I' for Inactive)
REMARK    1  A    between atoms: C_1  and  C_2
REMARK    2  A    between atoms: C_2  and  O_3
REMARK    3  A    between atoms: C_2  and  C_13
REMARK    4  A    between atoms: O_3  and  C_4
REMARK    5  A    between atoms: C_7  and  C_8
REMARK                            x       y       z     vdW  Elec       q    Type
REMARK                         _______ _______ _______ _____ _____    ______ ____
ROOT
ATOM      1  C   UNL     1      44.680   3.918   9.111  0.00  0.00    +0.000 A 
ATOM      2  C   UNL     1      44.691   2.543   9.336  0.00  0.00    +0.000 A 
ATOM      3  N   UNL     1      45.533   1.688   8.693  0.00  0.00    +0.000 NA
ATOM      4  C   UNL     1      46.367   2.288   7.796  0.00  0.00    +0.000 A 
ATOM      5  C   UNL     1      46.366   3.659   7.581  0.00  0.00    +0.000 A 
ATOM      6  N   UNL     1      45.525   4.507   8.237  0.00  0.00    +0.000 NA
ENDROOT
BRANCH   4   7
ATOM      7  C   UNL     1      47.299   1.423   7.024  0.00  0.00    +0.000 C 
ATOM      8  N   UNL     1      48.395   2.048   6.489  0.00  0.00    +0.000 N 
ATOM      9  O   UNL     1      47.109   0.222   6.877  0.00  0.00    +0.000 OA
ATOM     10  H   UNL     1      48.533   3.042   6.634  0.00  0.00    +0.000 HD
ATOM     11  H   UNL     1      49.069   1.510   5.964  0.00  0.00    +0.000 HD
ENDBRANCH   4   7
BRANCH   1  12
ATOM     12  O   UNL     1      43.750   4.663   9.802  0.00  0.00    +0.000 OA
BRANCH  12  14
ATOM     13  C   UNL     1      42.523   5.212  11.820  0.00  0.00    +0.000 C 
ATOM     14  C   UNL     1      43.706   4.447  11.220  0.00  0.00    +0.000 C 
BRANCH  14  15
ATOM     15  C   UNL     1      44.987   4.980  11.854  0.00  0.00    +0.000 A 
ATOM     16  C   UNL     1      45.658   4.200  12.812  0.00  0.00    +0.000 A 
ATOM     17  C   UNL     1      46.760   4.710  13.501  0.00  0.00    +0.000 A 
ATOM     18  C   UNL     1      47.203   6.002  13.235  0.00  0.00    +0.000 A 
ATOM     19 CL   UNL     1      48.528   6.649  14.121  0.00  0.00    +0.000 Cl
ATOM     20  C   UNL     1      46.566   6.782  12.273  0.00  0.00    +0.000 A 
ATOM     21  C   UNL     1      45.462   6.273  11.585  0.00  0.00    +0.000 A 
ENDBRANCH  14  15
ENDBRANCH  12  14
ENDBRANCH   1  12
TORSDOF 4
ENDMDL
MODEL 2
REMARK VINA RESULT:    -7.701      0.674      1.592
REMARK INTER + INTRA:          -9.968
REMARK INTER:                  -9.494
REMARK INTRA:                  -0.474
REMARK UNBOUND:                -0.466
REMARK  Name = 
REMARK  5 active torsions:
REMARK  status: ('A' for Active; 'I' for Inactive)
REMARK    1  A    between atoms: C_1  and  C_2
REMARK    2  A    between atoms: C_2  and  O_3
REMARK    3  A    between atoms: C_2  and  C_13
REMARK    4  A    between atoms: O_3  and  C_4
REMARK    5  A    between atoms: C_7  and  C_8
REMARK                            x       y       z     vdW  Elec       q    Type
REMARK                         _______ _______ _______ _____ _____    ______ ____
ROOT
ATOM      1  C   UNL     1      44.698   3.922   9.226  0.00  0.00    +0.000 A 
ATOM      2  C   UNL     1      45.530   4.556   8.305  0.00  0.00    +0.000 A 
ATOM      3  N   UNL     1      46.423   3.890   7.522  0.00  0.00    +0.000 NA
ATOM      4  C   UNL     1      46.444   2.541   7.717  0.00  0.00    +0.000 A 
ATOM      5  C   UNL     1      45.608   1.906   8.625  0.00  0.00    +0.000 A 
ATOM      6  N   UNL     1      44.712   2.581   9.397  0.00  0.00    +0.000 NA
ENDROOT
BRANCH   4   7
ATOM      7  C   UNL     1      47.415   1.738   6.924  0.00  0.00    +0.000 C 
ATOM      8  N   UNL     1      48.505   2.417   6.444  0.00  0.00    +0.000 N 
ATOM      9  O   UNL     1      47.259   0.541   6.714  0.00  0.00    +0.000 OA
ATOM     10  H   UNL     1      48.614   3.405   6.641  0.00  0.00    +0.000 HD
ATOM     11  H   UNL     1      49.204   1.923   5.909  0.00  0.00    +0.000 HD
ENDBRANCH   4   7
BRANCH   1  12
ATOM     12  O   UNL     1      43.868   4.719   9.982  0.00  0.00    +0.000 OA
BRANCH  12  14
ATOM     13  C   UNL     1      42.595   5.049  12.019  0.00  0.00    +0.000 C 
ATOM     14  C   UNL     1      43.855   4.449  11.391  0.00  0.00    +0.000 C 
BRANCH  14  15
ATOM     15  C   UNL     1      45.069   5.103  12.044  0.00  0.00    +0.000 A 
ATOM     16  C   UNL     1      45.543   6.329  11.545  0.00  0.00    +0.000 A 
ATOM     17  C   UNL     1      46.723   6.891  12.037  0.00  0.00    +0.000 A 
ATOM     18  C   UNL     1      47.436   6.233  13.035  0.00  0.00    +0.000 A 
ATOM     19 CL   UNL     1      48.918   6.898  13.605  0.00  0.00    +0.000 Cl
ATOM     20  C   UNL     1      46.971   5.029  13.558  0.00  0.00    +0.000 A 
ATOM     21  C   UNL     1      45.791   4.466  13.065  0.00  0.00    +0.000 A 
ENDBRANCH  14  15
ENDBRANCH  12  14
ENDBRANCH   1  12
TORSDOF 4
ENDMDL
MODEL 3
REMARK VINA RESULT:    -6.878      3.747      6.515
REMARK INTER + INTRA:          -8.952
REMARK INTER:                  -8.485
REMARK INTRA:                  -0.467
REMARK UNBOUND:                -0.466
REMARK  Name = 
REMARK  5 active torsions:
REMARK  status: ('A' for Active; 'I' for Inactive)
REMARK    1  A    between atoms: C_1  and  C_2
REMARK    2  A    between atoms: C_2  and  O_3
REMARK    3  A    between atoms: C_2  and  C_13
REMARK    4  A    between atoms: O_3  and  C_4
REMARK    5  A    between atoms: C_7  and  C_8
REMARK                            x       y       z     vdW  Elec       q    Type
REMARK                         _______ _______ _______ _____ _____    ______ ____
ROOT
ATOM      1  C   UNL     1      45.334   5.647  11.696  0.00  0.00    +0.000 A 
ATOM      2  C   UNL     1      44.204   6.390  11.360  0.00  0.00    +0.000 A 
ATOM      3  N   UNL     1      44.143   7.746  11.461  0.00  0.00    +0.000 NA
ATOM      4  C   UNL     1      45.285   8.326  11.929  0.00  0.00    +0.000 A 
ATOM      5  C   UNL     1      46.416   7.590  12.253  0.00  0.00    +0.000 A 
ATOM      6  N   UNL     1      46.469   6.233  12.139  0.00  0.00    +0.000 NA
ENDROOT
BRANCH   4   7
ATOM      7  C   UNL     1      45.294   9.804  12.102  0.00  0.00    +0.000 C 
ATOM      8  N   UNL     1      44.068  10.402  12.227  0.00  0.00    +0.000 N 
ATOM      9  O   UNL     1      46.333  10.453  12.137  0.00  0.00    +0.000 OA
ATOM     10  H   UNL     1      43.225   9.840  12.204  0.00  0.00    +0.000 HD
ATOM     11  H   UNL     1      44.011  11.402  12.358  0.00  0.00    +0.000 HD
ENDBRANCH   4   7
BRANCH   1  12
ATOM     12  O   UNL     1      45.247   4.278  11.582  0.00  0.00    +0.000 OA
BRANCH  12  14
ATOM     13  C   UNL     1      43.584   2.568  11.145  0.00  0.00    +0.000 C 
ATOM     14  C   UNL     1      44.325   3.790  10.597  0.00  0.00    +0.000 C 
BRANCH  14  15
ATOM     15  C   UNL     1      45.095   3.360   9.352  0.00  0.00    +0.000 A 
ATOM     16  C   UNL     1      45.371   1.996   9.149  0.00  0.00    +0.000 A 
ATOM     17  C   UNL     1      46.179   1.583   8.088  0.00  0.00    +0.000 A 
ATOM     18  C   UNL     1      46.714   2.528   7.218  0.00  0.00    +0.000 A 
ATOM     19 CL   UNL     1      47.752   2.024   5.942  0.00  0.00    +0.000 Cl
ATOM     20  C   UNL     1      46.433   3.882   7.389  0.00  0.00    +0.000 A 
ATOM     21  C   UNL     1      45.626   4.297   8.451  0.00  0.00    +0.000 A 
ENDBRANCH  14  15
ENDBRANCH  12  14
ENDBRANCH   1  12
TORSDOF 4
ENDMDL
MODEL 4
REMARK VINA RESULT:    -6.775      4.142      6.450
REMARK INTER + INTRA:          -8.826
REMARK INTER:                  -8.345
REMARK INTRA:                  -0.481
REMARK UNBOUND:                -0.466
REMARK  Name = 
REMARK  5 active torsions:
REMARK  status: ('A' for Active; 'I' for Inactive)
REMARK    1  A    between atoms: C_1  and  C_2
REMARK    2  A    between atoms: C_2  and  O_3
REMARK    3  A    between atoms: C_2  and  C_13
REMARK    4  A    between atoms: O_3  and  C_4
REMARK    5  A    between atoms: C_7  and  C_8
REMARK                            x       y       z     vdW  Elec       q    Type
REMARK                         _______ _______ _______ _____ _____    ______ ____
ROOT
ATOM      1  C   UNL     1      46.126   4.746  12.852  0.00  0.00    +0.000 A 
ATOM      2  C   UNL     1      46.752   4.270  14.002  0.00  0.00    +0.000 A 
ATOM      3  N   UNL     1      47.646   5.001  14.723  0.00  0.00    +0.000 NA
ATOM      4  C   UNL     1      47.889   6.245  14.221  0.00  0.00    +0.000 A 
ATOM      5  C   UNL     1      47.257   6.726  13.083  0.00  0.00    +0.000 A 
ATOM      6  N   UNL     1      46.356   5.989  12.375  0.00  0.00    +0.000 NA
ENDROOT
BRANCH   4   7
ATOM      7  C   UNL     1      48.879   7.101  14.930  0.00  0.00    +0.000 C 
ATOM      8  N   UNL     1      48.360   8.040  15.782  0.00  0.00    +0.000 N 
ATOM      9  O   UNL     1      50.087   6.976  14.770  0.00  0.00    +0.000 OA
ATOM     10  H   UNL     1      47.357   8.117  15.902  0.00  0.00    +0.000 HD
ATOM     11  H   UNL     1      48.983   8.643  16.300  0.00  0.00    +0.000 HD
ENDBRANCH   4   7
BRANCH   1  12
ATOM     12  O   UNL     1      45.271   3.888  12.197  0.00  0.00    +0.000 OA
BRANCH  12  14
ATOM     13  C   UNL     1      43.074   4.107  11.194  0.00  0.00    +0.000 C 
ATOM     14  C   UNL     1      44.563   4.443  11.079  0.00  0.00    +0.000 C 
BRANCH  14  15
ATOM     15  C   UNL     1      45.092   3.826   9.788  0.00  0.00    +0.000 A 
ATOM     16  C   UNL     1      45.071   2.429   9.632  0.00  0.00    +0.000 A 
ATOM     17  C   UNL     1      45.661   1.827   8.519  0.00  0.00    +0.000 A 
ATOM     18  C   UNL     1      46.271   2.617   7.549  0.00  0.00    +0.000 A 
ATOM     19 CL   UNL     1      47.043   1.873   6.204  0.00  0.00    +0.000 Cl
ATOM     20  C   UNL     1      46.280   4.004   7.673  0.00  0.00    +0.000 A 
ATOM     21  C   UNL     1      45.693   4.607   8.789  0.00  0.00    +0.000 A 
ENDBRANCH  14  15
ENDBRANCH  12  14
ENDBRANCH   1  12
TORSDOF 4
ENDMDL
MODEL 5
REMARK VINA RESULT:    -5.991      4.574      6.469
REMARK INTER + INTRA:          -7.858
REMARK INTER:                  -7.392
REMARK INTRA:                  -0.465
REMARK UNBOUND:                -0.466
REMARK  Name = 
REMARK  5 active torsions:
REMARK  status: ('A' for Active; 'I' for Inactive)
REMARK    1  A    between atoms: C_1  and  C_2
REMARK    2  A    between atoms: C_2  and  O_3
REMARK    3  A    between atoms: C_2  and  C_13
REMARK    4  A    between atoms: O_3  and  C_4
REMARK    5  A    between atoms: C_7  and  C_8
REMARK                            x       y       z     vdW  Elec       q    Type
REMARK                         _______ _______ _______ _____ _____    ______ ____
ROOT
ATOM      1  C   UNL     1      47.000   4.657  14.287  0.00  0.00    +0.000 A 
ATOM      2  C   UNL     1      46.740   3.376  13.805  0.00  0.00    +0.000 A 
ATOM      3  N   UNL     1      45.825   3.115  12.831  0.00  0.00    +0.000 NA
ATOM      4  C   UNL     1      45.171   4.217  12.365  0.00  0.00    +0.000 A 
ATOM      5  C   UNL     1      45.438   5.496  12.835  0.00  0.00    +0.000 A 
ATOM      6  N   UNL     1      46.362   5.746  13.803  0.00  0.00    +0.000 NA
ENDROOT
BRANCH   4   7
ATOM      7  C   UNL     1      44.130   4.019  11.320  0.00  0.00    +0.000 C 
ATOM      8  N   UNL     1      43.907   5.083  10.486  0.00  0.00    +0.000 N 
ATOM      9  O   UNL     1      43.509   2.970  11.204  0.00  0.00    +0.000 OA
ATOM     10  H   UNL     1      44.442   5.937  10.598  0.00  0.00    +0.000 HD
ATOM     11  H   UNL     1      43.220   5.005   9.750  0.00  0.00    +0.000 HD
ENDBRANCH   4   7
BRANCH   1  12
ATOM     12  O   UNL     1      47.924   4.775  15.301  0.00  0.00    +0.000 OA
BRANCH  12  14
ATOM     13  C   UNL     1      47.041   4.724  17.559  0.00  0.00    +0.000 C 
ATOM     14  C   UNL     1      47.713   3.926  16.439  0.00  0.00    +0.000 C 
BRANCH  14  15
ATOM     15  C   UNL     1      49.059   3.426  16.954  0.00  0.00    +0.000 A 
ATOM     16  C   UNL     1      49.939   4.330  17.576  0.00  0.00    +0.000 A 
ATOM     17  C   UNL     1      51.226   3.933  17.945  0.00  0.00    +0.000 A 
ATOM     18  C   UNL     1      51.643   2.628  17.699  0.00  0.00    +0.000 A 
ATOM     19 CL   UNL     1      53.245   2.153  18.106  0.00  0.00    +0.000 Cl
ATOM     20  C   UNL     1      50.778   1.711  17.106  0.00  0.00    +0.000 A 
ATOM     21  C   UNL     1      49.491   2.108  16.735  0.00  0.00    +0.000 A 
ENDBRANCH  14  15
ENDBRANCH  12  14
ENDBRANCH   1  12
TORSDOF 4
ENDMDL
MODEL 6
REMARK VINA RESULT:    -5.901      4.597      6.586
REMARK INTER + INTRA:          -7.747
REMARK INTER:                  -7.299
REMARK INTRA:                  -0.448
REMARK UNBOUND:                -0.466
REMARK  Name = 
REMARK  5 active torsions:
REMARK  status: ('A' for Active; 'I' for Inactive)
REMARK    1  A    between atoms: C_1  and  C_2
REMARK    2  A    between atoms: C_2  and  O_3
REMARK    3  A    between atoms: C_2  and  C_13
REMARK    4  A    between atoms: O_3  and  C_4
REMARK    5  A    between atoms: C_7  and  C_8
REMARK                            x       y       z     vdW  Elec       q    Type
REMARK                         _______ _______ _______ _____ _____    ______ ____
ROOT
ATOM      1  C   UNL     1      47.213   4.971  14.415  0.00  0.00    +0.000 A 
ATOM      2  C   UNL     1      47.286   6.023  13.503  0.00  0.00    +0.000 A 
ATOM      3  N   UNL     1      46.575   6.057  12.343  0.00  0.00    +0.000 NA
ATOM      4  C   UNL     1      45.784   4.966  12.137  0.00  0.00    +0.000 A 
ATOM      5  C   UNL     1      45.700   3.923  13.049  0.00  0.00    +0.000 A 
ATOM      6  N   UNL     1      46.410   3.904  14.212  0.00  0.00    +0.000 NA
ENDROOT
BRANCH   4   7
ATOM      7  C   UNL     1      44.996   4.905  10.876  0.00  0.00    +0.000 C 
ATOM      8  N   UNL     1      45.350   5.803   9.903  0.00  0.00    +0.000 N 
ATOM      9  O   UNL     1      44.087   4.101  10.708  0.00  0.00    +0.000 OA
ATOM     10  H   UNL     1      46.112   6.451  10.064  0.00  0.00    +0.000 HD
ATOM     11  H   UNL     1      44.859   5.802   9.020  0.00  0.00    +0.000 HD
ENDBRANCH   4   7
BRANCH   1  12
ATOM     12  O   UNL     1      48.016   5.047  15.531  0.00  0.00    +0.000 OA
BRANCH  12  14
ATOM     13  C   UNL     1      47.098   4.728  17.753  0.00  0.00    +0.000 C 
ATOM     14  C   UNL     1      47.766   4.064  16.547  0.00  0.00    +0.000 C 
BRANCH  14  15
ATOM     15  C   UNL     1      49.092   3.465  17.009  0.00  0.00    +0.000 A 
ATOM     16  C   UNL     1      50.037   4.290  17.643  0.00  0.00    +0.000 A 
ATOM     17  C   UNL     1      51.306   3.804  17.963  0.00  0.00    +0.000 A 
ATOM     18  C   UNL     1      51.639   2.488  17.658  0.00  0.00    +0.000 A 
ATOM     19 CL   UNL     1      53.219   1.903  18.005  0.00  0.00    +0.000 Cl
ATOM     20  C   UNL     1      50.707   1.648  17.051  0.00  0.00    +0.000 A 
ATOM     21  C   UNL     1      49.438   2.134  16.728  0.00  0.00    +0.000 A 
ENDBRANCH  14  15
ENDBRANCH  12  14
ENDBRANCH   1  12
TORSDOF 4
ENDMDL
MODEL 7
REMARK VINA RESULT:    -5.628      4.136      6.286
REMARK INTER + INTRA:          -7.410
REMARK INTER:                  -7.011
REMARK INTRA:                  -0.399
REMARK UNBOUND:                -0.466
REMARK  Name = 
REMARK  5 active torsions:
REMARK  status: ('A' for Active; 'I' for Inactive)
REMARK    1  A    between atoms: C_1  and  C_2
REMARK    2  A    between atoms: C_2  and  O_3
REMARK    3  A    between atoms: C_2  and  C_13
REMARK    4  A    between atoms: O_3  and  C_4
REMARK    5  A    between atoms: C_7  and  C_8
REMARK                            x       y       z     vdW  Elec       q    Type
REMARK                         _______ _______ _______ _____ _____    ______ ____
ROOT
ATOM      1  C   UNL     1      46.868   5.372  13.406  0.00  0.00    +0.000 A 
ATOM      2  C   UNL     1      46.712   6.239  12.326  0.00  0.00    +0.000 A 
ATOM      3  N   UNL     1      45.573   6.313  11.585  0.00  0.00    +0.000 NA
ATOM      4  C   UNL     1      44.588   5.458  11.982  0.00  0.00    +0.000 A 
ATOM      5  C   UNL     1      44.736   4.602  13.064  0.00  0.00    +0.000 A 
ATOM      6  N   UNL     1      45.878   4.543  13.805  0.00  0.00    +0.000 NA
ENDROOT
BRANCH   4   7
ATOM      7  C   UNL     1      43.318   5.450  11.206  0.00  0.00    +0.000 C 
ATOM      8  N   UNL     1      42.273   6.142  11.758  0.00  0.00    +0.000 N 
ATOM      9  O   UNL     1      43.208   4.866  10.134  0.00  0.00    +0.000 OA
ATOM     10  H   UNL     1      42.393   6.623  12.642  0.00  0.00    +0.000 HD
ATOM     11  H   UNL     1      41.388   6.181  11.272  0.00  0.00    +0.000 HD
ENDBRANCH   4   7
BRANCH   1  12
ATOM     12  O   UNL     1      48.087   5.372  14.045  0.00  0.00    +0.000 OA
BRANCH  12  14
ATOM     13  C   UNL     1      49.573   7.225  14.532  0.00  0.00    +0.000 C 
ATOM     14  C   UNL     1      48.316   6.459  14.953  0.00  0.00    +0.000 C 
BRANCH  14  15
ATOM     15  C   UNL     1      48.545   5.907  16.357  0.00  0.00    +0.000 A 
ATOM     16  C   UNL     1      47.981   4.668  16.711  0.00  0.00    +0.000 A 
ATOM     17  C   UNL     1      48.065   4.196  18.023  0.00  0.00    +0.000 A 
ATOM     18  C   UNL     1      48.718   4.955  18.989  0.00  0.00    +0.000 A 
ATOM     19 CL   UNL     1      48.777   4.397  20.616  0.00  0.00    +0.000 Cl
ATOM     20  C   UNL     1      49.304   6.173  18.652  0.00  0.00    +0.000 A 
ATOM     21  C   UNL     1      49.218   6.648  17.341  0.00  0.00    +0.000 A 
ENDBRANCH  14  15
ENDBRANCH  12  14
ENDBRANCH   1  12
TORSDOF 4
ENDMDL
MODEL 8
REMARK VINA RESULT:    -5.475      3.882      5.772
REMARK INTER + INTRA:          -7.221
REMARK INTER:                  -6.734
REMARK INTRA:                  -0.487
REMARK UNBOUND:                -0.466
REMARK  Name = 
REMARK  5 active torsions:
REMARK  status: ('A' for Active; 'I' for Inactive)
REMARK    1  A    between atoms: C_1  and  C_2
REMARK    2  A    between atoms: C_2  and  O_3
REMARK    3  A    between atoms: C_2  and  C_13
REMARK    4  A    between atoms: O_3  and  C_4
REMARK    5  A    between atoms: C_7  and  C_8
REMARK                            x       y       z     vdW  Elec       q    Type
REMARK                         _______ _______ _______ _____ _____    ______ ____
ROOT
ATOM      1  C   UNL     1      47.048   5.446  12.911  0.00  0.00    +0.000 A 
ATOM      2  C   UNL     1      46.381   4.437  13.603  0.00  0.00    +0.000 A 
ATOM      3  N   UNL     1      45.146   3.982  13.255  0.00  0.00    +0.000 NA
ATOM      4  C   UNL     1      44.604   4.604  12.170  0.00  0.00    +0.000 A 
ATOM      5  C   UNL     1      45.272   5.600  11.471  0.00  0.00    +0.000 A 
ATOM      6  N   UNL     1      46.512   6.041  11.823  0.00  0.00    +0.000 NA
ENDROOT
BRANCH   4   7
ATOM      7  C   UNL     1      43.241   4.191  11.739  0.00  0.00    +0.000 C 
ATOM      8  N   UNL     1      42.267   5.151  11.826  0.00  0.00    +0.000 N 
ATOM      9  O   UNL     1      42.997   3.064  11.326  0.00  0.00    +0.000 OA
ATOM     10  H   UNL     1      42.498   6.079  12.163  0.00  0.00    +0.000 HD
ATOM     11  H   UNL     1      41.324   4.934  11.538  0.00  0.00    +0.000 HD
ENDBRANCH   4   7
BRANCH   1  12
ATOM     12  O   UNL     1      48.277   5.837  13.393  0.00  0.00    +0.000 OA
BRANCH  12  14
ATOM     13  C   UNL     1      49.743   7.701  12.885  0.00  0.00    +0.000 C 
ATOM     14  C   UNL     1      48.455   7.248  13.579  0.00  0.00    +0.000 C 
BRANCH  14  15
ATOM     15  C   UNL     1      48.587   7.551  15.068  0.00  0.00    +0.000 A 
ATOM     16  C   UNL     1      48.866   6.503  15.963  0.00  0.00    +0.000 A 
ATOM     17  C   UNL     1      48.867   6.724  17.342  0.00  0.00    +0.000 A 
ATOM     18  C   UNL     1      48.595   7.995  17.837  0.00  0.00    +0.000 A 
ATOM     19 CL   UNL     1      48.546   8.257  19.537  0.00  0.00    +0.000 Cl
ATOM     20  C   UNL     1      48.340   9.052  16.966  0.00  0.00    +0.000 A 
ATOM     21  C   UNL     1      48.336   8.831  15.586  0.00  0.00    +0.000 A 
ENDBRANCH  14  15
ENDBRANCH  12  14
ENDBRANCH   1  12
TORSDOF 4
ENDMDL
MODEL 9
REMARK VINA RESULT:    -5.117      4.658      6.726
REMARK INTER + INTRA:          -6.780
REMARK INTER:                  -6.274
REMARK INTRA:                  -0.506
REMARK UNBOUND:                -0.466
REMARK  Name = 
REMARK  5 active torsions:
REMARK  status: ('A' for Active; 'I' for Inactive)
REMARK    1  A    between atoms: C_1  and  C_2
REMARK    2  A    between atoms: C_2  and  O_3
REMARK    3  A    between atoms: C_2  and  C_13
REMARK    4  A    between atoms: O_3  and  C_4
REMARK    5  A    between atoms: C_7  and  C_8
REMARK                            x       y       z     vdW  Elec       q    Type
REMARK                         _______ _______ _______ _____ _____    ______ ____
ROOT
ATOM      1  C   UNL     1      47.536   5.825  13.876  0.00  0.00    +0.000 A 
ATOM      2  C   UNL     1      47.187   4.551  14.321  0.00  0.00    +0.000 A 
ATOM      3  N   UNL     1      45.993   3.962  14.038  0.00  0.00    +0.000 NA
ATOM      4  C   UNL     1      45.153   4.727  13.284  0.00  0.00    +0.000 A 
ATOM      5  C   UNL     1      45.504   5.991  12.829  0.00  0.00    +0.000 A 
ATOM      6  N   UNL     1      46.706   6.567  13.110  0.00  0.00    +0.000 NA
ENDROOT
BRANCH   4   7
ATOM      7  C   UNL     1      43.812   4.172  12.955  0.00  0.00    +0.000 C 
ATOM      8  N   UNL     1      43.776   2.842  12.629  0.00  0.00    +0.000 N 
ATOM      9  O   UNL     1      42.796   4.856  12.977  0.00  0.00    +0.000 OA
ATOM     10  H   UNL     1      44.631   2.297  12.627  0.00  0.00    +0.000 HD
ATOM     11  H   UNL     1      42.893   2.406  12.407  0.00  0.00    +0.000 HD
ENDBRANCH   4   7
BRANCH   1  12
ATOM     12  O   UNL     1      48.761   6.317  14.267  0.00  0.00    +0.000 OA
BRANCH  12  14
ATOM     13  C   UNL     1      49.804   8.429  14.844  0.00  0.00    +0.000 C 
ATOM     14  C   UNL     1      48.728   7.402  15.205  0.00  0.00    +0.000 C 
BRANCH  14  15
ATOM     15  C   UNL     1      49.029   6.872  16.604  0.00  0.00    +0.000 A 
ATOM     16  C   UNL     1      49.903   5.780  16.755  0.00  0.00    +0.000 A 
ATOM     17  C   UNL     1      50.100   5.193  18.006  0.00  0.00    +0.000 A 
ATOM     18  C   UNL     1      49.430   5.694  19.117  0.00  0.00    +0.000 A 
ATOM     19 CL   UNL     1      49.632   4.938  20.649  0.00  0.00    +0.000 Cl
ATOM     20  C   UNL     1      48.578   6.790  18.993  0.00  0.00    +0.000 A 
ATOM     21  C   UNL     1      48.378   7.377  17.741  0.00  0.00    +0.000 A 
ENDBRANCH  14  15
ENDBRANCH  12  14
ENDBRANCH   1  12
TORSDOF 4
ENDMDL
