MODEL 1
REMARK VINA RESULT:    -8.386      0.000      0.000
REMARK INTER + INTRA:         -10.537
REMARK INTER:                  -9.857
REMARK INTRA:                  -0.680
REMARK UNBOUND:                -0.680
REMARK  Name = 
REMARK  4 active torsions:
REMARK  status: ('A' for Active; 'I' for Inactive)
REMARK    1  A    between atoms: C_1  and  C_2
REMARK    2  A    between atoms: N_6  and  C_7
REMARK    3  A    between atoms: C_7  and  C_8
REMARK    4  A    between atoms: C_12  and  C_13
REMARK                            x       y       z     vdW  Elec       q    Type
REMARK                         _______ _______ _______ _____ _____    ______ ____
ROOT
ATOM      1  C   UNL     1      44.932   4.166  11.514  0.00  0.00    +0.000 A 
ATOM      2  C   UNL     1      45.454   3.325  12.501  0.00  0.00    +0.000 A 
ATOM      3  C   UNL     1      46.449   3.790  13.358  0.00  0.00    +0.000 A 
ATOM      4  C   UNL     1      46.931   5.098  13.236  0.00  0.00    +0.000 A 
ATOM      5  C   UNL     1      46.434   5.975  12.256  0.00  0.00    +0.000 A 
ATOM      6  C   UNL     1      45.416   5.485  11.416  0.00  0.00    +0.000 A 
ENDROOT
BRANCH   5   7
ATOM      7  C   UNL     1      46.980   7.344  12.088  0.00  0.00    +0.000 A 
ATOM      8  C   UNL     1      48.347   7.570  11.836  0.00  0.00    +0.000 A 
ATOM      9  C   UNL     1      48.870   8.862  11.703  0.00  0.00    +0.000 A 
ATOM     10  C   UNL     1      48.027   9.964  11.807  0.00  0.00    +0.000 A 
ATOM     11  C   UNL     1      46.678   9.761  12.051  0.00  0.00    +0.000 A 
ATOM     12  F   UNL     1      45.861  10.819  12.156  0.00  0.00    +0.000 F 
ATOM     13  C   UNL     1      46.155   8.479  12.197  0.00  0.00    +0.000 A 
ENDBRANCH   5   7
BRANCH   1  14
ATOM     14  C   UNL     1      43.903   3.671  10.523  0.00  0.00    +0.000 C 
BRANCH  14  20
ATOM     15  C   UNL     1      47.648   2.507   5.593  0.00  0.00    +0.000 C 
ATOM     16  C   UNL     1      46.726   2.437   6.760  0.00  0.00    +0.000 A 
ATOM     17  C   UNL     1      46.758   1.437   7.704  0.00  0.00    +0.000 A 
ATOM     18  N   UNL     1      45.947   1.392   8.783  0.00  0.00    +0.000 NA
ATOM     19  C   UNL     1      45.055   2.384   8.914  0.00  0.00    +0.000 A 
ATOM     20  N   UNL     1      44.238   2.348  10.040  0.00  0.00    +0.000 N 
ATOM     21  N   UNL     1      44.938   3.395   8.041  0.00  0.00    +0.000 NA
ATOM     22  C   UNL     1      45.773   3.398   6.989  0.00  0.00    +0.000 A 
ATOM     23  H   UNL     1      44.689   1.736  10.713  0.00  0.00    +0.000 HD
ENDBRANCH  14  20
ENDBRANCH   1  14
TORSDOF 3
ENDMDL
MODEL 2
REMARK VINA RESULT:    -8.216      1.393      1.739
REMARK INTER + INTRA:         -10.336
REMARK INTER:                  -9.679
REMARK INTRA:                  -0.657
REMARK UNBOUND:                -0.680
REMARK  Name = 
REMARK  4 active torsions:
REMARK  status: ('A' for Active; 'I' for Inactive)
REMARK    1  A    between atoms: C_1  and  C_2
REMARK    2  A    between atoms: N_6  and  C_7
REMARK    3  A    between atoms: C_7  and  C_8
REMARK    4  A    between atoms: C_12  and  C_13
REMARK                            x       y       z     vdW  Elec       q    Type
REMARK                         _______ _______ _______ _____ _____    ______ ____
ROOT
ATOM      1  C   UNL     1      44.920   4.918  11.298  0.00  0.00    +0.000 A 
ATOM      2  C   UNL     1      45.156   4.017  12.340  0.00  0.00    +0.000 A 
ATOM      3  C   UNL     1      46.152   4.279  13.277  0.00  0.00    +0.000 A 
ATOM      4  C   UNL     1      46.920   5.445  13.182  0.00  0.00    +0.000 A 
ATOM      5  C   UNL     1      46.716   6.377  12.150  0.00  0.00    +0.000 A 
ATOM      6  C   UNL     1      45.690   6.095  11.228  0.00  0.00    +0.000 A 
ENDROOT
BRANCH   5   7
ATOM      7  C   UNL     1      47.563   7.587  12.014  0.00  0.00    +0.000 A 
ATOM      8  C   UNL     1      47.033   8.883  12.175  0.00  0.00    +0.000 A 
ATOM      9  C   UNL     1      47.824  10.028  12.020  0.00  0.00    +0.000 A 
ATOM     10  C   UNL     1      49.174   9.901  11.711  0.00  0.00    +0.000 A 
ATOM     11  C   UNL     1      49.714   8.634  11.552  0.00  0.00    +0.000 A 
ATOM     12  F   UNL     1      51.014   8.505  11.252  0.00  0.00    +0.000 F 
ATOM     13  C   UNL     1      48.929   7.492  11.692  0.00  0.00    +0.000 A 
ENDBRANCH   5   7
BRANCH   1  14
ATOM     14  C   UNL     1      43.895   4.629  10.225  0.00  0.00    +0.000 C 
BRANCH  14  20
ATOM     15  C   UNL     1      47.913   2.207   6.019  0.00  0.00    +0.000 C 
ATOM     16  C   UNL     1      46.834   2.458   7.016  0.00  0.00    +0.000 A 
ATOM     17  C   UNL     1      46.446   1.546   7.971  0.00  0.00    +0.000 A 
ATOM     18  N   UNL     1      45.494   1.786   8.899  0.00  0.00    +0.000 NA
ATOM     19  C   UNL     1      44.894   2.984   8.858  0.00  0.00    +0.000 A 
ATOM     20  N   UNL     1      43.932   3.236   9.831  0.00  0.00    +0.000 N 
ATOM     21  N   UNL     1      45.194   3.931   7.959  0.00  0.00    +0.000 NA
ATOM     22  C   UNL     1      46.153   3.648   7.062  0.00  0.00    +0.000 A 
ATOM     23  H   UNL     1      44.089   2.571  10.582  0.00  0.00    +0.000 HD
ENDBRANCH  14  20
ENDBRANCH   1  14
TORSDOF 3
ENDMDL
MODEL 3
REMARK VINA RESULT:    -8.122      4.197      7.640
REMARK INTER + INTRA:         -10.226
REMARK INTER:                  -9.724
REMARK INTRA:                  -0.502
REMARK UNBOUND:                -0.680
REMARK  Name = 
REMARK  4 active torsions:
REMARK  status: ('A' for Active; 'I' for Inactive)
REMARK    1  A    between atoms: C_1  and  C_2
REMARK    2  A    between atoms: N_6  and  C_7
REMARK    3  A    between atoms: C_7  and  C_8
REMARK    4  A    between atoms: C_12  and  C_13
REMARK                            x       y       z     vdW  Elec       q    Type
REMARK                         _______ _______ _______ _____ _____    ______ ____
ROOT
ATOM      1  C   UNL     1      45.092   5.043  12.638  0.00  0.00    +0.000 A 
ATOM      2  C   UNL     1      43.792   5.549  12.566  0.00  0.00    +0.000 A 
ATOM      3  C   UNL     1      43.041   5.382  11.405  0.00  0.00    +0.000 A 
ATOM      4  C   UNL     1      43.583   4.706  10.306  0.00  0.00    +0.000 A 
ATOM      5  C   UNL     1      44.887   4.182  10.336  0.00  0.00    +0.000 A 
ATOM      6  C   UNL     1      45.616   4.351  11.529  0.00  0.00    +0.000 A 
ENDROOT
BRANCH   5   7
ATOM      7  C   UNL     1      45.486   3.512   9.156  0.00  0.00    +0.000 A 
ATOM      8  C   UNL     1      45.896   4.240   8.022  0.00  0.00    +0.000 A 
ATOM      9  C   UNL     1      46.437   3.609   6.895  0.00  0.00    +0.000 A 
ATOM     10  C   UNL     1      46.592   2.226   6.883  0.00  0.00    +0.000 A 
ATOM     11  C   UNL     1      46.197   1.493   7.992  0.00  0.00    +0.000 A 
ATOM     12  F   UNL     1      46.340   0.161   7.986  0.00  0.00    +0.000 F 
ATOM     13  C   UNL     1      45.646   2.115   9.110  0.00  0.00    +0.000 A 
ENDBRANCH   5   7
BRANCH   1  14
ATOM     14  C   UNL     1      45.958   5.270  13.856  0.00  0.00    +0.000 C 
BRANCH  14  20
ATOM     15  C   UNL     1      49.587   4.736  18.979  0.00  0.00    +0.000 C 
ATOM     16  C   UNL     1      48.755   4.516  17.763  0.00  0.00    +0.000 A 
ATOM     17  C   UNL     1      47.895   3.454  17.603  0.00  0.00    +0.000 A 
ATOM     18  N   UNL     1      47.113   3.274  16.517  0.00  0.00    +0.000 NA
ATOM     19  C   UNL     1      47.208   4.188  15.542  0.00  0.00    +0.000 A 
ATOM     20  N   UNL     1      46.383   4.012  14.435  0.00  0.00    +0.000 N 
ATOM     21  N   UNL     1      48.025   5.249  15.599  0.00  0.00    +0.000 NA
ATOM     22  C   UNL     1      48.777   5.388  16.703  0.00  0.00    +0.000 A 
ATOM     23  H   UNL     1      45.636   3.385  14.719  0.00  0.00    +0.000 HD
ENDBRANCH  14  20
ENDBRANCH   1  14
TORSDOF 3
ENDMDL
MODEL 4
REMARK VINA RESULT:    -8.079      3.688      7.066
REMARK INTER + INTRA:         -10.176
REMARK INTER:                  -9.717
REMARK INTRA:                  -0.459
REMARK UNBOUND:                -0.680
REMARK  Name = 
REMARK  4 active torsions:
REMARK  status: ('A' for Active; 'I' for Inactive)
REMARK    1  A    between atoms: C_1  and  C_2
REMARK    2  A    between atoms: N_6  and  C_7
REMARK    3  A    between atoms: C_7  and  C_8
REMARK    4  A    between atoms: C_12  and  C_13
REMARK                            x       y       z     vdW  Elec       q    Type
REMARK                         _______ _______ _______ _____ _____    ______ ____
ROOT
ATOM      1  C   UNL     1      44.194   5.386  11.120  0.00  0.00    +0.000 A 
ATOM      2  C   UNL     1      43.330   4.573  11.860  0.00  0.00    +0.000 A 
ATOM      3  C   UNL     1      43.229   3.215  11.568  0.00  0.00    +0.000 A 
ATOM      4  C   UNL     1      43.990   2.657  10.535  0.00  0.00    +0.000 A 
ATOM      5  C   UNL     1      44.869   3.439   9.766  0.00  0.00    +0.000 A 
ATOM      6  C   UNL     1      44.964   4.804  10.095  0.00  0.00    +0.000 A 
ENDROOT
BRANCH   5   7
ATOM      7  C   UNL     1      45.637   2.864   8.635  0.00  0.00    +0.000 A 
ATOM      8  C   UNL     1      46.093   3.663   7.568  0.00  0.00    +0.000 A 
ATOM      9  C   UNL     1      46.796   3.119   6.486  0.00  0.00    +0.000 A 
ATOM     10  C   UNL     1      47.069   1.755   6.452  0.00  0.00    +0.000 A 
ATOM     11  C   UNL     1      46.631   0.953   7.495  0.00  0.00    +0.000 A 
ATOM     12  F   UNL     1      46.889  -0.362   7.468  0.00  0.00    +0.000 F 
ATOM     13  C   UNL     1      45.921   1.487   8.568  0.00  0.00    +0.000 A 
ENDBRANCH   5   7
BRANCH   1  14
ATOM     14  C   UNL     1      44.274   6.875  11.364  0.00  0.00    +0.000 C 
BRANCH  14  20
ATOM     15  C   UNL     1      50.100   8.979  12.515  0.00  0.00    +0.000 C 
ATOM     16  C   UNL     1      48.700   8.478  12.589  0.00  0.00    +0.000 A 
ATOM     17  C   UNL     1      47.786   8.893  13.530  0.00  0.00    +0.000 A 
ATOM     18  N   UNL     1      46.505   8.467  13.576  0.00  0.00    +0.000 NA
ATOM     19  C   UNL     1      46.128   7.576  12.649  0.00  0.00    +0.000 A 
ATOM     20  N   UNL     1      44.800   7.159  12.684  0.00  0.00    +0.000 N 
ATOM     21  N   UNL     1      46.947   7.103  11.700  0.00  0.00    +0.000 NA
ATOM     22  C   UNL     1      48.209   7.562  11.691  0.00  0.00    +0.000 A 
ATOM     23  H   UNL     1      44.287   7.850  13.221  0.00  0.00    +0.000 HD
ENDBRANCH  14  20
ENDBRANCH   1  14
TORSDOF 3
ENDMDL
MODEL 5
REMARK VINA RESULT:    -7.293      2.843      4.038
REMARK INTER + INTRA:          -9.251
REMARK INTER:                  -8.860
REMARK INTRA:                  -0.391
REMARK UNBOUND:                -0.680
REMARK  Name = 
REMARK  4 active torsions:
REMARK  status: ('A' for Active; 'I' for Inactive)
REMARK    1  A    between atoms: C_1  and  C_2
REMARK    2  A    between atoms: N_6  and  C_7
REMARK    3  A    between atoms: C_7  and  C_8
REMARK    4  A    between atoms: C_12  and  C_13
REMARK                            x       y       z     vdW  Elec       q    Type
REMARK                         _______ _______ _______ _____ _____    ______ ____
ROOT
ATOM      1  C   UNL     1      45.014   5.161  11.814  0.00  0.00    +0.000 A 
ATOM      2  C   UNL     1      45.593   6.157  11.024  0.00  0.00    +0.000 A 
ATOM      3  C   UNL     1      46.749   6.805  11.454  0.00  0.00    +0.000 A 
ATOM      4  C   UNL     1      47.335   6.462  12.678  0.00  0.00    +0.000 A 
ATOM      5  C   UNL     1      46.784   5.467  13.503  0.00  0.00    +0.000 A 
ATOM      6  C   UNL     1      45.626   4.817  13.034  0.00  0.00    +0.000 A 
ENDROOT
BRANCH   5   7
ATOM      7  C   UNL     1      47.370   5.138  14.825  0.00  0.00    +0.000 A 
ATOM      8  C   UNL     1      48.271   6.006  15.472  0.00  0.00    +0.000 A 
ATOM      9  C   UNL     1      48.847   5.686  16.708  0.00  0.00    +0.000 A 
ATOM     10  C   UNL     1      48.521   4.487  17.334  0.00  0.00    +0.000 A 
ATOM     11  C   UNL     1      47.634   3.621  16.714  0.00  0.00    +0.000 A 
ATOM     12  F   UNL     1      47.318   2.463  17.311  0.00  0.00    +0.000 F 
ATOM     13  C   UNL     1      47.068   3.929  15.479  0.00  0.00    +0.000 A 
ENDBRANCH   5   7
BRANCH   1  14
ATOM     14  C   UNL     1      43.722   4.489  11.409  0.00  0.00    +0.000 C 
BRANCH  14  20
ATOM     15  C   UNL     1      46.677   2.787   6.112  0.00  0.00    +0.000 C 
ATOM     16  C   UNL     1      45.934   2.847   7.402  0.00  0.00    +0.000 A 
ATOM     17  C   UNL     1      46.081   1.928   8.415  0.00  0.00    +0.000 A 
ATOM     18  N   UNL     1      45.436   2.003   9.600  0.00  0.00    +0.000 NA
ATOM     19  C   UNL     1      44.596   3.032   9.770  0.00  0.00    +0.000 A 
ATOM     20  N   UNL     1      43.952   3.119  11.001  0.00  0.00    +0.000 N 
ATOM     21  N   UNL     1      44.376   3.970   8.838  0.00  0.00    +0.000 NA
ATOM     22  C   UNL     1      45.047   3.857   7.680  0.00  0.00    +0.000 A 
ATOM     23  H   UNL     1      44.482   2.550  11.653  0.00  0.00    +0.000 HD
ENDBRANCH  14  20
ENDBRANCH   1  14
TORSDOF 3
ENDMDL
MODEL 6
REMARK VINA RESULT:    -6.962      3.893      7.238
REMARK INTER + INTRA:          -8.863
REMARK INTER:                  -8.303
REMARK INTRA:                  -0.561
REMARK UNBOUND:                -0.680
REMARK  Name = 
REMARK  4 active torsions:
REMARK  status: ('A' for Active; 'I' for Inactive)
REMARK    1  A    between atoms: C_1  and  C_2
REMARK    2  A    between atoms: N_6  and  C_7
REMARK    3  A    between atoms: C_7  and  C_8
REMARK    4  A    between atoms: C_12  and  C_13
REMARK                            x       y       z     vdW  Elec       q    Type
REMARK                         _______ _______ _______ _____ _____    ______ ____
ROOT
ATOM      1  C   UNL     1      45.026   5.253  12.563  0.00  0.00    +0.000 A 
ATOM      2  C   UNL     1      43.635   5.358  12.648  0.00  0.00    +0.000 A 
ATOM      3  C   UNL     1      42.834   4.837  11.635  0.00  0.00    +0.000 A 
ATOM      4  C   UNL     1      43.415   4.206  10.530  0.00  0.00    +0.000 A 
ATOM      5  C   UNL     1      44.809   4.080  10.406  0.00  0.00    +0.000 A 
ATOM      6  C   UNL     1      45.593   4.600  11.453  0.00  0.00    +0.000 A 
ENDROOT
BRANCH   5   7
ATOM      7  C   UNL     1      45.433   3.460   9.211  0.00  0.00    +0.000 A 
ATOM      8  C   UNL     1      45.872   4.235   8.120  0.00  0.00    +0.000 A 
ATOM      9  C   UNL     1      46.437   3.651   6.979  0.00  0.00    +0.000 A 
ATOM     10  C   UNL     1      46.587   2.270   6.910  0.00  0.00    +0.000 A 
ATOM     11  C   UNL     1      46.163   1.491   7.976  0.00  0.00    +0.000 A 
ATOM     12  F   UNL     1      46.302   0.159   7.914  0.00  0.00    +0.000 F 
ATOM     13  C   UNL     1      45.589   2.066   9.107  0.00  0.00    +0.000 A 
ENDBRANCH   5   7
BRANCH   1  14
ATOM     14  C   UNL     1      45.926   5.870  13.610  0.00  0.00    +0.000 C 
BRANCH  14  20
ATOM     15  C   UNL     1      51.676   8.434  13.841  0.00  0.00    +0.000 C 
ATOM     16  C   UNL     1      50.219   8.152  13.708  0.00  0.00    +0.000 A 
ATOM     17  C   UNL     1      49.405   8.749  12.773  0.00  0.00    +0.000 A 
ATOM     18  N   UNL     1      48.092   8.466  12.627  0.00  0.00    +0.000 NA
ATOM     19  C   UNL     1      47.570   7.559  13.463  0.00  0.00    +0.000 A 
ATOM     20  N   UNL     1      46.223   7.252  13.292  0.00  0.00    +0.000 N 
ATOM     21  N   UNL     1      48.278   6.933  14.414  0.00  0.00    +0.000 NA
ATOM     22  C   UNL     1      49.581   7.242  14.514  0.00  0.00    +0.000 A 
ATOM     23  H   UNL     1      45.967   7.552  12.357  0.00  0.00    +0.000 HD
ENDBRANCH  14  20
ENDBRANCH   1  14
TORSDOF 3
ENDMDL
MODEL 7
REMARK VINA RESULT:    -6.910      4.304      7.629
REMARK INTER + INTRA:          -8.801
REMARK INTER:                  -8.279
REMARK INTRA:                  -0.523
REMARK UNBOUND:                -0.680
REMARK  Name = 
REMARK  4 active torsions:
REMARK  status: ('A' for Active; 'I' for Inactive)
REMARK    1  A    between atoms: C_1  and  C_2
REMARK    2  A    between atoms: N_6  and  C_7
REMARK    3  A    between atoms: C_7  and  C_8
REMARK    4  A    between atoms: C_12  and  C_13
REMARK                            x       y       z     vdW  Elec       q    Type
REMARK                         _______ _______ _______ _____ _____    ______ ____
ROOT
ATOM      1  C   UNL     1      47.184   7.119  12.899  0.00  0.00    +0.000 A 
ATOM      2  C   UNL     1      46.409   8.282  12.894  0.00  0.00    +0.000 A 
ATOM      3  C   UNL     1      45.256   8.348  12.117  0.00  0.00    +0.000 A 
ATOM      4  C   UNL     1      44.866   7.253  11.337  0.00  0.00    +0.000 A 
ATOM      5  C   UNL     1      45.618   6.065  11.313  0.00  0.00    +0.000 A 
ATOM      6  C   UNL     1      46.769   6.021  12.122  0.00  0.00    +0.000 A 
ENDROOT
BRANCH   5   7
ATOM      7  C   UNL     1      45.240   4.922  10.447  0.00  0.00    +0.000 A 
ATOM      8  C   UNL     1      44.497   3.832  10.944  0.00  0.00    +0.000 A 
ATOM      9  C   UNL     1      44.162   2.738  10.137  0.00  0.00    +0.000 A 
ATOM     10  C   UNL     1      44.554   2.716   8.802  0.00  0.00    +0.000 A 
ATOM     11  C   UNL     1      45.282   3.781   8.295  0.00  0.00    +0.000 A 
ATOM     12  F   UNL     1      45.666   3.764   7.011  0.00  0.00    +0.000 F 
ATOM     13  C   UNL     1      45.630   4.865   9.097  0.00  0.00    +0.000 A 
ENDBRANCH   5   7
BRANCH   1  14
ATOM     14  C   UNL     1      48.478   7.040  13.675  0.00  0.00    +0.000 C 
BRANCH  14  20
ATOM     15  C   UNL     1      48.542   3.052  18.553  0.00  0.00    +0.000 C 
ATOM     16  C   UNL     1      48.447   4.229  17.644  0.00  0.00    +0.000 A 
ATOM     17  C   UNL     1      48.863   5.496  17.983  0.00  0.00    +0.000 A 
ATOM     18  N   UNL     1      48.812   6.555  17.147  0.00  0.00    +0.000 NA
ATOM     19  C   UNL     1      48.309   6.340  15.924  0.00  0.00    +0.000 A 
ATOM     20  N   UNL     1      48.282   7.428  15.057  0.00  0.00    +0.000 N 
ATOM     21  N   UNL     1      47.867   5.145  15.505  0.00  0.00    +0.000 NA
ATOM     22  C   UNL     1      47.946   4.122  16.370  0.00  0.00    +0.000 A 
ATOM     23  H   UNL     1      48.939   8.112  15.419  0.00  0.00    +0.000 HD
ENDBRANCH  14  20
ENDBRANCH   1  14
TORSDOF 3
ENDMDL
MODEL 8
REMARK VINA RESULT:    -6.797      4.342      7.758
REMARK INTER + INTRA:          -8.669
REMARK INTER:                  -8.023
REMARK INTRA:                  -0.647
REMARK UNBOUND:                -0.680
REMARK  Name = 
REMARK  4 active torsions:
REMARK  status: ('A' for Active; 'I' for Inactive)
REMARK    1  A    between atoms: C_1  and  C_2
REMARK    2  A    between atoms: N_6  and  C_7
REMARK    3  A    between atoms: C_7  and  C_8
REMARK    4  A    between atoms: C_12  and  C_13
REMARK                            x       y       z     vdW  Elec       q    Type
REMARK                         _______ _______ _______ _____ _____    ______ ____
ROOT
ATOM      1  C   UNL     1      47.442   7.832  12.176  0.00  0.00    +0.000 A 
ATOM      2  C   UNL     1      46.478   8.796  12.485  0.00  0.00    +0.000 A 
ATOM      3  C   UNL     1      45.144   8.582  12.147  0.00  0.00    +0.000 A 
ATOM      4  C   UNL     1      44.762   7.403  11.498  0.00  0.00    +0.000 A 
ATOM      5  C   UNL     1      45.699   6.409  11.169  0.00  0.00    +0.000 A 
ATOM      6  C   UNL     1      47.037   6.644  11.539  0.00  0.00    +0.000 A 
ENDROOT
BRANCH   5   7
ATOM      7  C   UNL     1      45.308   5.182  10.433  0.00  0.00    +0.000 A 
ATOM      8  C   UNL     1      44.598   4.138  11.059  0.00  0.00    +0.000 A 
ATOM      9  C   UNL     1      44.251   2.967  10.375  0.00  0.00    +0.000 A 
ATOM     10  C   UNL     1      44.598   2.818   9.036  0.00  0.00    +0.000 A 
ATOM     11  C   UNL     1      45.293   3.836   8.402  0.00  0.00    +0.000 A 
ATOM     12  F   UNL     1      45.633   3.698   7.112  0.00  0.00    +0.000 F 
ATOM     13  C   UNL     1      45.652   4.998   9.081  0.00  0.00    +0.000 A 
ENDBRANCH   5   7
BRANCH   1  14
ATOM     14  C   UNL     1      48.907   8.065  12.466  0.00  0.00    +0.000 C 
BRANCH  14  20
ATOM     15  C   UNL     1      48.365   7.532  18.720  0.00  0.00    +0.000 C 
ATOM     16  C   UNL     1      48.688   7.373  17.275  0.00  0.00    +0.000 A 
ATOM     17  C   UNL     1      48.789   6.156  16.641  0.00  0.00    +0.000 A 
ATOM     18  N   UNL     1      49.045   6.011  15.323  0.00  0.00    +0.000 NA
ATOM     19  C   UNL     1      49.224   7.133  14.612  0.00  0.00    +0.000 A 
ATOM     20  N   UNL     1      49.462   6.980  13.250  0.00  0.00    +0.000 N 
ATOM     21  N   UNL     1      49.158   8.363  15.141  0.00  0.00    +0.000 NA
ATOM     22  C   UNL     1      48.893   8.455  16.455  0.00  0.00    +0.000 A 
ATOM     23  H   UNL     1      49.147   6.050  12.996  0.00  0.00    +0.000 HD
ENDBRANCH  14  20
ENDBRANCH   1  14
TORSDOF 3
ENDMDL
MODEL 9
REMARK VINA RESULT:    -6.693      4.389      7.625
REMARK INTER + INTRA:          -8.546
REMARK INTER:                  -8.034
REMARK INTRA:                  -0.512
REMARK UNBOUND:                -0.680
REMARK  Name = 
REMARK  4 active torsions:
REMARK  status: ('A' for Active; 'I' for Inactive)
REMARK    1  A    between atoms: C_1  and  C_2
REMARK    2  A    between atoms: N_6  and  C_7
REMARK    3  A    between atoms: C_7  and  C_8
REMARK    4  A    between atoms: C_12  and  C_13
REMARK                            x       y       z     vdW  Elec       q    Type
REMARK                         _______ _______ _______ _____ _____    ______ ____
ROOT
ATOM      1  C   UNL     1      47.293   7.250  13.056  0.00  0.00    +0.000 A 
ATOM      2  C   UNL     1      46.534   8.424  13.057  0.00  0.00    +0.000 A 
ATOM      3  C   UNL     1      45.390   8.515  12.269  0.00  0.00    +0.000 A 
ATOM      4  C   UNL     1      44.993   7.434  11.474  0.00  0.00    +0.000 A 
ATOM      5  C   UNL     1      45.728   6.236  11.443  0.00  0.00    +0.000 A 
ATOM      6  C   UNL     1      46.870   6.166  12.263  0.00  0.00    +0.000 A 
ENDROOT
BRANCH   5   7
ATOM      7  C   UNL     1      45.343   5.108  10.561  0.00  0.00    +0.000 A 
ATOM      8  C   UNL     1      45.684   5.088   9.194  0.00  0.00    +0.000 A 
ATOM      9  C   UNL     1      45.299   4.036   8.353  0.00  0.00    +0.000 A 
ATOM     10  C   UNL     1      44.569   2.969   8.867  0.00  0.00    +0.000 A 
ATOM     11  C   UNL     1      44.228   2.970  10.210  0.00  0.00    +0.000 A 
ATOM     12  F   UNL     1      43.523   1.946  10.711  0.00  0.00    +0.000 F 
ATOM     13  C   UNL     1      44.597   4.019  11.049  0.00  0.00    +0.000 A 
ENDBRANCH   5   7
BRANCH   1  14
ATOM     14  C   UNL     1      48.579   7.144  13.844  0.00  0.00    +0.000 C 
BRANCH  14  20
ATOM     15  C   UNL     1      48.479   2.906  18.505  0.00  0.00    +0.000 C 
ATOM     16  C   UNL     1      48.422   4.130  17.658  0.00  0.00    +0.000 A 
ATOM     17  C   UNL     1      48.852   5.369  18.071  0.00  0.00    +0.000 A 
ATOM     18  N   UNL     1      48.835   6.472  17.291  0.00  0.00    +0.000 NA
ATOM     19  C   UNL     1      48.353   6.330  16.049  0.00  0.00    +0.000 A 
ATOM     20  N   UNL     1      48.361   7.463  15.241  0.00  0.00    +0.000 N 
ATOM     21  N   UNL     1      47.900   5.167  15.560  0.00  0.00    +0.000 NA
ATOM     22  C   UNL     1      47.944   4.099  16.371  0.00  0.00    +0.000 A 
ATOM     23  H   UNL     1      49.023   8.114  15.650  0.00  0.00    +0.000 HD
ENDBRANCH  14  20
ENDBRANCH   1  14
TORSDOF 3
ENDMDL
