MODEL 1
REMARK VINA RESULT:    -8.034      0.000      0.000
REMARK INTER + INTRA:         -12.067
REMARK INTER:                 -10.853
REMARK INTRA:                  -1.214
REMARK UNBOUND:                -1.214
REMARK  Name = 
REMARK  6 active torsions:
REMARK  status: ('A' for Active; 'I' for Inactive)
REMARK    1  A    between atoms: C_2  and  C_3
REMARK    2  A    between atoms: C_6  and  N_7
REMARK    3  A    between atoms: N_7  and  C_8
REMARK    4  A    between atoms: C_8  and  C_9
REMARK    5  A    between atoms: C_12  and  O_13
REMARK    6  A    between atoms: O_13  and  C_14
REMARK                            x       y       z     vdW  Elec       q    Type
REMARK                         _______ _______ _______ _____ _____    ______ ____
ROOT
ATOM      1  C   UNL     1      43.896   4.909  11.432  0.00  0.00    +0.000 C 
ATOM      2  C   UNL     1      43.071   3.968  12.297  0.00  0.00    +0.000 C 
ATOM      3  C   UNL     1      42.613   5.375  12.114  0.00  0.00    +0.000 C 
ENDROOT
BRANCH   1   4
ATOM      4  C   UNL     1      45.207   5.433  12.020  0.00  0.00    +0.000 A 
ATOM      5  C   UNL     1      45.896   4.736  13.025  0.00  0.00    +0.000 A 
ATOM      6  C   UNL     1      47.194   5.099  13.404  0.00  0.00    +0.000 A 
ATOM      7  C   UNL     1      47.839   6.155  12.766  0.00  0.00    +0.000 A 
ATOM      8  C   UNL     1      47.123   6.946  11.874  0.00  0.00    +0.000 A 
ATOM      9  C   UNL     1      45.826   6.589  11.511  0.00  0.00    +0.000 A 
BRANCH   7  10
ATOM     10  O   UNL     1      49.131   6.528  12.973  0.00  0.00    +0.000 OA
BRANCH  10  11
ATOM     11  C   UNL     1      49.397   7.442  14.032  0.00  0.00    +0.000 C 
ATOM     12  F   UNL     1      48.319   7.779  14.771  0.00  0.00    +0.000 F 
ATOM     13  F   UNL     1      50.312   6.892  14.864  0.00  0.00    +0.000 F 
ATOM     14  F   UNL     1      49.928   8.568  13.509  0.00  0.00    +0.000 F 
ENDBRANCH  10  11
ENDBRANCH   7  10
ENDBRANCH   1   4
BRANCH   1  15
ATOM     15  N   UNL     1      43.851   4.814   9.962  0.00  0.00    +0.000 N 
ATOM     16  H   UNL     1      42.933   4.758   9.526  0.00  0.00    +0.000 HD
BRANCH  15  20
ATOM     17  C   UNL     1      46.668   2.777   7.547  0.00  0.00    +0.000 A 
ATOM     18  C   UNL     1      46.651   4.177   7.566  0.00  0.00    +0.000 A 
ATOM     19  C   UNL     1      45.740   4.858   8.376  0.00  0.00    +0.000 A 
ATOM     20  C   UNL     1      44.839   4.166   9.191  0.00  0.00    +0.000 A 
ATOM     21  C   UNL     1      44.875   2.763   9.150  0.00  0.00    +0.000 A 
ATOM     22  F   UNL     1      44.022   2.060   9.915  0.00  0.00    +0.000 F 
ATOM     23  C   UNL     1      45.778   2.068   8.348  0.00  0.00    +0.000 A 
BRANCH  17  25
ATOM     24  N   UNL     1      48.355   1.530   6.030  0.00  0.00    +0.000 NA
ATOM     25  C   UNL     1      47.597   2.088   6.705  0.00  0.00    +0.000 C 
ENDBRANCH  17  25
ENDBRANCH  15  20
ENDBRANCH   1  15
TORSDOF 6
ENDMDL
MODEL 2
REMARK VINA RESULT:    -7.603      1.965      2.513
REMARK INTER + INTRA:         -11.484
REMARK INTER:                 -10.722
REMARK INTRA:                  -0.762
REMARK UNBOUND:                -1.214
REMARK  Name = 
REMARK  6 active torsions:
REMARK  status: ('A' for Active; 'I' for Inactive)
REMARK    1  A    between atoms: C_2  and  C_3
REMARK    2  A    between atoms: C_6  and  N_7
REMARK    3  A    between atoms: N_7  and  C_8
REMARK    4  A    between atoms: C_8  and  C_9
REMARK    5  A    between atoms: C_12  and  O_13
REMARK    6  A    between atoms: O_13  and  C_14
REMARK                            x       y       z     vdW  Elec       q    Type
REMARK                         _______ _______ _______ _____ _____    ______ ____
ROOT
ATOM      1  C   UNL     1      43.896   5.110  11.097  0.00  0.00    +0.000 C 
ATOM      2  C   UNL     1      42.727   5.730  11.848  0.00  0.00    +0.000 C 
ATOM      3  C   UNL     1      43.638   6.614  11.065  0.00  0.00    +0.000 C 
ENDROOT
BRANCH   1   4
ATOM      4  C   UNL     1      45.093   4.645  11.927  0.00  0.00    +0.000 A 
ATOM      5  C   UNL     1      46.062   5.546  12.396  0.00  0.00    +0.000 A 
ATOM      6  C   UNL     1      47.028   5.156  13.331  0.00  0.00    +0.000 A 
ATOM      7  C   UNL     1      47.029   3.857  13.835  0.00  0.00    +0.000 A 
ATOM      8  C   UNL     1      46.174   2.914  13.277  0.00  0.00    +0.000 A 
ATOM      9  C   UNL     1      45.223   3.305  12.335  0.00  0.00    +0.000 A 
BRANCH   7  10
ATOM     10  O   UNL     1      47.846   3.397  14.820  0.00  0.00    +0.000 OA
BRANCH  10  11
ATOM     11  C   UNL     1      47.633   3.882  16.142  0.00  0.00    +0.000 C 
ATOM     12  F   UNL     1      46.365   4.261  16.406  0.00  0.00    +0.000 F 
ATOM     13  F   UNL     1      47.965   2.910  17.023  0.00  0.00    +0.000 F 
ATOM     14  F   UNL     1      48.449   4.937  16.352  0.00  0.00    +0.000 F 
ENDBRANCH  10  11
ENDBRANCH   7  10
ENDBRANCH   1   4
BRANCH   1  15
ATOM     15  N   UNL     1      43.679   4.388   9.831  0.00  0.00    +0.000 N 
ATOM     16  H   UNL     1      42.818   3.852   9.741  0.00  0.00    +0.000 HD
BRANCH  15  20
ATOM     17  C   UNL     1      46.672   2.639   7.401  0.00  0.00    +0.000 A 
ATOM     18  C   UNL     1      46.554   4.032   7.466  0.00  0.00    +0.000 A 
ATOM     19  C   UNL     1      45.584   4.619   8.281  0.00  0.00    +0.000 A 
ATOM     20  C   UNL     1      44.722   3.838   9.057  0.00  0.00    +0.000 A 
ATOM     21  C   UNL     1      44.860   2.443   8.971  0.00  0.00    +0.000 A 
ATOM     22  F   UNL     1      44.047   1.657   9.698  0.00  0.00    +0.000 F 
ATOM     23  C   UNL     1      45.823   1.841   8.164  0.00  0.00    +0.000 A 
BRANCH  17  25
ATOM     24  N   UNL     1      48.461   1.572   5.864  0.00  0.00    +0.000 NA
ATOM     25  C   UNL     1      47.660   2.045   6.554  0.00  0.00    +0.000 C 
ENDBRANCH  17  25
ENDBRANCH  15  20
ENDBRANCH   1  15
TORSDOF 6
ENDMDL
MODEL 3
REMARK VINA RESULT:    -7.012      3.318      6.712
REMARK INTER + INTRA:         -10.686
REMARK INTER:                  -9.866
REMARK INTRA:                  -0.820
REMARK UNBOUND:                -1.214
REMARK  Name = 
REMARK  6 active torsions:
REMARK  status: ('A' for Active; 'I' for Inactive)
REMARK    1  A    between atoms: C_2  and  C_3
REMARK    2  A    between atoms: C_6  and  N_7
REMARK    3  A    between atoms: N_7  and  C_8
REMARK    4  A    between atoms: C_8  and  C_9
REMARK    5  A    between atoms: C_12  and  O_13
REMARK    6  A    between atoms: O_13  and  C_14
REMARK                            x       y       z     vdW  Elec       q    Type
REMARK                         _______ _______ _______ _____ _____    ______ ____
ROOT
ATOM      1  C   UNL     1      44.208   4.956  11.557  0.00  0.00    +0.000 C 
ATOM      2  C   UNL     1      43.242   6.111  11.342  0.00  0.00    +0.000 C 
ATOM      3  C   UNL     1      42.699   4.765  11.684  0.00  0.00    +0.000 C 
ENDROOT
BRANCH   1   4
ATOM      4  C   UNL     1      44.866   4.353  10.315  0.00  0.00    +0.000 A 
ATOM      5  C   UNL     1      44.717   2.996   9.986  0.00  0.00    +0.000 A 
ATOM      6  C   UNL     1      45.133   2.498   8.745  0.00  0.00    +0.000 A 
ATOM      7  C   UNL     1      45.684   3.356   7.796  0.00  0.00    +0.000 A 
ATOM      8  C   UNL     1      45.971   4.668   8.156  0.00  0.00    +0.000 A 
ATOM      9  C   UNL     1      45.569   5.155   9.399  0.00  0.00    +0.000 A 
BRANCH   7  10
ATOM     10  O   UNL     1      46.022   3.010   6.525  0.00  0.00    +0.000 OA
BRANCH  10  11
ATOM     11  C   UNL     1      47.216   2.256   6.337  0.00  0.00    +0.000 C 
ATOM     12  F   UNL     1      48.193   2.513   7.232  0.00  0.00    +0.000 F 
ATOM     13  F   UNL     1      46.918   0.938   6.419  0.00  0.00    +0.000 F 
ATOM     14  F   UNL     1      47.692   2.503   5.098  0.00  0.00    +0.000 F 
ENDBRANCH  10  11
ENDBRANCH   7  10
ENDBRANCH   1   4
BRANCH   1  15
ATOM     15  N   UNL     1      44.982   4.845  12.805  0.00  0.00    +0.000 N 
ATOM     16  H   UNL     1      44.482   4.543  13.640  0.00  0.00    +0.000 HD
BRANCH  15  20
ATOM     17  C   UNL     1      48.392   7.185  13.710  0.00  0.00    +0.000 A 
ATOM     18  C   UNL     1      47.502   7.607  12.715  0.00  0.00    +0.000 A 
ATOM     19  C   UNL     1      46.363   6.853  12.424  0.00  0.00    +0.000 A 
ATOM     20  C   UNL     1      46.078   5.676  13.121  0.00  0.00    +0.000 A 
ATOM     21  C   UNL     1      46.988   5.274  14.113  0.00  0.00    +0.000 A 
ATOM     22  F   UNL     1      46.752   4.145  14.803  0.00  0.00    +0.000 F 
ATOM     23  C   UNL     1      48.128   6.015  14.416  0.00  0.00    +0.000 A 
BRANCH  17  25
ATOM     24  N   UNL     1      50.511   8.583  14.215  0.00  0.00    +0.000 NA
ATOM     25  C   UNL     1      49.562   7.957  13.994  0.00  0.00    +0.000 C 
ENDBRANCH  17  25
ENDBRANCH  15  20
ENDBRANCH   1  15
TORSDOF 6
ENDMDL
MODEL 4
REMARK VINA RESULT:    -6.956      3.414      6.928
REMARK INTER + INTRA:         -10.609
REMARK INTER:                  -9.710
REMARK INTRA:                  -0.900
REMARK UNBOUND:                -1.214
REMARK  Name = 
REMARK  6 active torsions:
REMARK  status: ('A' for Active; 'I' for Inactive)
REMARK    1  A    between atoms: C_2  and  C_3
REMARK    2  A    between atoms: C_6  and  N_7
REMARK    3  A    between atoms: N_7  and  C_8
REMARK    4  A    between atoms: C_8  and  C_9
REMARK    5  A    between atoms: C_12  and  O_13
REMARK    6  A    between atoms: O_13  and  C_14
REMARK                            x       y       z     vdW  Elec       q    Type
REMARK                         _______ _______ _______ _____ _____    ______ ____
ROOT
ATOM      1  C   UNL     1      44.736   4.392  12.450  0.00  0.00    +0.000 C 
ATOM      2  C   UNL     1      43.815   5.508  12.921  0.00  0.00    +0.000 C 
ATOM      3  C   UNL     1      43.397   4.090  13.118  0.00  0.00    +0.000 C 
ENDROOT
BRANCH   1   4
ATOM      4  C   UNL     1      44.815   4.138  10.944  0.00  0.00    +0.000 A 
ATOM      5  C   UNL     1      45.319   5.104  10.058  0.00  0.00    +0.000 A 
ATOM      6  C   UNL     1      45.593   4.793   8.721  0.00  0.00    +0.000 A 
ATOM      7  C   UNL     1      45.392   3.498   8.248  0.00  0.00    +0.000 A 
ATOM      8  C   UNL     1      44.760   2.570   9.068  0.00  0.00    +0.000 A 
ATOM      9  C   UNL     1      44.475   2.889  10.394  0.00  0.00    +0.000 A 
BRANCH   7  10
ATOM     10  O   UNL     1      45.722   3.055   7.006  0.00  0.00    +0.000 OA
BRANCH  10  11
ATOM     11  C   UNL     1      47.010   2.474   6.828  0.00  0.00    +0.000 C 
ATOM     12  F   UNL     1      47.205   1.318   7.497  0.00  0.00    +0.000 F 
ATOM     13  F   UNL     1      47.199   2.225   5.511  0.00  0.00    +0.000 F 
ATOM     14  F   UNL     1      47.945   3.363   7.226  0.00  0.00    +0.000 F 
ENDBRANCH  10  11
ENDBRANCH   7  10
ENDBRANCH   1   4
BRANCH   1  15
ATOM     15  N   UNL     1      45.940   4.034  13.220  0.00  0.00    +0.000 N 
ATOM     16  H   UNL     1      45.882   3.217  13.824  0.00  0.00    +0.000 HD
BRANCH  15  20
ATOM     17  C   UNL     1      48.842   6.722  14.728  0.00  0.00    +0.000 A 
ATOM     18  C   UNL     1      48.445   6.806  13.388  0.00  0.00    +0.000 A 
ATOM     19  C   UNL     1      47.473   5.938  12.886  0.00  0.00    +0.000 A 
ATOM     20  C   UNL     1      46.867   4.980  13.705  0.00  0.00    +0.000 A 
ATOM     21  C   UNL     1      47.285   4.916  15.044  0.00  0.00    +0.000 A 
ATOM     22  F   UNL     1      46.730   4.006  15.863  0.00  0.00    +0.000 F 
ATOM     23  C   UNL     1      48.253   5.775  15.561  0.00  0.00    +0.000 A 
BRANCH  17  25
ATOM     24  N   UNL     1      50.657   8.324  15.645  0.00  0.00    +0.000 NA
ATOM     25  C   UNL     1      49.847   7.608  15.230  0.00  0.00    +0.000 C 
ENDBRANCH  17  25
ENDBRANCH  15  20
ENDBRANCH   1  15
TORSDOF 6
ENDMDL
MODEL 5
REMARK VINA RESULT:    -6.918      3.346      6.519
REMARK INTER + INTRA:         -10.559
REMARK INTER:                  -9.866
REMARK INTRA:                  -0.693
REMARK UNBOUND:                -1.214
REMARK  Name = 
REMARK  6 active torsions:
REMARK  status: ('A' for Active; 'I' for Inactive)
REMARK    1  A    between atoms: C_2  and  C_3
REMARK    2  A    between atoms: C_6  and  N_7
REMARK    3  A    between atoms: N_7  and  C_8
REMARK    4  A    between atoms: C_8  and  C_9
REMARK    5  A    between atoms: C_12  and  O_13
REMARK    6  A    between atoms: O_13  and  C_14
REMARK                            x       y       z     vdW  Elec       q    Type
REMARK                         _______ _______ _______ _____ _____    ______ ____
ROOT
ATOM      1  C   UNL     1      44.377   4.908  12.356  0.00  0.00    +0.000 C 
ATOM      2  C   UNL     1      42.956   5.447  12.404  0.00  0.00    +0.000 C 
ATOM      3  C   UNL     1      43.246   4.112  13.001  0.00  0.00    +0.000 C 
ENDROOT
BRANCH   1   4
ATOM      4  C   UNL     1      44.886   4.393  11.009  0.00  0.00    +0.000 A 
ATOM      5  C   UNL     1      44.796   3.038  10.654  0.00  0.00    +0.000 A 
ATOM      6  C   UNL     1      45.058   2.608   9.347  0.00  0.00    +0.000 A 
ATOM      7  C   UNL     1      45.392   3.533   8.361  0.00  0.00    +0.000 A 
ATOM      8  C   UNL     1      45.627   4.854   8.724  0.00  0.00    +0.000 A 
ATOM      9  C   UNL     1      45.380   5.274  10.029  0.00  0.00    +0.000 A 
BRANCH   7  10
ATOM     10  O   UNL     1      45.561   3.248   7.042  0.00  0.00    +0.000 OA
BRANCH  10  11
ATOM     11  C   UNL     1      46.755   2.575   6.655  0.00  0.00    +0.000 C 
ATOM     12  F   UNL     1      46.784   1.259   6.953  0.00  0.00    +0.000 F 
ATOM     13  F   UNL     1      46.912   2.699   5.316  0.00  0.00    +0.000 F 
ATOM     14  F   UNL     1      47.804   3.175   7.258  0.00  0.00    +0.000 F 
ENDBRANCH  10  11
ENDBRANCH   7  10
ENDBRANCH   1   4
BRANCH   1  15
ATOM     15  N   UNL     1      45.410   5.425  13.271  0.00  0.00    +0.000 N 
ATOM     16  H   UNL     1      45.145   5.558  14.246  0.00  0.00    +0.000 HD
BRANCH  15  20
ATOM     17  C   UNL     1      48.410   8.228  12.241  0.00  0.00    +0.000 A 
ATOM     18  C   UNL     1      48.762   6.903  12.523  0.00  0.00    +0.000 A 
ATOM     19  C   UNL     1      47.778   5.966  12.843  0.00  0.00    +0.000 A 
ATOM     20  C   UNL     1      46.426   6.320  12.876  0.00  0.00    +0.000 A 
ATOM     21  C   UNL     1      46.100   7.656  12.592  0.00  0.00    +0.000 A 
ATOM     22  F   UNL     1      44.811   8.038  12.619  0.00  0.00    +0.000 F 
ATOM     23  C   UNL     1      47.070   8.604  12.271  0.00  0.00    +0.000 A 
BRANCH  17  25
ATOM     24  N   UNL     1      50.253   9.953  11.667  0.00  0.00    +0.000 NA
ATOM     25  C   UNL     1      49.426   9.185  11.926  0.00  0.00    +0.000 C 
ENDBRANCH  17  25
ENDBRANCH  15  20
ENDBRANCH   1  15
TORSDOF 6
ENDMDL
MODEL 6
REMARK VINA RESULT:    -6.652      1.873      2.636
REMARK INTER + INTRA:         -10.199
REMARK INTER:                  -9.548
REMARK INTRA:                  -0.652
REMARK UNBOUND:                -1.214
REMARK  Name = 
REMARK  6 active torsions:
REMARK  status: ('A' for Active; 'I' for Inactive)
REMARK    1  A    between atoms: C_2  and  C_3
REMARK    2  A    between atoms: C_6  and  N_7
REMARK    3  A    between atoms: N_7  and  C_8
REMARK    4  A    between atoms: C_8  and  C_9
REMARK    5  A    between atoms: C_12  and  O_13
REMARK    6  A    between atoms: O_13  and  C_14
REMARK                            x       y       z     vdW  Elec       q    Type
REMARK                         _______ _______ _______ _____ _____    ______ ____
ROOT
ATOM      1  C   UNL     1      44.855   4.463  11.750  0.00  0.00    +0.000 C 
ATOM      2  C   UNL     1      45.434   3.433  12.708  0.00  0.00    +0.000 C 
ATOM      3  C   UNL     1      44.093   4.019  12.995  0.00  0.00    +0.000 C 
ENDROOT
BRANCH   1   4
ATOM      4  C   UNL     1      45.456   5.869  11.786  0.00  0.00    +0.000 A 
ATOM      5  C   UNL     1      44.670   7.013  11.575  0.00  0.00    +0.000 A 
ATOM      6  C   UNL     1      45.172   8.297  11.824  0.00  0.00    +0.000 A 
ATOM      7  C   UNL     1      46.465   8.459  12.315  0.00  0.00    +0.000 A 
ATOM      8  C   UNL     1      47.304   7.353  12.392  0.00  0.00    +0.000 A 
ATOM      9  C   UNL     1      46.804   6.078  12.128  0.00  0.00    +0.000 A 
BRANCH   7  10
ATOM     10  O   UNL     1      47.020   9.642  12.694  0.00  0.00    +0.000 OA
BRANCH  10  11
ATOM     11  C   UNL     1      48.277   9.998  12.127  0.00  0.00    +0.000 C 
ATOM     12  F   UNL     1      49.225   9.042  12.210  0.00  0.00    +0.000 F 
ATOM     13  F   UNL     1      48.099  10.291  10.818  0.00  0.00    +0.000 F 
ATOM     14  F   UNL     1      48.732  11.108  12.748  0.00  0.00    +0.000 F 
ENDBRANCH  10  11
ENDBRANCH   7  10
ENDBRANCH   1   4
BRANCH   1  15
ATOM     15  N   UNL     1      44.281   4.050  10.457  0.00  0.00    +0.000 N 
ATOM     16  H   UNL     1      43.335   3.673  10.466  0.00  0.00    +0.000 HD
BRANCH  15  20
ATOM     17  C   UNL     1      46.738   2.557   7.351  0.00  0.00    +0.000 A 
ATOM     18  C   UNL     1      46.021   1.667   8.159  0.00  0.00    +0.000 A 
ATOM     19  C   UNL     1      45.191   2.151   9.173  0.00  0.00    +0.000 A 
ATOM     20  C   UNL     1      45.046   3.523   9.395  0.00  0.00    +0.000 A 
ATOM     21  C   UNL     1      45.779   4.393   8.572  0.00  0.00    +0.000 A 
ATOM     22  F   UNL     1      45.670   5.720   8.757  0.00  0.00    +0.000 F 
ATOM     23  C   UNL     1      46.611   3.928   7.556  0.00  0.00    +0.000 A 
BRANCH  17  25
ATOM     24  N   UNL     1      48.292   1.638   5.494  0.00  0.00    +0.000 NA
ATOM     25  C   UNL     1      47.596   2.053   6.322  0.00  0.00    +0.000 C 
ENDBRANCH  17  25
ENDBRANCH  15  20
ENDBRANCH   1  15
TORSDOF 6
ENDMDL
MODEL 7
REMARK VINA RESULT:    -6.613      1.890      2.571
REMARK INTER + INTRA:         -10.147
REMARK INTER:                  -9.123
REMARK INTRA:                  -1.024
REMARK UNBOUND:                -1.214
REMARK  Name = 
REMARK  6 active torsions:
REMARK  status: ('A' for Active; 'I' for Inactive)
REMARK    1  A    between atoms: C_2  and  C_3
REMARK    2  A    between atoms: C_6  and  N_7
REMARK    3  A    between atoms: N_7  and  C_8
REMARK    4  A    between atoms: C_8  and  C_9
REMARK    5  A    between atoms: C_12  and  O_13
REMARK    6  A    between atoms: O_13  and  C_14
REMARK                            x       y       z     vdW  Elec       q    Type
REMARK                         _______ _______ _______ _____ _____    ______ ____
ROOT
ATOM      1  C   UNL     1      44.038   4.851  11.987  0.00  0.00    +0.000 C 
ATOM      2  C   UNL     1      43.036   3.897  12.620  0.00  0.00    +0.000 C 
ATOM      3  C   UNL     1      42.813   5.367  12.737  0.00  0.00    +0.000 C 
ENDROOT
BRANCH   1   4
ATOM      4  C   UNL     1      45.385   5.018  12.690  0.00  0.00    +0.000 A 
ATOM      5  C   UNL     1      45.933   6.286  12.944  0.00  0.00    +0.000 A 
ATOM      6  C   UNL     1      47.050   6.444  13.775  0.00  0.00    +0.000 A 
ATOM      7  C   UNL     1      47.626   5.335  14.390  0.00  0.00    +0.000 A 
ATOM      8  C   UNL     1      47.190   4.063  14.037  0.00  0.00    +0.000 A 
ATOM      9  C   UNL     1      46.088   3.910  13.197  0.00  0.00    +0.000 A 
BRANCH   7  10
ATOM     10  O   UNL     1      48.639   5.376  15.296  0.00  0.00    +0.000 OA
BRANCH  10  11
ATOM     11  C   UNL     1      48.296   5.396  16.678  0.00  0.00    +0.000 C 
ATOM     12  F   UNL     1      49.174   4.768  17.487  0.00  0.00    +0.000 F 
ATOM     13  F   UNL     1      48.204   6.682  17.087  0.00  0.00    +0.000 F 
ATOM     14  F   UNL     1      47.084   4.819  16.830  0.00  0.00    +0.000 F 
ENDBRANCH  10  11
ENDBRANCH   7  10
ENDBRANCH   1   4
BRANCH   1  15
ATOM     15  N   UNL     1      44.048   5.074  10.531  0.00  0.00    +0.000 N 
ATOM     16  H   UNL     1      43.206   5.467  10.113  0.00  0.00    +0.000 HD
BRANCH  15  20
ATOM     17  C   UNL     1      46.338   2.683   7.893  0.00  0.00    +0.000 A 
ATOM     18  C   UNL     1      45.323   2.098   8.659  0.00  0.00    +0.000 A 
ATOM     19  C   UNL     1      44.547   2.882   9.516  0.00  0.00    +0.000 A 
ATOM     20  C   UNL     1      44.754   4.261   9.620  0.00  0.00    +0.000 A 
ATOM     21  C   UNL     1      45.781   4.822   8.843  0.00  0.00    +0.000 A 
ATOM     22  F   UNL     1      46.015   6.143   8.918  0.00  0.00    +0.000 F 
ATOM     23  C   UNL     1      46.563   4.054   7.982  0.00  0.00    +0.000 A 
BRANCH  17  25
ATOM     24  N   UNL     1      47.774   1.208   6.323  0.00  0.00    +0.000 NA
ATOM     25  C   UNL     1      47.135   1.871   7.026  0.00  0.00    +0.000 C 
ENDBRANCH  17  25
ENDBRANCH  15  20
ENDBRANCH   1  15
TORSDOF 6
ENDMDL
MODEL 8
REMARK VINA RESULT:    -5.885      3.465      7.291
REMARK INTER + INTRA:          -9.164
REMARK INTER:                  -9.159
REMARK INTRA:                  -0.005
REMARK UNBOUND:                -1.214
REMARK  Name = 
REMARK  6 active torsions:
REMARK  status: ('A' for Active; 'I' for Inactive)
REMARK    1  A    between atoms: C_2  and  C_3
REMARK    2  A    between atoms: C_6  and  N_7
REMARK    3  A    between atoms: N_7  and  C_8
REMARK    4  A    between atoms: C_8  and  C_9
REMARK    5  A    between atoms: C_12  and  O_13
REMARK    6  A    between atoms: O_13  and  C_14
REMARK                            x       y       z     vdW  Elec       q    Type
REMARK                         _______ _______ _______ _____ _____    ______ ____
ROOT
ATOM      1  C   UNL     1      45.461   6.020  11.564  0.00  0.00    +0.000 C 
ATOM      2  C   UNL     1      44.484   7.185  11.507  0.00  0.00    +0.000 C 
ATOM      3  C   UNL     1      44.299   6.132  12.547  0.00  0.00    +0.000 C 
ENDROOT
BRANCH   1   4
ATOM      4  C   UNL     1      45.334   4.945  10.483  0.00  0.00    +0.000 A 
ATOM      5  C   UNL     1      45.701   5.192   9.151  0.00  0.00    +0.000 A 
ATOM      6  C   UNL     1      45.790   4.153   8.216  0.00  0.00    +0.000 A 
ATOM      7  C   UNL     1      45.539   2.839   8.604  0.00  0.00    +0.000 A 
ATOM      8  C   UNL     1      45.035   2.595   9.876  0.00  0.00    +0.000 A 
ATOM      9  C   UNL     1      44.933   3.635  10.799  0.00  0.00    +0.000 A 
BRANCH   7  10
ATOM     10  O   UNL     1      45.698   1.743   7.816  0.00  0.00    +0.000 OA
BRANCH  10  11
ATOM     11  C   UNL     1      46.820   1.711   6.939  0.00  0.00    +0.000 C 
ATOM     12  F   UNL     1      47.941   2.276   7.436  0.00  0.00    +0.000 F 
ATOM     13  F   UNL     1      47.105   0.422   6.640  0.00  0.00    +0.000 F 
ATOM     14  F   UNL     1      46.491   2.346   5.793  0.00  0.00    +0.000 F 
ENDBRANCH  10  11
ENDBRANCH   7  10
ENDBRANCH   1   4
BRANCH   1  15
ATOM     15  N   UNL     1      46.809   6.195  12.131  0.00  0.00    +0.000 N 
ATOM     16  H   UNL     1      47.589   6.237  11.477  0.00  0.00    +0.000 HD
BRANCH  15  20
ATOM     17  C   UNL     1      47.900   4.810  15.980  0.00  0.00    +0.000 A 
ATOM     18  C   UNL     1      47.126   3.999  15.142  0.00  0.00    +0.000 A 
ATOM     19  C   UNL     1      46.779   4.438  13.862  0.00  0.00    +0.000 A 
ATOM     20  C   UNL     1      47.203   5.682  13.385  0.00  0.00    +0.000 A 
ATOM     21  C   UNL     1      47.976   6.477  14.247  0.00  0.00    +0.000 A 
ATOM     22  F   UNL     1      48.399   7.682  13.827  0.00  0.00    +0.000 F 
ATOM     23  C   UNL     1      48.332   6.054  15.526  0.00  0.00    +0.000 A 
BRANCH  17  25
ATOM     24  N   UNL     1      48.519   4.000  18.360  0.00  0.00    +0.000 NA
ATOM     25  C   UNL     1      48.241   4.358  17.294  0.00  0.00    +0.000 C 
ENDBRANCH  17  25
ENDBRANCH  15  20
ENDBRANCH   1  15
TORSDOF 6
ENDMDL
MODEL 9
REMARK VINA RESULT:    -5.839      3.857      7.790
REMARK INTER + INTRA:          -9.102
REMARK INTER:                  -8.514
REMARK INTRA:                  -0.588
REMARK UNBOUND:                -1.214
REMARK  Name = 
REMARK  6 active torsions:
REMARK  status: ('A' for Active; 'I' for Inactive)
REMARK    1  A    between atoms: C_2  and  C_3
REMARK    2  A    between atoms: C_6  and  N_7
REMARK    3  A    between atoms: N_7  and  C_8
REMARK    4  A    between atoms: C_8  and  C_9
REMARK    5  A    between atoms: C_12  and  O_13
REMARK    6  A    between atoms: O_13  and  C_14
REMARK                            x       y       z     vdW  Elec       q    Type
REMARK                         _______ _______ _______ _____ _____    ______ ____
ROOT
ATOM      1  C   UNL     1      47.665   6.671  13.158  0.00  0.00    +0.000 C 
ATOM      2  C   UNL     1      49.035   6.658  12.496  0.00  0.00    +0.000 C 
ATOM      3  C   UNL     1      48.193   7.884  12.397  0.00  0.00    +0.000 C 
ENDROOT
BRANCH   1   4
ATOM      4  C   UNL     1      46.552   5.874  12.477  0.00  0.00    +0.000 A 
ATOM      5  C   UNL     1      46.004   6.273  11.248  0.00  0.00    +0.000 A 
ATOM      6  C   UNL     1      45.147   5.433  10.525  0.00  0.00    +0.000 A 
ATOM      7  C   UNL     1      44.842   4.163  11.008  0.00  0.00    +0.000 A 
ATOM      8  C   UNL     1      45.256   3.808  12.287  0.00  0.00    +0.000 A 
ATOM      9  C   UNL     1      46.096   4.654  13.009  0.00  0.00    +0.000 A 
BRANCH   7  10
ATOM     10  O   UNL     1      44.113   3.224  10.347  0.00  0.00    +0.000 OA
BRANCH  10  11
ATOM     11  C   UNL     1      44.714   2.585   9.225  0.00  0.00    +0.000 C 
ATOM     12  F   UNL     1      46.061   2.510   9.272  0.00  0.00    +0.000 F 
ATOM     13  F   UNL     1      44.233   1.324   9.131  0.00  0.00    +0.000 F 
ATOM     14  F   UNL     1      44.361   3.254   8.106  0.00  0.00    +0.000 F 
ENDBRANCH  10  11
ENDBRANCH   7  10
ENDBRANCH   1   4
BRANCH   1  15
ATOM     15  N   UNL     1      47.536   6.827  14.617  0.00  0.00    +0.000 N 
ATOM     16  H   UNL     1      47.100   7.682  14.958  0.00  0.00    +0.000 HD
BRANCH  15  20
ATOM     17  C   UNL     1      50.315   5.088  17.295  0.00  0.00    +0.000 A 
ATOM     18  C   UNL     1      50.646   6.266  16.615  0.00  0.00    +0.000 A 
ATOM     19  C   UNL     1      49.729   6.859  15.746  0.00  0.00    +0.000 A 
ATOM     20  C   UNL     1      48.461   6.305  15.544  0.00  0.00    +0.000 A 
ATOM     21  C   UNL     1      48.155   5.121  16.236  0.00  0.00    +0.000 A 
ATOM     22  F   UNL     1      46.948   4.554  16.065  0.00  0.00    +0.000 F 
ATOM     23  C   UNL     1      49.059   4.517  17.107  0.00  0.00    +0.000 A 
BRANCH  17  25
ATOM     24  N   UNL     1      52.029   3.987  18.892  0.00  0.00    +0.000 NA
ATOM     25  C   UNL     1      51.265   4.480  18.174  0.00  0.00    +0.000 C 
ENDBRANCH  17  25
ENDBRANCH  15  20
ENDBRANCH   1  15
TORSDOF 6
ENDMDL
