MODEL 1
REMARK VINA RESULT:    -7.446      0.000      0.000
REMARK INTER + INTRA:         -11.490
REMARK INTER:                 -10.493
REMARK INTRA:                  -0.997
REMARK UNBOUND:                -0.997
REMARK  Name = 
REMARK  7 active torsions:
REMARK  status: ('A' for Active; 'I' for Inactive)
REMARK    1  A    between atoms: C_2  and  C_3
REMARK    2  A    between atoms: C_7  and  C_8
REMARK    3  A    between atoms: N_10  and  C_11
REMARK    4  A    between atoms: C_11  and  C_12
REMARK    5  A    between atoms: C_15  and  C_16
REMARK    6  A    between atoms: C_16  and  N_17
REMARK    7  A    between atoms: C_18  and  C_20
REMARK                            x       y       z     vdW  Elec       q    Type
REMARK                         _______ _______ _______ _____ _____    ______ ____
ROOT
ATOM      1  C   UNL     1      45.226   6.826  11.842  0.00  0.00    +0.000 A 
ATOM      2  C   UNL     1      46.367   6.203  12.369  0.00  0.00    +0.000 A 
ATOM      3  C   UNL     1      47.267   6.912  13.177  0.00  0.00    +0.000 A 
ATOM      4  C   UNL     1      47.037   8.257  13.494  0.00  0.00    +0.000 A 
ATOM      5  C   UNL     1      45.906   8.884  12.954  0.00  0.00    +0.000 A 
ATOM      6  C   UNL     1      45.005   8.175  12.149  0.00  0.00    +0.000 A 
ENDROOT
BRANCH   1   7
ATOM      7  C   UNL     1      44.271   6.062  10.957  0.00  0.00    +0.000 C 
BRANCH   7  10
ATOM      8  C   UNL     1      44.917   3.984   9.792  0.00  0.00    +0.000 C 
ATOM      9  O   UNL     1      44.339   3.255  10.591  0.00  0.00    +0.000 OA
ATOM     10  N   UNL     1      44.937   5.363   9.883  0.00  0.00    +0.000 N 
ATOM     11  H   UNL     1      45.472   5.875   9.189  0.00  0.00    +0.000 HD
BRANCH   8  16
ATOM     12  C   UNL     1      46.507   1.531   7.575  0.00  0.00    +0.000 A 
ATOM     13  C   UNL     1      47.024   2.284   6.527  0.00  0.00    +0.000 A 
ATOM     14  C   UNL     1      46.839   3.664   6.552  0.00  0.00    +0.000 A 
ATOM     15  C   UNL     1      46.150   4.239   7.615  0.00  0.00    +0.000 A 
ATOM     16  C   UNL     1      45.665   3.409   8.623  0.00  0.00    +0.000 A 
ATOM     17  N   UNL     1      45.825   2.057   8.626  0.00  0.00    +0.000 NA
BRANCH  12  19
ATOM     18  N   UNL     1      46.779  -1.054   7.603  0.00  0.00    +0.000 NA
ATOM     19  C   UNL     1      46.676   0.106   7.596  0.00  0.00    +0.000 C 
ENDBRANCH  12  19
ENDBRANCH   8  16
ENDBRANCH   7  10
ENDBRANCH   1   7
BRANCH   4  20
ATOM     20  C   UNL     1      47.983   9.029  14.384  0.00  0.00    +0.000 C 
BRANCH  20  21
ATOM     21  N   UNL     1      48.178   8.375  15.652  0.00  0.00    +0.000 N 
ATOM     22  C   UNL     1      49.355   7.727  15.950  0.00  0.00    +0.000 C 
ATOM     23  O   UNL     1      50.304   7.706  15.172  0.00  0.00    +0.000 OA
ATOM     24  H   UNL     1      47.345   8.144  16.181  0.00  0.00    +0.000 HD
BRANCH  22  25
ATOM     25  C   UNL     1      49.441   7.115  17.281  0.00  0.00    +0.000 A 
ATOM     26  C   UNL     1      49.977   7.833  18.342  0.00  0.00    +0.000 A 
ATOM     27  S   UNL     1      49.945   6.988  19.825  0.00  0.00    +0.000 S 
ATOM     28  C   UNL     1      49.263   5.613  19.089  0.00  0.00    +0.000 A 
ATOM     29  N   UNL     1      48.997   4.490  19.811  0.00  0.00    +0.000 NA
ATOM     30  C   UNL     1      48.510   3.514  19.118  0.00  0.00    +0.000 A 
ATOM     31  N   UNL     1      48.258   3.562  17.771  0.00  0.00    +0.000 N 
ATOM     32  C   UNL     1      48.483   4.683  17.009  0.00  0.00    +0.000 A 
ATOM     33  O   UNL     1      48.204   4.707  15.815  0.00  0.00    +0.000 OA
ATOM     34  C   UNL     1      49.044   5.804  17.737  0.00  0.00    +0.000 A 
ATOM     35  H   UNL     1      47.866   2.768  17.288  0.00  0.00    +0.000 HD
ENDBRANCH  22  25
ENDBRANCH  20  21
ENDBRANCH   4  20
TORSDOF 7
ENDMDL
MODEL 2
REMARK VINA RESULT:    -6.877      5.696      7.991
REMARK INTER + INTRA:         -10.688
REMARK INTER:                  -9.692
REMARK INTRA:                  -0.995
REMARK UNBOUND:                -0.997
REMARK  Name = 
REMARK  7 active torsions:
REMARK  status: ('A' for Active; 'I' for Inactive)
REMARK    1  A    between atoms: C_2  and  C_3
REMARK    2  A    between atoms: C_7  and  C_8
REMARK    3  A    between atoms: N_10  and  C_11
REMARK    4  A    between atoms: C_11  and  C_12
REMARK    5  A    between atoms: C_15  and  C_16
REMARK    6  A    between atoms: C_16  and  N_17
REMARK    7  A    between atoms: C_18  and  C_20
REMARK                            x       y       z     vdW  Elec       q    Type
REMARK                         _______ _______ _______ _____ _____    ______ ____
ROOT
ATOM      1  C   UNL     1      49.102   7.046  13.889  0.00  0.00    +0.000 A 
ATOM      2  C   UNL     1      49.085   7.049  12.486  0.00  0.00    +0.000 A 
ATOM      3  C   UNL     1      50.061   7.740  11.755  0.00  0.00    +0.000 A 
ATOM      4  C   UNL     1      51.091   8.429  12.409  0.00  0.00    +0.000 A 
ATOM      5  C   UNL     1      51.098   8.441  13.811  0.00  0.00    +0.000 A 
ATOM      6  C   UNL     1      50.124   7.748  14.541  0.00  0.00    +0.000 A 
ENDROOT
BRANCH   1   7
ATOM      7  C   UNL     1      48.036   6.316  14.670  0.00  0.00    +0.000 C 
BRANCH   7  10
ATOM      8  C   UNL     1      46.400   4.703  13.771  0.00  0.00    +0.000 C 
ATOM      9  O   UNL     1      46.906   3.741  14.340  0.00  0.00    +0.000 OA
ATOM     10  N   UNL     1      46.875   5.995  13.874  0.00  0.00    +0.000 N 
ATOM     11  H   UNL     1      46.405   6.717  13.337  0.00  0.00    +0.000 HD
BRANCH   8  16
ATOM     12  C   UNL     1      44.242   3.531  11.044  0.00  0.00    +0.000 A 
ATOM     13  C   UNL     1      43.028   4.175  11.252  0.00  0.00    +0.000 A 
ATOM     14  C   UNL     1      42.915   5.035  12.342  0.00  0.00    +0.000 A 
ATOM     15  C   UNL     1      44.011   5.220  13.179  0.00  0.00    +0.000 A 
ATOM     16  C   UNL     1      45.189   4.533  12.897  0.00  0.00    +0.000 A 
ATOM     17  N   UNL     1      45.331   3.683  11.843  0.00  0.00    +0.000 NA
BRANCH  12  19
ATOM     18  N   UNL     1      44.565   1.895   9.050  0.00  0.00    +0.000 NA
ATOM     19  C   UNL     1      44.408   2.639   9.932  0.00  0.00    +0.000 C 
ENDBRANCH  12  19
ENDBRANCH   8  16
ENDBRANCH   7  10
ENDBRANCH   1   7
BRANCH   4  20
ATOM     20  C   UNL     1      52.165   9.158  11.636  0.00  0.00    +0.000 C 
BRANCH  20  21
ATOM     21  N   UNL     1      52.338   8.610  10.316  0.00  0.00    +0.000 N 
ATOM     22  C   UNL     1      53.454   8.896   9.564  0.00  0.00    +0.000 C 
ATOM     23  O   UNL     1      54.368   9.597   9.989  0.00  0.00    +0.000 OA
ATOM     24  H   UNL     1      51.506   8.271   9.847  0.00  0.00    +0.000 HD
BRANCH  22  25
ATOM     25  C   UNL     1      53.527   8.263   8.241  0.00  0.00    +0.000 A 
ATOM     26  C   UNL     1      53.494   9.045   7.094  0.00  0.00    +0.000 A 
ATOM     27  S   UNL     1      53.646   8.148   5.650  0.00  0.00    +0.000 S 
ATOM     28  C   UNL     1      53.707   6.678   6.506  0.00  0.00    +0.000 A 
ATOM     29  N   UNL     1      53.811   5.489   5.852  0.00  0.00    +0.000 NA
ATOM     30  C   UNL     1      53.815   4.454   6.625  0.00  0.00    +0.000 A 
ATOM     31  N   UNL     1      53.732   4.500   7.993  0.00  0.00    +0.000 N 
ATOM     32  C   UNL     1      53.656   5.678   8.696  0.00  0.00    +0.000 A 
ATOM     33  O   UNL     1      53.628   5.686   9.922  0.00  0.00    +0.000 OA
ATOM     34  C   UNL     1      53.633   6.871   7.874  0.00  0.00    +0.000 A 
ATOM     35  H   UNL     1      53.752   3.655   8.543  0.00  0.00    +0.000 HD
ENDBRANCH  22  25
ENDBRANCH  20  21
ENDBRANCH   4  20
TORSDOF 7
ENDMDL
MODEL 3
REMARK VINA RESULT:    -6.860      5.900      8.340
REMARK INTER + INTRA:         -10.665
REMARK INTER:                  -9.714
REMARK INTRA:                  -0.951
REMARK UNBOUND:                -0.997
REMARK  Name = 
REMARK  7 active torsions:
REMARK  status: ('A' for Active; 'I' for Inactive)
REMARK    1  A    between atoms: C_2  and  C_3
REMARK    2  A    between atoms: C_7  and  C_8
REMARK    3  A    between atoms: N_10  and  C_11
REMARK    4  A    between atoms: C_11  and  C_12
REMARK    5  A    between atoms: C_15  and  C_16
REMARK    6  A    between atoms: C_16  and  N_17
REMARK    7  A    between atoms: C_18  and  C_20
REMARK                            x       y       z     vdW  Elec       q    Type
REMARK                         _______ _______ _______ _____ _____    ______ ____
ROOT
ATOM      1  C   UNL     1      48.801   3.385  17.334  0.00  0.00    +0.000 A 
ATOM      2  C   UNL     1      49.629   4.380  17.874  0.00  0.00    +0.000 A 
ATOM      3  C   UNL     1      50.993   4.140  18.097  0.00  0.00    +0.000 A 
ATOM      4  C   UNL     1      51.565   2.904  17.766  0.00  0.00    +0.000 A 
ATOM      5  C   UNL     1      50.734   1.904  17.244  0.00  0.00    +0.000 A 
ATOM      6  C   UNL     1      49.373   2.145  17.018  0.00  0.00    +0.000 A 
ENDROOT
BRANCH   1   7
ATOM      7  C   UNL     1      47.330   3.643  17.115  0.00  0.00    +0.000 C 
BRANCH   7  10
ATOM      8  C   UNL     1      47.152   4.085  14.693  0.00  0.00    +0.000 C 
ATOM      9  O   UNL     1      47.431   2.933  14.376  0.00  0.00    +0.000 OA
ATOM     10  N   UNL     1      47.074   4.525  16.001  0.00  0.00    +0.000 N 
ATOM     11  H   UNL     1      46.867   5.507  16.158  0.00  0.00    +0.000 HD
BRANCH   8  16
ATOM     12  C   UNL     1      45.371   6.006  12.124  0.00  0.00    +0.000 A 
ATOM     13  C   UNL     1      46.271   6.989  11.730  0.00  0.00    +0.000 A 
ATOM     14  C   UNL     1      47.522   7.021  12.341  0.00  0.00    +0.000 A 
ATOM     15  C   UNL     1      47.829   6.076  13.315  0.00  0.00    +0.000 A 
ATOM     16  C   UNL     1      46.866   5.127  13.649  0.00  0.00    +0.000 A 
ATOM     17  N   UNL     1      45.633   5.071  13.074  0.00  0.00    +0.000 NA
BRANCH  12  19
ATOM     18  N   UNL     1      43.020   5.831  11.028  0.00  0.00    +0.000 NA
ATOM     19  C   UNL     1      44.071   5.929  11.521  0.00  0.00    +0.000 C 
ENDBRANCH  12  19
ENDBRANCH   8  16
ENDBRANCH   7  10
ENDBRANCH   1   7
BRANCH   4  20
ATOM     20  C   UNL     1      53.038   2.638  17.977  0.00  0.00    +0.000 C 
BRANCH  20  21
ATOM     21  N   UNL     1      53.360   1.246  17.802  0.00  0.00    +0.000 N 
ATOM     22  C   UNL     1      54.271   0.614  18.616  0.00  0.00    +0.000 C 
ATOM     23  O   UNL     1      54.824   1.191  19.549  0.00  0.00    +0.000 OA
ATOM     24  H   UNL     1      53.141   0.834  16.902  0.00  0.00    +0.000 HD
BRANCH  22  25
ATOM     25  C   UNL     1      54.502  -0.811  18.352  0.00  0.00    +0.000 A 
ATOM     26  C   UNL     1      54.278  -1.748  19.352  0.00  0.00    +0.000 A 
ATOM     27  S   UNL     1      54.541  -3.359  18.851  0.00  0.00    +0.000 S 
ATOM     28  C   UNL     1      55.016  -2.855  17.296  0.00  0.00    +0.000 A 
ATOM     29  N   UNL     1      55.404  -3.757  16.354  0.00  0.00    +0.000 NA
ATOM     30  C   UNL     1      55.768  -3.233  15.231  0.00  0.00    +0.000 A 
ATOM     31  N   UNL     1      55.772  -1.888  14.962  0.00  0.00    +0.000 N 
ATOM     32  C   UNL     1      55.360  -0.944  15.871  0.00  0.00    +0.000 A 
ATOM     33  O   UNL     1      55.333   0.247  15.583  0.00  0.00    +0.000 OA
ATOM     34  C   UNL     1      54.954  -1.480  17.156  0.00  0.00    +0.000 A 
ATOM     35  H   UNL     1      56.057  -1.541  14.059  0.00  0.00    +0.000 HD
ENDBRANCH  22  25
ENDBRANCH  20  21
ENDBRANCH   4  20
TORSDOF 7
ENDMDL
MODEL 4
REMARK VINA RESULT:    -6.830      5.780      8.056
REMARK INTER + INTRA:         -10.622
REMARK INTER:                  -9.607
REMARK INTRA:                  -1.015
REMARK UNBOUND:                -0.997
REMARK  Name = 
REMARK  7 active torsions:
REMARK  status: ('A' for Active; 'I' for Inactive)
REMARK    1  A    between atoms: C_2  and  C_3
REMARK    2  A    between atoms: C_7  and  C_8
REMARK    3  A    between atoms: N_10  and  C_11
REMARK    4  A    between atoms: C_11  and  C_12
REMARK    5  A    between atoms: C_15  and  C_16
REMARK    6  A    between atoms: C_16  and  N_17
REMARK    7  A    between atoms: C_18  and  C_20
REMARK                            x       y       z     vdW  Elec       q    Type
REMARK                         _______ _______ _______ _____ _____    ______ ____
ROOT
ATOM      1  C   UNL     1      48.851   3.662  17.288  0.00  0.00    +0.000 A 
ATOM      2  C   UNL     1      49.700   4.725  17.628  0.00  0.00    +0.000 A 
ATOM      3  C   UNL     1      51.071   4.514  17.838  0.00  0.00    +0.000 A 
ATOM      4  C   UNL     1      51.627   3.236  17.694  0.00  0.00    +0.000 A 
ATOM      5  C   UNL     1      50.775   2.171  17.371  0.00  0.00    +0.000 A 
ATOM      6  C   UNL     1      49.407   2.383  17.159  0.00  0.00    +0.000 A 
ENDROOT
BRANCH   1   7
ATOM      7  C   UNL     1      47.372   3.894  17.082  0.00  0.00    +0.000 C 
BRANCH   7  10
ATOM      8  C   UNL     1      47.122   4.124  14.638  0.00  0.00    +0.000 C 
ATOM      9  O   UNL     1      47.389   2.948  14.414  0.00  0.00    +0.000 OA
ATOM     10  N   UNL     1      47.084   4.676  15.904  0.00  0.00    +0.000 N 
ATOM     11  H   UNL     1      46.885   5.669  15.981  0.00  0.00    +0.000 HD
BRANCH   8  16
ATOM     12  C   UNL     1      45.402   5.637  11.772  0.00  0.00    +0.000 A 
ATOM     13  C   UNL     1      46.168   6.751  11.448  0.00  0.00    +0.000 A 
ATOM     14  C   UNL     1      47.302   7.018  12.211  0.00  0.00    +0.000 A 
ATOM     15  C   UNL     1      47.630   6.166  13.262  0.00  0.00    +0.000 A 
ATOM     16  C   UNL     1      46.807   5.073  13.516  0.00  0.00    +0.000 A 
ATOM     17  N   UNL     1      45.689   4.787  12.792  0.00  0.00    +0.000 NA
BRANCH  12  19
ATOM     18  N   UNL     1      43.293   5.036  10.377  0.00  0.00    +0.000 NA
ATOM     19  C   UNL     1      44.228   5.319  11.011  0.00  0.00    +0.000 C 
ENDBRANCH  12  19
ENDBRANCH   8  16
ENDBRANCH   7  10
ENDBRANCH   1   7
BRANCH   4  20
ATOM     20  C   UNL     1      53.106   2.996  17.892  0.00  0.00    +0.000 C 
BRANCH  20  21
ATOM     21  N   UNL     1      53.435   1.597  17.815  0.00  0.00    +0.000 N 
ATOM     22  C   UNL     1      54.552   1.161  17.140  0.00  0.00    +0.000 C 
ATOM     23  O   UNL     1      55.337   1.938  16.605  0.00  0.00    +0.000 OA
ATOM     24  H   UNL     1      52.687   0.939  17.998  0.00  0.00    +0.000 HD
BRANCH  22  25
ATOM     25  C   UNL     1      54.793  -0.287  17.148  0.00  0.00    +0.000 A 
ATOM     26  C   UNL     1      54.883  -0.983  15.949  0.00  0.00    +0.000 A 
ATOM     27  S   UNL     1      55.223  -2.644  16.146  0.00  0.00    +0.000 S 
ATOM     28  C   UNL     1      55.206  -2.502  17.842  0.00  0.00    +0.000 A 
ATOM     29  N   UNL     1      55.408  -3.586  18.640  0.00  0.00    +0.000 NA
ATOM     30  C   UNL     1      55.337  -3.337  19.906  0.00  0.00    +0.000 A 
ATOM     31  N   UNL     1      55.091  -2.102  20.446  0.00  0.00    +0.000 N 
ATOM     32  C   UNL     1      54.911  -0.975  19.681  0.00  0.00    +0.000 A 
ATOM     33  O   UNL     1      54.737   0.123  20.198  0.00  0.00    +0.000 OA
ATOM     34  C   UNL     1      54.966  -1.202  18.250  0.00  0.00    +0.000 A 
ATOM     35  H   UNL     1      55.059  -1.970  21.446  0.00  0.00    +0.000 HD
ENDBRANCH  22  25
ENDBRANCH  20  21
ENDBRANCH   4  20
TORSDOF 7
ENDMDL
MODEL 5
REMARK VINA RESULT:    -6.786      4.422      9.320
REMARK INTER + INTRA:         -10.559
REMARK INTER:                  -9.600
REMARK INTRA:                  -0.959
REMARK UNBOUND:                -0.997
REMARK  Name = 
REMARK  7 active torsions:
REMARK  status: ('A' for Active; 'I' for Inactive)
REMARK    1  A    between atoms: C_2  and  C_3
REMARK    2  A    between atoms: C_7  and  C_8
REMARK    3  A    between atoms: N_10  and  C_11
REMARK    4  A    between atoms: C_11  and  C_12
REMARK    5  A    between atoms: C_15  and  C_16
REMARK    6  A    between atoms: C_16  and  N_17
REMARK    7  A    between atoms: C_18  and  C_20
REMARK                            x       y       z     vdW  Elec       q    Type
REMARK                         _______ _______ _______ _____ _____    ______ ____
ROOT
ATOM      1  C   UNL     1      49.046   4.859  17.393  0.00  0.00    +0.000 A 
ATOM      2  C   UNL     1      47.962   4.389  16.637  0.00  0.00    +0.000 A 
ATOM      3  C   UNL     1      47.571   5.038  15.457  0.00  0.00    +0.000 A 
ATOM      4  C   UNL     1      48.269   6.162  14.994  0.00  0.00    +0.000 A 
ATOM      5  C   UNL     1      49.341   6.641  15.759  0.00  0.00    +0.000 A 
ATOM      6  C   UNL     1      49.732   5.992  16.936  0.00  0.00    +0.000 A 
ENDROOT
BRANCH   1   7
ATOM      7  C   UNL     1      49.449   4.168  18.674  0.00  0.00    +0.000 C 
BRANCH   7  10
ATOM      8  C   UNL     1      51.120   2.561  17.829  0.00  0.00    +0.000 C 
ATOM      9  O   UNL     1      50.321   1.982  17.100  0.00  0.00    +0.000 OA
ATOM     10  N   UNL     1      50.791   3.638  18.629  0.00  0.00    +0.000 N 
ATOM     11  H   UNL     1      51.518   4.027  19.221  0.00  0.00    +0.000 HD
BRANCH   8  16
ATOM     12  C   UNL     1      54.061   0.401  18.219  0.00  0.00    +0.000 A 
ATOM     13  C   UNL     1      55.148   1.251  18.055  0.00  0.00    +0.000 A 
ATOM     14  C   UNL     1      54.901   2.598  17.803  0.00  0.00    +0.000 A 
ATOM     15  C   UNL     1      53.585   3.046  17.725  0.00  0.00    +0.000 A 
ATOM     16  C   UNL     1      52.556   2.125  17.902  0.00  0.00    +0.000 A 
ATOM     17  N   UNL     1      52.764   0.801  18.145  0.00  0.00    +0.000 NA
BRANCH  12  19
ATOM     18  N   UNL     1      54.395  -2.132  18.698  0.00  0.00    +0.000 NA
ATOM     19  C   UNL     1      54.265  -0.994  18.485  0.00  0.00    +0.000 C 
ENDBRANCH  12  19
ENDBRANCH   8  16
ENDBRANCH   7  10
ENDBRANCH   1   7
BRANCH   4  20
ATOM     20  C   UNL     1      47.877   6.857  13.711  0.00  0.00    +0.000 C 
BRANCH  20  21
ATOM     21  N   UNL     1      47.196   5.967  12.807  0.00  0.00    +0.000 N 
ATOM     22  C   UNL     1      46.287   6.439  11.888  0.00  0.00    +0.000 C 
ATOM     23  O   UNL     1      46.041   7.635  11.767  0.00  0.00    +0.000 OA
ATOM     24  H   UNL     1      47.169   4.987  13.062  0.00  0.00    +0.000 HD
BRANCH  22  25
ATOM     25  C   UNL     1      45.672   5.437  11.008  0.00  0.00    +0.000 A 
ATOM     26  C   UNL     1      45.794   5.554   9.630  0.00  0.00    +0.000 A 
ATOM     27  S   UNL     1      45.069   4.272   8.768  0.00  0.00    +0.000 S 
ATOM     28  C   UNL     1      44.519   3.544  10.205  0.00  0.00    +0.000 A 
ATOM     29  N   UNL     1      43.788   2.397  10.175  0.00  0.00    +0.000 NA
ATOM     30  C   UNL     1      43.412   1.975  11.337  0.00  0.00    +0.000 A 
ATOM     31  N   UNL     1      43.707   2.591  12.525  0.00  0.00    +0.000 N 
ATOM     32  C   UNL     1      44.466   3.733  12.605  0.00  0.00    +0.000 A 
ATOM     33  O   UNL     1      44.749   4.234  13.688  0.00  0.00    +0.000 OA
ATOM     34  C   UNL     1      44.902   4.258  11.326  0.00  0.00    +0.000 A 
ATOM     35  H   UNL     1      43.393   2.205  13.402  0.00  0.00    +0.000 HD
ENDBRANCH  22  25
ENDBRANCH  20  21
ENDBRANCH   4  20
TORSDOF 7
ENDMDL
MODEL 6
REMARK VINA RESULT:    -6.617      2.753      3.895
REMARK INTER + INTRA:         -10.322
REMARK INTER:                  -9.403
REMARK INTRA:                  -0.919
REMARK UNBOUND:                -0.997
REMARK  Name = 
REMARK  7 active torsions:
REMARK  status: ('A' for Active; 'I' for Inactive)
REMARK    1  A    between atoms: C_2  and  C_3
REMARK    2  A    between atoms: C_7  and  C_8
REMARK    3  A    between atoms: N_10  and  C_11
REMARK    4  A    between atoms: C_11  and  C_12
REMARK    5  A    between atoms: C_15  and  C_16
REMARK    6  A    between atoms: C_16  and  N_17
REMARK    7  A    between atoms: C_18  and  C_20
REMARK                            x       y       z     vdW  Elec       q    Type
REMARK                         _______ _______ _______ _____ _____    ______ ____
ROOT
ATOM      1  C   UNL     1      48.040   7.547  13.785  0.00  0.00    +0.000 A 
ATOM      2  C   UNL     1      47.978   6.268  14.358  0.00  0.00    +0.000 A 
ATOM      3  C   UNL     1      48.296   6.068  15.710  0.00  0.00    +0.000 A 
ATOM      4  C   UNL     1      48.666   7.146  16.524  0.00  0.00    +0.000 A 
ATOM      5  C   UNL     1      48.746   8.420  15.947  0.00  0.00    +0.000 A 
ATOM      6  C   UNL     1      48.424   8.621  14.598  0.00  0.00    +0.000 A 
ENDROOT
BRANCH   1   7
ATOM      7  C   UNL     1      47.714   7.752  12.325  0.00  0.00    +0.000 C 
BRANCH   7  10
ATOM      8  C   UNL     1      45.721   6.623  11.408  0.00  0.00    +0.000 C 
ATOM      9  O   UNL     1      44.984   7.587  11.593  0.00  0.00    +0.000 OA
ATOM     10  N   UNL     1      47.065   6.610  11.728  0.00  0.00    +0.000 N 
ATOM     11  H   UNL     1      47.581   5.750  11.565  0.00  0.00    +0.000 HD
BRANCH   8  16
ATOM     12  C   UNL     1      45.189   3.901   9.006  0.00  0.00    +0.000 A 
ATOM     13  C   UNL     1      44.276   3.057   9.625  0.00  0.00    +0.000 A 
ATOM     14  C   UNL     1      43.815   3.399  10.894  0.00  0.00    +0.000 A 
ATOM     15  C   UNL     1      44.278   4.566  11.494  0.00  0.00    +0.000 A 
ATOM     16  C   UNL     1      45.194   5.353  10.802  0.00  0.00    +0.000 A 
ATOM     17  N   UNL     1      45.667   5.045   9.563  0.00  0.00    +0.000 NA
BRANCH  12  19
ATOM     18  N   UNL     1      46.094   3.307   6.643  0.00  0.00    +0.000 NA
ATOM     19  C   UNL     1      45.689   3.593   7.697  0.00  0.00    +0.000 C 
ENDBRANCH  12  19
ENDBRANCH   8  16
ENDBRANCH   7  10
ENDBRANCH   1   7
BRANCH   4  20
ATOM     20  C   UNL     1      48.988   6.951  17.988  0.00  0.00    +0.000 C 
BRANCH  20  21
ATOM     21  N   UNL     1      49.927   5.878  18.191  0.00  0.00    +0.000 N 
ATOM     22  C   UNL     1      51.261   6.029  17.893  0.00  0.00    +0.000 C 
ATOM     23  O   UNL     1      51.723   7.088  17.478  0.00  0.00    +0.000 OA
ATOM     24  H   UNL     1      49.544   4.943  18.263  0.00  0.00    +0.000 HD
BRANCH  22  25
ATOM     25  C   UNL     1      52.122   4.871  18.161  0.00  0.00    +0.000 A 
ATOM     26  C   UNL     1      53.392   5.057  18.691  0.00  0.00    +0.000 A 
ATOM     27  S   UNL     1      54.229   3.600  18.991  0.00  0.00    +0.000 S 
ATOM     28  C   UNL     1      52.943   2.671  18.372  0.00  0.00    +0.000 A 
ATOM     29  N   UNL     1      53.023   1.314  18.313  0.00  0.00    +0.000 NA
ATOM     30  C   UNL     1      51.988   0.742  17.792  0.00  0.00    +0.000 A 
ATOM     31  N   UNL     1      50.879   1.403  17.332  0.00  0.00    +0.000 N 
ATOM     32  C   UNL     1      50.743   2.768  17.398  0.00  0.00    +0.000 A 
ATOM     33  O   UNL     1      49.718   3.324  17.018  0.00  0.00    +0.000 OA
ATOM     34  C   UNL     1      51.884   3.461  17.962  0.00  0.00    +0.000 A 
ATOM     35  H   UNL     1      50.097   0.897  16.945  0.00  0.00    +0.000 HD
ENDBRANCH  22  25
ENDBRANCH  20  21
ENDBRANCH   4  20
TORSDOF 7
ENDMDL
MODEL 7
REMARK VINA RESULT:    -6.243      3.575      4.898
REMARK INTER + INTRA:          -9.794
REMARK INTER:                  -8.677
REMARK INTRA:                  -1.117
REMARK UNBOUND:                -0.997
REMARK  Name = 
REMARK  7 active torsions:
REMARK  status: ('A' for Active; 'I' for Inactive)
REMARK    1  A    between atoms: C_2  and  C_3
REMARK    2  A    between atoms: C_7  and  C_8
REMARK    3  A    between atoms: N_10  and  C_11
REMARK    4  A    between atoms: C_11  and  C_12
REMARK    5  A    between atoms: C_15  and  C_16
REMARK    6  A    between atoms: C_16  and  N_17
REMARK    7  A    between atoms: C_18  and  C_20
REMARK                            x       y       z     vdW  Elec       q    Type
REMARK                         _______ _______ _______ _____ _____    ______ ____
ROOT
ATOM      1  C   UNL     1      46.249   4.805  13.331  0.00  0.00    +0.000 A 
ATOM      2  C   UNL     1      46.746   4.389  14.574  0.00  0.00    +0.000 A 
ATOM      3  C   UNL     1      47.710   5.147  15.255  0.00  0.00    +0.000 A 
ATOM      4  C   UNL     1      48.185   6.350  14.716  0.00  0.00    +0.000 A 
ATOM      5  C   UNL     1      47.702   6.756  13.465  0.00  0.00    +0.000 A 
ATOM      6  C   UNL     1      46.737   6.001  12.787  0.00  0.00    +0.000 A 
ENDROOT
BRANCH   1   7
ATOM      7  C   UNL     1      45.225   3.975  12.594  0.00  0.00    +0.000 C 
BRANCH   7  10
ATOM      8  C   UNL     1      44.983   3.856  10.141  0.00  0.00    +0.000 C 
ATOM      9  O   UNL     1      43.946   4.513  10.126  0.00  0.00    +0.000 OA
ATOM     10  N   UNL     1      45.680   3.547  11.292  0.00  0.00    +0.000 N 
ATOM     11  H   UNL     1      46.511   2.969  11.201  0.00  0.00    +0.000 HD
BRANCH   8  16
ATOM     12  C   UNL     1      46.351   1.505   7.678  0.00  0.00    +0.000 A 
ATOM     13  C   UNL     1      46.679   2.293   6.582  0.00  0.00    +0.000 A 
ATOM     14  C   UNL     1      46.437   3.662   6.656  0.00  0.00    +0.000 A 
ATOM     15  C   UNL     1      45.880   4.193   7.816  0.00  0.00    +0.000 A 
ATOM     16  C   UNL     1      45.582   3.330   8.867  0.00  0.00    +0.000 A 
ATOM     17  N   UNL     1      45.803   1.987   8.824  0.00  0.00    +0.000 NA
BRANCH  12  19
ATOM     18  N   UNL     1      46.779  -1.057   7.592  0.00  0.00    +0.000 NA
ATOM     19  C   UNL     1      46.586   0.090   7.651  0.00  0.00    +0.000 C 
ENDBRANCH  12  19
ENDBRANCH   8  16
ENDBRANCH   7  10
ENDBRANCH   1   7
BRANCH   4  20
ATOM     20  C   UNL     1      49.205   7.191  15.449  0.00  0.00    +0.000 C 
BRANCH  20  21
ATOM     21  N   UNL     1      50.402   7.378  14.671  0.00  0.00    +0.000 N 
ATOM     22  C   UNL     1      50.992   8.616  14.552  0.00  0.00    +0.000 C 
ATOM     23  O   UNL     1      50.553   9.607  15.129  0.00  0.00    +0.000 OA
ATOM     24  H   UNL     1      50.618   6.666  13.983  0.00  0.00    +0.000 HD
BRANCH  22  25
ATOM     25  C   UNL     1      52.218   8.677  13.748  0.00  0.00    +0.000 A 
ATOM     26  C   UNL     1      53.418   9.052  14.339  0.00  0.00    +0.000 A 
ATOM     27  S   UNL     1      54.748   9.012  13.270  0.00  0.00    +0.000 S 
ATOM     28  C   UNL     1      53.757   8.544  11.968  0.00  0.00    +0.000 A 
ATOM     29  N   UNL     1      54.276   8.358  10.723  0.00  0.00    +0.000 NA
ATOM     30  C   UNL     1      53.404   8.036   9.826  0.00  0.00    +0.000 A 
ATOM     31  N   UNL     1      52.063   7.876  10.061  0.00  0.00    +0.000 N 
ATOM     32  C   UNL     1      51.501   8.024  11.306  0.00  0.00    +0.000 A 
ATOM     33  O   UNL     1      50.305   7.830  11.490  0.00  0.00    +0.000 OA
ATOM     34  C   UNL     1      52.435   8.401  12.348  0.00  0.00    +0.000 A 
ATOM     35  H   UNL     1      51.434   7.612   9.318  0.00  0.00    +0.000 HD
ENDBRANCH  22  25
ENDBRANCH  20  21
ENDBRANCH   4  20
TORSDOF 7
ENDMDL
MODEL 8
REMARK VINA RESULT:    -6.182      3.597      5.627
REMARK INTER + INTRA:          -9.709
REMARK INTER:                  -8.701
REMARK INTRA:                  -1.008
REMARK UNBOUND:                -0.997
REMARK  Name = 
REMARK  7 active torsions:
REMARK  status: ('A' for Active; 'I' for Inactive)
REMARK    1  A    between atoms: C_2  and  C_3
REMARK    2  A    between atoms: C_7  and  C_8
REMARK    3  A    between atoms: N_10  and  C_11
REMARK    4  A    between atoms: C_11  and  C_12
REMARK    5  A    between atoms: C_15  and  C_16
REMARK    6  A    between atoms: C_16  and  N_17
REMARK    7  A    between atoms: C_18  and  C_20
REMARK                            x       y       z     vdW  Elec       q    Type
REMARK                         _______ _______ _______ _____ _____    ______ ____
ROOT
ATOM      1  C   UNL     1      48.646   6.741  15.783  0.00  0.00    +0.000 A 
ATOM      2  C   UNL     1      49.395   7.552  16.649  0.00  0.00    +0.000 A 
ATOM      3  C   UNL     1      49.778   7.090  17.917  0.00  0.00    +0.000 A 
ATOM      4  C   UNL     1      49.436   5.799  18.341  0.00  0.00    +0.000 A 
ATOM      5  C   UNL     1      48.673   4.997  17.483  0.00  0.00    +0.000 A 
ATOM      6  C   UNL     1      48.293   5.457  16.215  0.00  0.00    +0.000 A 
ENDROOT
BRANCH   1   7
ATOM      7  C   UNL     1      48.221   7.252  14.427  0.00  0.00    +0.000 C 
BRANCH   7  10
ATOM      8  C   UNL     1      46.863   6.445  12.531  0.00  0.00    +0.000 C 
ATOM      9  O   UNL     1      47.602   6.935  11.682  0.00  0.00    +0.000 OA
ATOM     10  N   UNL     1      47.083   6.542  13.891  0.00  0.00    +0.000 N 
ATOM     11  H   UNL     1      46.394   6.130  14.512  0.00  0.00    +0.000 HD
BRANCH   8  16
ATOM     12  C   UNL     1      44.503   4.509  10.495  0.00  0.00    +0.000 A 
ATOM     13  C   UNL     1      43.416   4.284  11.332  0.00  0.00    +0.000 A 
ATOM     14  C   UNL     1      43.464   4.793  12.628  0.00  0.00    +0.000 A 
ATOM     15  C   UNL     1      44.587   5.504  13.038  0.00  0.00    +0.000 A 
ATOM     16  C   UNL     1      45.631   5.682  12.134  0.00  0.00    +0.000 A 
ATOM     17  N   UNL     1      45.617   5.195  10.862  0.00  0.00    +0.000 NA
BRANCH  12  19
ATOM     18  N   UNL     1      44.473   3.575   8.070  0.00  0.00    +0.000 NA
ATOM     19  C   UNL     1      44.497   4.009   9.150  0.00  0.00    +0.000 C 
ENDBRANCH  12  19
ENDBRANCH   8  16
ENDBRANCH   7  10
ENDBRANCH   1   7
BRANCH   4  20
ATOM     20  C   UNL     1      49.862   5.278  19.694  0.00  0.00    +0.000 C 
BRANCH  20  21
ATOM     21  N   UNL     1      50.903   4.289  19.583  0.00  0.00    +0.000 N 
ATOM     22  C   UNL     1      52.222   4.652  19.438  0.00  0.00    +0.000 C 
ATOM     23  O   UNL     1      52.581   5.825  19.434  0.00  0.00    +0.000 OA
ATOM     24  H   UNL     1      50.620   3.355  19.311  0.00  0.00    +0.000 HD
BRANCH  22  25
ATOM     25  C   UNL     1      53.193   3.554  19.354  0.00  0.00    +0.000 A 
ATOM     26  C   UNL     1      54.377   3.616  20.077  0.00  0.00    +0.000 A 
ATOM     27  S   UNL     1      55.357   2.230  19.905  0.00  0.00    +0.000 S 
ATOM     28  C   UNL     1      54.258   1.521  18.816  0.00  0.00    +0.000 A 
ATOM     29  N   UNL     1      54.511   0.308  18.254  0.00  0.00    +0.000 NA
ATOM     30  C   UNL     1      53.607  -0.094  17.423  0.00  0.00    +0.000 A 
ATOM     31  N   UNL     1      52.470   0.605  17.108  0.00  0.00    +0.000 N 
ATOM     32  C   UNL     1      52.160   1.818  17.672  0.00  0.00    +0.000 A 
ATOM     33  O   UNL     1      51.112   2.396  17.402  0.00  0.00    +0.000 OA
ATOM     34  C   UNL     1      53.151   2.322  18.603  0.00  0.00    +0.000 A 
ATOM     35  H   UNL     1      51.795   0.232  16.458  0.00  0.00    +0.000 HD
ENDBRANCH  22  25
ENDBRANCH  20  21
ENDBRANCH   4  20
TORSDOF 7
ENDMDL
MODEL 9
REMARK VINA RESULT:    -6.028      4.164      6.837
REMARK INTER + INTRA:          -9.492
REMARK INTER:                  -8.165
REMARK INTRA:                  -1.327
REMARK UNBOUND:                -0.997
REMARK  Name = 
REMARK  7 active torsions:
REMARK  status: ('A' for Active; 'I' for Inactive)
REMARK    1  A    between atoms: C_2  and  C_3
REMARK    2  A    between atoms: C_7  and  C_8
REMARK    3  A    between atoms: N_10  and  C_11
REMARK    4  A    between atoms: C_11  and  C_12
REMARK    5  A    between atoms: C_15  and  C_16
REMARK    6  A    between atoms: C_16  and  N_17
REMARK    7  A    between atoms: C_18  and  C_20
REMARK                            x       y       z     vdW  Elec       q    Type
REMARK                         _______ _______ _______ _____ _____    ______ ____
ROOT
ATOM      1  C   UNL     1      48.474   3.878  17.855  0.00  0.00    +0.000 A 
ATOM      2  C   UNL     1      48.543   4.822  18.890  0.00  0.00    +0.000 A 
ATOM      3  C   UNL     1      49.773   5.172  19.466  0.00  0.00    +0.000 A 
ATOM      4  C   UNL     1      50.966   4.600  19.005  0.00  0.00    +0.000 A 
ATOM      5  C   UNL     1      50.895   3.644  17.983  0.00  0.00    +0.000 A 
ATOM      6  C   UNL     1      49.667   3.297  17.406  0.00  0.00    +0.000 A 
ENDROOT
BRANCH   1   7
ATOM      7  C   UNL     1      47.144   3.491  17.253  0.00  0.00    +0.000 C 
BRANCH   7  10
ATOM      8  C   UNL     1      47.013   4.001  14.842  0.00  0.00    +0.000 C 
ATOM      9  O   UNL     1      47.576   2.964  14.505  0.00  0.00    +0.000 OA
ATOM     10  N   UNL     1      46.754   4.344  16.155  0.00  0.00    +0.000 N 
ATOM     11  H   UNL     1      46.313   5.241  16.331  0.00  0.00    +0.000 HD
BRANCH   8  16
ATOM     12  C   UNL     1      44.828   5.797  12.506  0.00  0.00    +0.000 A 
ATOM     13  C   UNL     1      45.639   6.777  11.946  0.00  0.00    +0.000 A 
ATOM     14  C   UNL     1      46.967   6.851  12.359  0.00  0.00    +0.000 A 
ATOM     15  C   UNL     1      47.435   5.948  13.308  0.00  0.00    +0.000 A 
ATOM     16  C   UNL     1      46.553   4.998  13.817  0.00  0.00    +0.000 A 
ATOM     17  N   UNL     1      45.249   4.902  13.437  0.00  0.00    +0.000 NA
BRANCH  12  19
ATOM     18  N   UNL     1      42.329   5.590  11.820  0.00  0.00    +0.000 NA
ATOM     19  C   UNL     1      43.454   5.679  12.108  0.00  0.00    +0.000 C 
ENDBRANCH  12  19
ENDBRANCH   8  16
ENDBRANCH   7  10
ENDBRANCH   1   7
BRANCH   4  20
ATOM     20  C   UNL     1      52.302   4.985  19.597  0.00  0.00    +0.000 C 
BRANCH  20  21
ATOM     21  N   UNL     1      53.048   5.848  18.718  0.00  0.00    +0.000 N 
ATOM     22  C   UNL     1      53.065   7.211  18.900  0.00  0.00    +0.000 C 
ATOM     23  O   UNL     1      52.482   7.754  19.833  0.00  0.00    +0.000 OA
ATOM     24  H   UNL     1      53.299   5.472  17.811  0.00  0.00    +0.000 HD
BRANCH  22  25
ATOM     25  C   UNL     1      53.877   7.983  17.951  0.00  0.00    +0.000 A 
ATOM     26  C   UNL     1      54.901   8.799  18.415  0.00  0.00    +0.000 A 
ATOM     27  S   UNL     1      55.775   9.574  17.171  0.00  0.00    +0.000 S 
ATOM     28  C   UNL     1      54.780   8.890  15.971  0.00  0.00    +0.000 A 
ATOM     29  N   UNL     1      54.974   9.172  14.654  0.00  0.00    +0.000 NA
ATOM     30  C   UNL     1      54.127   8.609  13.858  0.00  0.00    +0.000 A 
ATOM     31  N   UNL     1      53.108   7.784  14.259  0.00  0.00    +0.000 N 
ATOM     32  C   UNL     1      52.893   7.448  15.573  0.00  0.00    +0.000 A 
ATOM     33  O   UNL     1      52.000   6.670  15.893  0.00  0.00    +0.000 OA
ATOM     34  C   UNL     1      53.809   8.066  16.512  0.00  0.00    +0.000 A 
ATOM     35  H   UNL     1      52.485   7.364  13.586  0.00  0.00    +0.000 HD
ENDBRANCH  22  25
ENDBRANCH  20  21
ENDBRANCH   4  20
TORSDOF 7
ENDMDL
