MODEL 1
REMARK VINA RESULT:    -7.888      0.000      0.000
REMARK INTER + INTRA:         -12.289
REMARK INTER:                 -11.116
REMARK INTRA:                  -1.173
REMARK UNBOUND:                -1.173
REMARK  Name = 
REMARK  8 active torsions:
REMARK  status: ('A' for Active; 'I' for Inactive)
REMARK    1  A    between atoms: C_1  and  C_2
REMARK    2  A    between atoms: C_2  and  N_3
REMARK    3  A    between atoms: N_3  and  C_4
REMARK    4  A    between atoms: C_4  and  C_5
REMARK    5  A    between atoms: C_8  and  C_9
REMARK    6  A    between atoms: C_9  and  N_10
REMARK    7  A    between atoms: C_11  and  C_13
REMARK    8  A    between atoms: C_25  and  C_27
REMARK                            x       y       z     vdW  Elec       q    Type
REMARK                         _______ _______ _______ _____ _____    ______ ____
ROOT
ATOM      1  C   UNL     1      45.207   6.645  11.022  0.00  0.00    +0.000 A 
ATOM      2  C   UNL     1      44.773   7.825  11.644  0.00  0.00    +0.000 A 
ATOM      3  C   UNL     1      45.598   8.503  12.541  0.00  0.00    +0.000 A 
ATOM      4  C   UNL     1      46.885   8.025  12.817  0.00  0.00    +0.000 A 
ATOM      5  C   UNL     1      47.350   6.896  12.129  0.00  0.00    +0.000 A 
ATOM      6  C   UNL     1      46.522   6.214  11.230  0.00  0.00    +0.000 A 
ENDROOT
BRANCH   1   7
ATOM      7  C   UNL     1      44.196   5.750  10.350  0.00  0.00    +0.000 C 
BRANCH   7   8
ATOM      8  N   UNL     1      43.628   4.587  11.026  0.00  0.00    +0.000 N 
ATOM      9  C   UNL     1      43.836   3.284  10.516  0.00  0.00    +0.000 C 
ATOM     10  O   UNL     1      43.268   2.317  11.027  0.00  0.00    +0.000 OA
BRANCH   9  11
ATOM     11  C   UNL     1      44.711   3.101   9.358  0.00  0.00    +0.000 A 
ATOM     12  C   UNL     1      44.874   3.865   8.215  0.00  0.00    +0.000 A 
ATOM     13  C   UNL     1      45.849   3.222   7.413  0.00  0.00    +0.000 A 
ATOM     14  C   UNL     1      46.202   2.078   8.088  0.00  0.00    +0.000 A 
ATOM     15  O   UNL     1      45.508   1.989   9.246  0.00  0.00    +0.000 OA
ENDBRANCH   9  11
BRANCH   8  17
ATOM     16  C   UNL     1      43.866   4.534  13.504  0.00  0.00    +0.000 C 
ATOM     17  C   UNL     1      42.941   4.725  12.309  0.00  0.00    +0.000 C 
ENDBRANCH   8  17
ENDBRANCH   7   8
ENDBRANCH   1   7
BRANCH   4  18
ATOM     18  C   UNL     1      47.715   8.648  13.909  0.00  0.00    +0.000 C 
BRANCH  18  19
ATOM     19  N   UNL     1      47.894   7.734  15.015  0.00  0.00    +0.000 N 
ATOM     20  C   UNL     1      49.119   7.172  15.273  0.00  0.00    +0.000 C 
ATOM     21  O   UNL     1      50.109   7.454  14.602  0.00  0.00    +0.000 OA
ATOM     22  H   UNL     1      47.059   7.338  15.439  0.00  0.00    +0.000 HD
BRANCH  20  23
ATOM     23  C   UNL     1      49.215   6.263  16.422  0.00  0.00    +0.000 A 
ATOM     24  C   UNL     1      50.148   6.521  17.419  0.00  0.00    +0.000 A 
ATOM     25  S   UNL     1      50.118   5.398  18.701  0.00  0.00    +0.000 S 
ATOM     26  C   UNL     1      48.891   4.493  17.947  0.00  0.00    +0.000 A 
ATOM     27  N   UNL     1      48.416   3.353  18.518  0.00  0.00    +0.000 NA
ATOM     28  C   UNL     1      47.517   2.743  17.822  0.00  0.00    +0.000 A 
ATOM     29  N   UNL     1      47.041   3.174  16.612  0.00  0.00    +0.000 N 
ATOM     30  C   UNL     1      47.462   4.344  16.018  0.00  0.00    +0.000 A 
ATOM     31  O   UNL     1      46.974   4.733  14.965  0.00  0.00    +0.000 OA
ATOM     32  C   UNL     1      48.492   5.056  16.747  0.00  0.00    +0.000 A 
ATOM     33  H   UNL     1      46.328   2.656  16.123  0.00  0.00    +0.000 HD
ENDBRANCH  20  23
ENDBRANCH  18  19
ENDBRANCH   4  18
TORSDOF 7
ENDMDL
MODEL 2
REMARK VINA RESULT:    -7.586      2.117      2.459
REMARK INTER + INTRA:         -11.863
REMARK INTER:                 -11.448
REMARK INTRA:                  -0.415
REMARK UNBOUND:                -1.173
REMARK  Name = 
REMARK  8 active torsions:
REMARK  status: ('A' for Active; 'I' for Inactive)
REMARK    1  A    between atoms: C_1  and  C_2
REMARK    2  A    between atoms: C_2  and  N_3
REMARK    3  A    between atoms: N_3  and  C_4
REMARK    4  A    between atoms: C_4  and  C_5
REMARK    5  A    between atoms: C_8  and  C_9
REMARK    6  A    between atoms: C_9  and  N_10
REMARK    7  A    between atoms: C_11  and  C_13
REMARK    8  A    between atoms: C_25  and  C_27
REMARK                            x       y       z     vdW  Elec       q    Type
REMARK                         _______ _______ _______ _____ _____    ______ ____
ROOT
ATOM      1  C   UNL     1      46.505   5.698  12.061  0.00  0.00    +0.000 A 
ATOM      2  C   UNL     1      47.120   6.950  11.905  0.00  0.00    +0.000 A 
ATOM      3  C   UNL     1      47.887   7.500  12.933  0.00  0.00    +0.000 A 
ATOM      4  C   UNL     1      48.072   6.798  14.130  0.00  0.00    +0.000 A 
ATOM      5  C   UNL     1      47.530   5.510  14.251  0.00  0.00    +0.000 A 
ATOM      6  C   UNL     1      46.759   4.958  13.222  0.00  0.00    +0.000 A 
ENDROOT
BRANCH   1   7
ATOM      7  C   UNL     1      45.411   5.290  11.106  0.00  0.00    +0.000 C 
BRANCH   7   8
ATOM      8  N   UNL     1      44.456   4.237  11.436  0.00  0.00    +0.000 N 
ATOM      9  C   UNL     1      44.219   3.171  10.537  0.00  0.00    +0.000 C 
ATOM     10  O   UNL     1      43.336   2.343  10.770  0.00  0.00    +0.000 OA
BRANCH   9  11
ATOM     11  C   UNL     1      45.017   3.077   9.314  0.00  0.00    +0.000 A 
ATOM     12  C   UNL     1      45.221   3.989   8.292  0.00  0.00    +0.000 A 
ATOM     13  C   UNL     1      46.078   3.377   7.345  0.00  0.00    +0.000 A 
ATOM     14  C   UNL     1      46.320   2.108   7.816  0.00  0.00    +0.000 A 
ATOM     15  O   UNL     1      45.670   1.915   8.986  0.00  0.00    +0.000 OA
ENDBRANCH   9  11
BRANCH   8  17
ATOM     16  C   UNL     1      42.785   5.292  12.951  0.00  0.00    +0.000 C 
ATOM     17  C   UNL     1      43.814   4.188  12.749  0.00  0.00    +0.000 C 
ENDBRANCH   8  17
ENDBRANCH   7   8
ENDBRANCH   1   7
BRANCH   4  18
ATOM     18  C   UNL     1      48.749   7.453  15.306  0.00  0.00    +0.000 C 
BRANCH  18  19
ATOM     19  N   UNL     1      49.808   6.619  15.830  0.00  0.00    +0.000 N 
ATOM     20  C   UNL     1      49.657   5.958  17.022  0.00  0.00    +0.000 C 
ATOM     21  O   UNL     1      48.611   6.019  17.663  0.00  0.00    +0.000 OA
ATOM     22  H   UNL     1      50.735   6.724  15.425  0.00  0.00    +0.000 HD
BRANCH  20  23
ATOM     23  C   UNL     1      50.777   5.124  17.477  0.00  0.00    +0.000 A 
ATOM     24  C   UNL     1      51.900   5.731  18.027  0.00  0.00    +0.000 A 
ATOM     25  S   UNL     1      53.099   4.633  18.538  0.00  0.00    +0.000 S 
ATOM     26  C   UNL     1      52.185   3.304  17.996  0.00  0.00    +0.000 A 
ATOM     27  N   UNL     1      52.667   2.037  18.107  0.00  0.00    +0.000 NA
ATOM     28  C   UNL     1      51.892   1.128  17.621  0.00  0.00    +0.000 A 
ATOM     29  N   UNL     1      50.673   1.369  17.043  0.00  0.00    +0.000 N 
ATOM     30  C   UNL     1      50.127   2.630  16.949  0.00  0.00    +0.000 A 
ATOM     31  O   UNL     1      49.010   2.806  16.481  0.00  0.00    +0.000 OA
ATOM     32  C   UNL     1      50.971   3.693  17.457  0.00  0.00    +0.000 A 
ATOM     33  H   UNL     1      50.109   0.610  16.692  0.00  0.00    +0.000 HD
ENDBRANCH  20  23
ENDBRANCH  18  19
ENDBRANCH   4  18
TORSDOF 7
ENDMDL
MODEL 3
REMARK VINA RESULT:    -7.405      3.189      7.872
REMARK INTER + INTRA:         -11.608
REMARK INTER:                  -9.952
REMARK INTRA:                  -1.656
REMARK UNBOUND:                -1.173
REMARK  Name = 
REMARK  8 active torsions:
REMARK  status: ('A' for Active; 'I' for Inactive)
REMARK    1  A    between atoms: C_1  and  C_2
REMARK    2  A    between atoms: C_2  and  N_3
REMARK    3  A    between atoms: N_3  and  C_4
REMARK    4  A    between atoms: C_4  and  C_5
REMARK    5  A    between atoms: C_8  and  C_9
REMARK    6  A    between atoms: C_9  and  N_10
REMARK    7  A    between atoms: C_11  and  C_13
REMARK    8  A    between atoms: C_25  and  C_27
REMARK                            x       y       z     vdW  Elec       q    Type
REMARK                         _______ _______ _______ _____ _____    ______ ____
ROOT
ATOM      1  C   UNL     1      50.649   5.775  17.883  0.00  0.00    +0.000 A 
ATOM      2  C   UNL     1      51.295   6.117  16.684  0.00  0.00    +0.000 A 
ATOM      3  C   UNL     1      50.656   6.915  15.734  0.00  0.00    +0.000 A 
ATOM      4  C   UNL     1      49.367   7.405  15.974  0.00  0.00    +0.000 A 
ATOM      5  C   UNL     1      48.758   7.135  17.208  0.00  0.00    +0.000 A 
ATOM      6  C   UNL     1      49.397   6.333  18.161  0.00  0.00    +0.000 A 
ENDROOT
BRANCH   1   7
ATOM      7  C   UNL     1      51.196   4.644  18.717  0.00  0.00    +0.000 C 
BRANCH   7   8
ATOM      8  N   UNL     1      51.649   3.392  18.116  0.00  0.00    +0.000 N 
ATOM      9  C   UNL     1      50.727   2.511  17.506  0.00  0.00    +0.000 C 
ATOM     10  O   UNL     1      51.096   1.409  17.095  0.00  0.00    +0.000 OA
BRANCH   9  11
ATOM     11  C   UNL     1      49.324   2.910  17.391  0.00  0.00    +0.000 A 
ATOM     12  C   UNL     1      48.283   2.835  18.301  0.00  0.00    +0.000 A 
ATOM     13  C   UNL     1      47.128   3.355  17.667  0.00  0.00    +0.000 A 
ATOM     14  C   UNL     1      47.514   3.683  16.388  0.00  0.00    +0.000 A 
ATOM     15  O   UNL     1      48.825   3.400  16.210  0.00  0.00    +0.000 OA
ENDBRANCH   9  11
BRANCH   8  17
ATOM     16  C   UNL     1      53.765   3.017  19.372  0.00  0.00    +0.000 C 
ATOM     17  C   UNL     1      53.074   3.079  18.017  0.00  0.00    +0.000 C 
ENDBRANCH   8  17
ENDBRANCH   7   8
ENDBRANCH   1   7
BRANCH   4  18
ATOM     18  C   UNL     1      48.605   8.119  14.888  0.00  0.00    +0.000 C 
BRANCH  18  19
ATOM     19  N   UNL     1      47.524   7.301  14.385  0.00  0.00    +0.000 N 
ATOM     20  C   UNL     1      47.741   6.380  13.392  0.00  0.00    +0.000 C 
ATOM     21  O   UNL     1      48.862   6.191  12.925  0.00  0.00    +0.000 OA
ATOM     22  H   UNL     1      46.574   7.586  14.609  0.00  0.00    +0.000 HD
BRANCH  20  23
ATOM     23  C   UNL     1      46.591   5.584  12.947  0.00  0.00    +0.000 A 
ATOM     24  C   UNL     1      46.630   4.200  13.073  0.00  0.00    +0.000 A 
ATOM     25  S   UNL     1      45.210   3.418  12.545  0.00  0.00    +0.000 S 
ATOM     26  C   UNL     1      44.508   4.896  12.079  0.00  0.00    +0.000 A 
ATOM     27  N   UNL     1      43.275   4.930  11.506  0.00  0.00    +0.000 NA
ATOM     28  C   UNL     1      42.878   6.110  11.165  0.00  0.00    +0.000 A 
ATOM     29  N   UNL     1      43.599   7.260  11.353  0.00  0.00    +0.000 N 
ATOM     30  C   UNL     1      44.832   7.277  11.967  0.00  0.00    +0.000 A 
ATOM     31  O   UNL     1      45.424   8.328  12.175  0.00  0.00    +0.000 OA
ATOM     32  C   UNL     1      45.336   5.973  12.348  0.00  0.00    +0.000 A 
ATOM     33  H   UNL     1      43.226   8.154  11.072  0.00  0.00    +0.000 HD
ENDBRANCH  20  23
ENDBRANCH  18  19
ENDBRANCH   4  18
TORSDOF 7
ENDMDL
MODEL 4
REMARK VINA RESULT:    -7.033      2.964      7.828
REMARK INTER + INTRA:         -11.083
REMARK INTER:                  -9.344
REMARK INTRA:                  -1.739
REMARK UNBOUND:                -1.173
REMARK  Name = 
REMARK  8 active torsions:
REMARK  status: ('A' for Active; 'I' for Inactive)
REMARK    1  A    between atoms: C_1  and  C_2
REMARK    2  A    between atoms: C_2  and  N_3
REMARK    3  A    between atoms: N_3  and  C_4
REMARK    4  A    between atoms: C_4  and  C_5
REMARK    5  A    between atoms: C_8  and  C_9
REMARK    6  A    between atoms: C_9  and  N_10
REMARK    7  A    between atoms: C_11  and  C_13
REMARK    8  A    between atoms: C_25  and  C_27
REMARK                            x       y       z     vdW  Elec       q    Type
REMARK                         _______ _______ _______ _____ _____    ______ ____
ROOT
ATOM      1  C   UNL     1      49.053   7.583  15.964  0.00  0.00    +0.000 A 
ATOM      2  C   UNL     1      49.375   6.657  14.960  0.00  0.00    +0.000 A 
ATOM      3  C   UNL     1      48.839   6.780  13.678  0.00  0.00    +0.000 A 
ATOM      4  C   UNL     1      47.985   7.846  13.369  0.00  0.00    +0.000 A 
ATOM      5  C   UNL     1      47.734   8.819  14.347  0.00  0.00    +0.000 A 
ATOM      6  C   UNL     1      48.270   8.695  15.634  0.00  0.00    +0.000 A 
ENDROOT
BRANCH   1   7
ATOM      7  C   UNL     1      49.345   7.242  17.404  0.00  0.00    +0.000 C 
BRANCH   7   8
ATOM      8  N   UNL     1      48.287   7.169  18.408  0.00  0.00    +0.000 N 
ATOM      9  C   UNL     1      47.598   5.957  18.643  0.00  0.00    +0.000 C 
ATOM     10  O   UNL     1      46.636   5.926  19.413  0.00  0.00    +0.000 OA
BRANCH   9  11
ATOM     11  C   UNL     1      48.024   4.745  17.942  0.00  0.00    +0.000 A 
ATOM     12  C   UNL     1      47.475   4.086  16.855  0.00  0.00    +0.000 A 
ATOM     13  C   UNL     1      48.286   2.955  16.592  0.00  0.00    +0.000 A 
ATOM     14  C   UNL     1      49.265   2.958  17.558  0.00  0.00    +0.000 A 
ATOM     15  O   UNL     1      49.101   4.018  18.383  0.00  0.00    +0.000 OA
ENDBRANCH   9  11
BRANCH   8  17
ATOM     16  C   UNL     1      49.200   9.223  19.480  0.00  0.00    +0.000 C 
ATOM     17  C   UNL     1      47.999   8.308  19.279  0.00  0.00    +0.000 C 
ENDBRANCH   8  17
ENDBRANCH   7   8
ENDBRANCH   1   7
BRANCH   4  18
ATOM     18  C   UNL     1      47.266   7.892  12.046  0.00  0.00    +0.000 C 
BRANCH  18  19
ATOM     19  N   UNL     1      46.660   6.616  11.736  0.00  0.00    +0.000 N 
ATOM     20  C   UNL     1      45.300   6.447  11.805  0.00  0.00    +0.000 C 
ATOM     21  O   UNL     1      44.551   7.378  12.093  0.00  0.00    +0.000 OA
ATOM     22  H   UNL     1      47.268   5.802  11.702  0.00  0.00    +0.000 HD
BRANCH  20  23
ATOM     23  C   UNL     1      44.767   5.122  11.465  0.00  0.00    +0.000 A 
ATOM     24  C   UNL     1      44.012   4.429  12.404  0.00  0.00    +0.000 A 
ATOM     25  S   UNL     1      43.436   2.924  11.852  0.00  0.00    +0.000 S 
ATOM     26  C   UNL     1      44.216   3.116  10.353  0.00  0.00    +0.000 A 
ATOM     27  N   UNL     1      44.150   2.143   9.405  0.00  0.00    +0.000 NA
ATOM     28  C   UNL     1      44.820   2.400   8.332  0.00  0.00    +0.000 A 
ATOM     29  N   UNL     1      45.541   3.545   8.116  0.00  0.00    +0.000 N 
ATOM     30  C   UNL     1      45.600   4.574   9.031  0.00  0.00    +0.000 A 
ATOM     31  O   UNL     1      46.203   5.610   8.784  0.00  0.00    +0.000 OA
ATOM     32  C   UNL     1      44.885   4.325  10.267  0.00  0.00    +0.000 A 
ATOM     33  H   UNL     1      46.034   3.688   7.248  0.00  0.00    +0.000 HD
ENDBRANCH  20  23
ENDBRANCH  18  19
ENDBRANCH   4  18
TORSDOF 7
ENDMDL
MODEL 5
REMARK VINA RESULT:    -6.927      4.286      9.500
REMARK INTER + INTRA:         -10.935
REMARK INTER:                  -9.644
REMARK INTRA:                  -1.291
REMARK UNBOUND:                -1.173
REMARK  Name = 
REMARK  8 active torsions:
REMARK  status: ('A' for Active; 'I' for Inactive)
REMARK    1  A    between atoms: C_1  and  C_2
REMARK    2  A    between atoms: C_2  and  N_3
REMARK    3  A    between atoms: N_3  and  C_4
REMARK    4  A    between atoms: C_4  and  C_5
REMARK    5  A    between atoms: C_8  and  C_9
REMARK    6  A    between atoms: C_9  and  N_10
REMARK    7  A    between atoms: C_11  and  C_13
REMARK    8  A    between atoms: C_25  and  C_27
REMARK                            x       y       z     vdW  Elec       q    Type
REMARK                         _______ _______ _______ _____ _____    ______ ____
ROOT
ATOM      1  C   UNL     1      51.282   3.759  18.222  0.00  0.00    +0.000 A 
ATOM      2  C   UNL     1      50.299   4.608  18.753  0.00  0.00    +0.000 A 
ATOM      3  C   UNL     1      48.955   4.437  18.422  0.00  0.00    +0.000 A 
ATOM      4  C   UNL     1      48.564   3.399  17.568  0.00  0.00    +0.000 A 
ATOM      5  C   UNL     1      49.536   2.499  17.107  0.00  0.00    +0.000 A 
ATOM      6  C   UNL     1      50.884   2.670  17.438  0.00  0.00    +0.000 A 
ENDROOT
BRANCH   1   7
ATOM      7  C   UNL     1      52.732   4.169  18.300  0.00  0.00    +0.000 C 
BRANCH   7   8
ATOM      8  N   UNL     1      53.509   4.017  19.527  0.00  0.00    +0.000 N 
ATOM      9  C   UNL     1      54.267   2.846  19.761  0.00  0.00    +0.000 C 
ATOM     10  O   UNL     1      54.834   2.676  20.842  0.00  0.00    +0.000 OA
BRANCH   9  11
ATOM     11  C   UNL     1      54.348   1.827  18.714  0.00  0.00    +0.000 A 
ATOM     12  C   UNL     1      55.113   1.771  17.562  0.00  0.00    +0.000 A 
ATOM     13  C   UNL     1      54.792   0.560  16.900  0.00  0.00    +0.000 A 
ATOM     14  C   UNL     1      53.817  -0.041  17.661  0.00  0.00    +0.000 A 
ATOM     15  O   UNL     1      53.532   0.724  18.740  0.00  0.00    +0.000 OA
ENDBRANCH   9  11
BRANCH   8  17
ATOM     16  C   UNL     1      53.332   6.477  19.866  0.00  0.00    +0.000 C 
ATOM     17  C   UNL     1      53.624   5.117  20.484  0.00  0.00    +0.000 C 
ENDBRANCH   8  17
ENDBRANCH   7   8
ENDBRANCH   1   7
BRANCH   4  18
ATOM     18  C   UNL     1      47.146   3.312  17.067  0.00  0.00    +0.000 C 
BRANCH  18  19
ATOM     19  N   UNL     1      46.870   4.350  16.099  0.00  0.00    +0.000 N 
ATOM     20  C   UNL     1      47.054   4.128  14.758  0.00  0.00    +0.000 C 
ATOM     21  O   UNL     1      47.420   3.035  14.332  0.00  0.00    +0.000 OA
ATOM     22  H   UNL     1      46.770   5.301  16.443  0.00  0.00    +0.000 HD
BRANCH  20  23
ATOM     23  C   UNL     1      46.739   5.232  13.842  0.00  0.00    +0.000 A 
ATOM     24  C   UNL     1      47.659   6.260  13.673  0.00  0.00    +0.000 A 
ATOM     25  S   UNL     1      47.168   7.449  12.555  0.00  0.00    +0.000 S 
ATOM     26  C   UNL     1      45.683   6.662  12.292  0.00  0.00    +0.000 A 
ATOM     27  N   UNL     1      44.757   7.189  11.447  0.00  0.00    +0.000 NA
ATOM     28  C   UNL     1      43.660   6.513  11.370  0.00  0.00    +0.000 A 
ATOM     29  N   UNL     1      43.409   5.352  12.054  0.00  0.00    +0.000 N 
ATOM     30  C   UNL     1      44.335   4.760  12.885  0.00  0.00    +0.000 A 
ATOM     31  O   UNL     1      44.103   3.691  13.435  0.00  0.00    +0.000 OA
ATOM     32  C   UNL     1      45.577   5.494  13.027  0.00  0.00    +0.000 A 
ATOM     33  H   UNL     1      42.534   4.866  11.940  0.00  0.00    +0.000 HD
ENDBRANCH  20  23
ENDBRANCH  18  19
ENDBRANCH   4  18
TORSDOF 7
ENDMDL
MODEL 6
REMARK VINA RESULT:    -6.916      3.141      7.269
REMARK INTER + INTRA:         -10.919
REMARK INTER:                  -9.209
REMARK INTRA:                  -1.710
REMARK UNBOUND:                -1.173
REMARK  Name = 
REMARK  8 active torsions:
REMARK  status: ('A' for Active; 'I' for Inactive)
REMARK    1  A    between atoms: C_1  and  C_2
REMARK    2  A    between atoms: C_2  and  N_3
REMARK    3  A    between atoms: N_3  and  C_4
REMARK    4  A    between atoms: C_4  and  C_5
REMARK    5  A    between atoms: C_8  and  C_9
REMARK    6  A    between atoms: C_9  and  N_10
REMARK    7  A    between atoms: C_11  and  C_13
REMARK    8  A    between atoms: C_25  and  C_27
REMARK                            x       y       z     vdW  Elec       q    Type
REMARK                         _______ _______ _______ _____ _____    ______ ____
ROOT
ATOM      1  C   UNL     1      49.195   7.494  16.227  0.00  0.00    +0.000 A 
ATOM      2  C   UNL     1      49.779   6.860  15.119  0.00  0.00    +0.000 A 
ATOM      3  C   UNL     1      49.400   7.201  13.821  0.00  0.00    +0.000 A 
ATOM      4  C   UNL     1      48.444   8.200  13.603  0.00  0.00    +0.000 A 
ATOM      5  C   UNL     1      47.926   8.894  14.706  0.00  0.00    +0.000 A 
ATOM      6  C   UNL     1      48.304   8.551  16.009  0.00  0.00    +0.000 A 
ENDROOT
BRANCH   1   7
ATOM      7  C   UNL     1      49.347   6.878  17.595  0.00  0.00    +0.000 C 
BRANCH   7   8
ATOM      8  N   UNL     1      48.215   6.738  18.506  0.00  0.00    +0.000 N 
ATOM      9  C   UNL     1      47.355   5.619  18.422  0.00  0.00    +0.000 C 
ATOM     10  O   UNL     1      46.341   5.558  19.119  0.00  0.00    +0.000 OA
BRANCH   9  11
ATOM     11  C   UNL     1      47.669   4.546  17.477  0.00  0.00    +0.000 A 
ATOM     12  C   UNL     1      47.197   4.298  16.199  0.00  0.00    +0.000 A 
ATOM     13  C   UNL     1      47.828   3.115  15.738  0.00  0.00    +0.000 A 
ATOM     14  C   UNL     1      48.619   2.680  16.774  0.00  0.00    +0.000 A 
ATOM     15  O   UNL     1      48.513   3.523  17.828  0.00  0.00    +0.000 OA
ENDBRANCH   9  11
BRANCH   8  17
ATOM     16  C   UNL     1      47.183   8.893  19.206  0.00  0.00    +0.000 C 
ATOM     17  C   UNL     1      48.014   7.682  19.605  0.00  0.00    +0.000 C 
ENDBRANCH   8  17
ENDBRANCH   7   8
ENDBRANCH   1   7
BRANCH   4  18
ATOM     18  C   UNL     1      47.903   8.454  12.221  0.00  0.00    +0.000 C 
BRANCH  18  19
ATOM     19  N   UNL     1      47.359   7.245  11.643  0.00  0.00    +0.000 N 
ATOM     20  C   UNL     1      46.008   7.104  11.447  0.00  0.00    +0.000 C 
ATOM     21  O   UNL     1      45.222   8.009  11.718  0.00  0.00    +0.000 OA
ATOM     22  H   UNL     1      47.961   6.426  11.610  0.00  0.00    +0.000 HD
BRANCH  20  23
ATOM     23  C   UNL     1      45.541   5.849  10.845  0.00  0.00    +0.000 A 
ATOM     24  C   UNL     1      45.821   5.588   9.509  0.00  0.00    +0.000 A 
ATOM     25  S   UNL     1      45.244   4.080   8.964  0.00  0.00    +0.000 S 
ATOM     26  C   UNL     1      44.553   3.738  10.480  0.00  0.00    +0.000 A 
ATOM     27  N   UNL     1      43.861   2.585  10.686  0.00  0.00    +0.000 NA
ATOM     28  C   UNL     1      43.356   2.471  11.868  0.00  0.00    +0.000 A 
ATOM     29  N   UNL     1      43.487   3.400  12.866  0.00  0.00    +0.000 N 
ATOM     30  C   UNL     1      44.215   4.560  12.716  0.00  0.00    +0.000 A 
ATOM     31  O   UNL     1      44.364   5.342  13.646  0.00  0.00    +0.000 OA
ATOM     32  C   UNL     1      44.783   4.751  11.397  0.00  0.00    +0.000 A 
ATOM     33  H   UNL     1      43.076   3.244  13.774  0.00  0.00    +0.000 HD
ENDBRANCH  20  23
ENDBRANCH  18  19
ENDBRANCH   4  18
TORSDOF 7
ENDMDL
MODEL 7
REMARK VINA RESULT:    -6.908      2.938      8.678
REMARK INTER + INTRA:         -10.907
REMARK INTER:                  -9.246
REMARK INTRA:                  -1.661
REMARK UNBOUND:                -1.173
REMARK  Name = 
REMARK  8 active torsions:
REMARK  status: ('A' for Active; 'I' for Inactive)
REMARK    1  A    between atoms: C_1  and  C_2
REMARK    2  A    between atoms: C_2  and  N_3
REMARK    3  A    between atoms: N_3  and  C_4
REMARK    4  A    between atoms: C_4  and  C_5
REMARK    5  A    between atoms: C_8  and  C_9
REMARK    6  A    between atoms: C_9  and  N_10
REMARK    7  A    between atoms: C_11  and  C_13
REMARK    8  A    between atoms: C_25  and  C_27
REMARK                            x       y       z     vdW  Elec       q    Type
REMARK                         _______ _______ _______ _____ _____    ______ ____
ROOT
ATOM      1  C   UNL     1      50.983   4.454  18.528  0.00  0.00    +0.000 A 
ATOM      2  C   UNL     1      49.818   5.061  19.023  0.00  0.00    +0.000 A 
ATOM      3  C   UNL     1      48.561   4.676  18.556  0.00  0.00    +0.000 A 
ATOM      4  C   UNL     1      48.443   3.660  17.600  0.00  0.00    +0.000 A 
ATOM      5  C   UNL     1      49.600   2.995  17.172  0.00  0.00    +0.000 A 
ATOM      6  C   UNL     1      50.862   3.381  17.638  0.00  0.00    +0.000 A 
ENDROOT
BRANCH   1   7
ATOM      7  C   UNL     1      52.318   5.114  18.770  0.00  0.00    +0.000 C 
BRANCH   7   8
ATOM      8  N   UNL     1      53.298   5.281  17.701  0.00  0.00    +0.000 N 
ATOM      9  C   UNL     1      53.029   6.129  16.602  0.00  0.00    +0.000 C 
ATOM     10  O   UNL     1      53.811   6.185  15.651  0.00  0.00    +0.000 OA
BRANCH   9  11
ATOM     11  C   UNL     1      51.797   6.920  16.594  0.00  0.00    +0.000 A 
ATOM     12  C   UNL     1      51.458   8.074  17.278  0.00  0.00    +0.000 A 
ATOM     13  C   UNL     1      50.133   8.411  16.907  0.00  0.00    +0.000 A 
ATOM     14  C   UNL     1      49.717   7.423  16.047  0.00  0.00    +0.000 A 
ATOM     15  O   UNL     1      50.704   6.514  15.871  0.00  0.00    +0.000 OA
ENDBRANCH   9  11
BRANCH   8  17
ATOM     16  C   UNL     1      54.584   3.166  17.966  0.00  0.00    +0.000 C 
ATOM     17  C   UNL     1      54.627   4.679  17.799  0.00  0.00    +0.000 C 
ENDBRANCH   8  17
ENDBRANCH   7   8
ENDBRANCH   1   7
BRANCH   4  18
ATOM     18  C   UNL     1      47.111   3.358  16.964  0.00  0.00    +0.000 C 
BRANCH  18  19
ATOM     19  N   UNL     1      46.763   4.358  15.979  0.00  0.00    +0.000 N 
ATOM     20  C   UNL     1      46.942   4.119  14.641  0.00  0.00    +0.000 C 
ATOM     21  O   UNL     1      47.364   3.040  14.231  0.00  0.00    +0.000 OA
ATOM     22  H   UNL     1      46.615   5.310  16.306  0.00  0.00    +0.000 HD
BRANCH  20  23
ATOM     23  C   UNL     1      46.554   5.184  13.707  0.00  0.00    +0.000 A 
ATOM     24  C   UNL     1      47.445   6.218  13.445  0.00  0.00    +0.000 A 
ATOM     25  S   UNL     1      46.867   7.359  12.318  0.00  0.00    +0.000 S 
ATOM     26  C   UNL     1      45.381   6.543  12.176  0.00  0.00    +0.000 A 
ATOM     27  N   UNL     1      44.396   7.026  11.373  0.00  0.00    +0.000 NA
ATOM     28  C   UNL     1      43.308   6.332  11.389  0.00  0.00    +0.000 A 
ATOM     29  N   UNL     1      43.118   5.194  12.128  0.00  0.00    +0.000 N 
ATOM     30  C   UNL     1      44.103   4.645  12.920  0.00  0.00    +0.000 A 
ATOM     31  O   UNL     1      43.923   3.594  13.521  0.00  0.00    +0.000 OA
ATOM     32  C   UNL     1      45.339   5.401  12.958  0.00  0.00    +0.000 A 
ATOM     33  H   UNL     1      42.245   4.691  12.086  0.00  0.00    +0.000 HD
ENDBRANCH  20  23
ENDBRANCH  18  19
ENDBRANCH   4  18
TORSDOF 7
ENDMDL
MODEL 8
REMARK VINA RESULT:    -6.536      3.363      5.569
REMARK INTER + INTRA:         -10.383
REMARK INTER:                  -9.132
REMARK INTRA:                  -1.251
REMARK UNBOUND:                -1.173
REMARK  Name = 
REMARK  8 active torsions:
REMARK  status: ('A' for Active; 'I' for Inactive)
REMARK    1  A    between atoms: C_1  and  C_2
REMARK    2  A    between atoms: C_2  and  N_3
REMARK    3  A    between atoms: N_3  and  C_4
REMARK    4  A    between atoms: C_4  and  C_5
REMARK    5  A    between atoms: C_8  and  C_9
REMARK    6  A    between atoms: C_9  and  N_10
REMARK    7  A    between atoms: C_11  and  C_13
REMARK    8  A    between atoms: C_25  and  C_27
REMARK                            x       y       z     vdW  Elec       q    Type
REMARK                         _______ _______ _______ _____ _____    ______ ____
ROOT
ATOM      1  C   UNL     1      47.517   5.621  14.245  0.00  0.00    +0.000 A 
ATOM      2  C   UNL     1      46.798   4.437  14.470  0.00  0.00    +0.000 A 
ATOM      3  C   UNL     1      46.941   3.733  15.666  0.00  0.00    +0.000 A 
ATOM      4  C   UNL     1      47.790   4.212  16.671  0.00  0.00    +0.000 A 
ATOM      5  C   UNL     1      48.440   5.440  16.481  0.00  0.00    +0.000 A 
ATOM      6  C   UNL     1      48.299   6.146  15.281  0.00  0.00    +0.000 A 
ENDROOT
BRANCH   1   7
ATOM      7  C   UNL     1      47.625   6.163  12.842  0.00  0.00    +0.000 C 
BRANCH   7   8
ATOM      8  N   UNL     1      46.988   7.417  12.450  0.00  0.00    +0.000 N 
ATOM      9  C   UNL     1      45.634   7.441  12.041  0.00  0.00    +0.000 C 
ATOM     10  O   UNL     1      45.132   8.480  11.610  0.00  0.00    +0.000 OA
BRANCH   9  11
ATOM     11  C   UNL     1      44.844   6.210  12.111  0.00  0.00    +0.000 A 
ATOM     12  C   UNL     1      44.704   5.171  11.208  0.00  0.00    +0.000 A 
ATOM     13  C   UNL     1      43.807   4.234  11.778  0.00  0.00    +0.000 A 
ATOM     14  C   UNL     1      43.414   4.769  12.982  0.00  0.00    +0.000 A 
ATOM     15  O   UNL     1      44.018   5.964  13.178  0.00  0.00    +0.000 OA
ENDBRANCH   9  11
BRANCH   8  17
ATOM     16  C   UNL     1      49.058   8.694  11.919  0.00  0.00    +0.000 C 
ATOM     17  C   UNL     1      47.690   8.692  12.588  0.00  0.00    +0.000 C 
ENDBRANCH   8  17
ENDBRANCH   7   8
ENDBRANCH   1   7
BRANCH   4  18
ATOM     18  C   UNL     1      48.084   3.375  17.889  0.00  0.00    +0.000 C 
BRANCH  18  19
ATOM     19  N   UNL     1      49.506   3.169  18.050  0.00  0.00    +0.000 N 
ATOM     20  C   UNL     1      50.187   2.296  17.240  0.00  0.00    +0.000 C 
ATOM     21  O   UNL     1      49.624   1.692  16.329  0.00  0.00    +0.000 OA
ATOM     22  H   UNL     1      49.935   3.494  18.913  0.00  0.00    +0.000 HD
BRANCH  20  23
ATOM     23  C   UNL     1      51.631   2.154  17.464  0.00  0.00    +0.000 A 
ATOM     24  C   UNL     1      52.195   0.884  17.489  0.00  0.00    +0.000 A 
ATOM     25  S   UNL     1      53.883   0.882  17.726  0.00  0.00    +0.000 S 
ATOM     26  C   UNL     1      53.918   2.578  17.856  0.00  0.00    +0.000 A 
ATOM     27  N   UNL     1      55.085   3.233  18.100  0.00  0.00    +0.000 NA
ATOM     28  C   UNL     1      54.964   4.512  18.215  0.00  0.00    +0.000 A 
ATOM     29  N   UNL     1      53.783   5.198  18.098  0.00  0.00    +0.000 N 
ATOM     30  C   UNL     1      52.586   4.581  17.808  0.00  0.00    +0.000 A 
ATOM     31  O   UNL     1      51.559   5.228  17.649  0.00  0.00    +0.000 OA
ATOM     32  C   UNL     1      52.662   3.138  17.694  0.00  0.00    +0.000 A 
ATOM     33  H   UNL     1      53.759   6.202  18.188  0.00  0.00    +0.000 HD
ENDBRANCH  20  23
ENDBRANCH  18  19
ENDBRANCH   4  18
TORSDOF 7
ENDMDL
MODEL 9
REMARK VINA RESULT:    -6.521      1.882      2.831
REMARK INTER + INTRA:         -10.363
REMARK INTER:                 -10.127
REMARK INTRA:                  -0.235
REMARK UNBOUND:                -1.173
REMARK  Name = 
REMARK  8 active torsions:
REMARK  status: ('A' for Active; 'I' for Inactive)
REMARK    1  A    between atoms: C_1  and  C_2
REMARK    2  A    between atoms: C_2  and  N_3
REMARK    3  A    between atoms: N_3  and  C_4
REMARK    4  A    between atoms: C_4  and  C_5
REMARK    5  A    between atoms: C_8  and  C_9
REMARK    6  A    between atoms: C_9  and  N_10
REMARK    7  A    between atoms: C_11  and  C_13
REMARK    8  A    between atoms: C_25  and  C_27
REMARK                            x       y       z     vdW  Elec       q    Type
REMARK                         _______ _______ _______ _____ _____    ______ ____
ROOT
ATOM      1  C   UNL     1      45.659   5.693  11.252  0.00  0.00    +0.000 A 
ATOM      2  C   UNL     1      46.375   5.076  12.290  0.00  0.00    +0.000 A 
ATOM      3  C   UNL     1      47.065   5.840  13.232  0.00  0.00    +0.000 A 
ATOM      4  C   UNL     1      47.035   7.238  13.166  0.00  0.00    +0.000 A 
ATOM      5  C   UNL     1      46.248   7.854  12.183  0.00  0.00    +0.000 A 
ATOM      6  C   UNL     1      45.557   7.089  11.237  0.00  0.00    +0.000 A 
ENDROOT
BRANCH   1   7
ATOM      7  C   UNL     1      45.229   4.871  10.063  0.00  0.00    +0.000 C 
BRANCH   7   8
ATOM      8  N   UNL     1      44.416   3.667  10.214  0.00  0.00    +0.000 N 
ATOM      9  C   UNL     1      44.576   2.573   9.332  0.00  0.00    +0.000 C 
ATOM     10  O   UNL     1      43.817   1.605   9.396  0.00  0.00    +0.000 OA
BRANCH   9  11
ATOM     11  C   UNL     1      45.639   2.616   8.327  0.00  0.00    +0.000 A 
ATOM     12  C   UNL     1      45.934   3.562   7.361  0.00  0.00    +0.000 A 
ATOM     13  C   UNL     1      47.067   3.098   6.647  0.00  0.00    +0.000 A 
ATOM     14  C   UNL     1      47.379   1.873   7.187  0.00  0.00    +0.000 A 
ATOM     15  O   UNL     1      46.514   1.569   8.182  0.00  0.00    +0.000 OA
ENDBRANCH   9  11
BRANCH   8  17
ATOM     16  C   UNL     1      42.629   4.734  11.581  0.00  0.00    +0.000 C 
ATOM     17  C   UNL     1      43.507   3.512  11.349  0.00  0.00    +0.000 C 
ENDBRANCH   8  17
ENDBRANCH   7   8
ENDBRANCH   1   7
BRANCH   4  18
ATOM     18  C   UNL     1      47.913   8.066  14.068  0.00  0.00    +0.000 C 
BRANCH  18  19
ATOM     19  N   UNL     1      48.044   7.456  15.373  0.00  0.00    +0.000 N 
ATOM     20  C   UNL     1      49.214   6.849  15.752  0.00  0.00    +0.000 C 
ATOM     21  O   UNL     1      50.199   6.836  15.016  0.00  0.00    +0.000 OA
ATOM     22  H   UNL     1      47.191   7.279  15.898  0.00  0.00    +0.000 HD
BRANCH  20  23
ATOM     23  C   UNL     1      49.265   6.264  17.098  0.00  0.00    +0.000 A 
ATOM     24  C   UNL     1      48.697   5.016  17.320  0.00  0.00    +0.000 A 
ATOM     25  S   UNL     1      48.865   4.455  18.920  0.00  0.00    +0.000 S 
ATOM     26  C   UNL     1      49.659   5.883  19.392  0.00  0.00    +0.000 A 
ATOM     27  N   UNL     1      50.054   6.067  20.680  0.00  0.00    +0.000 NA
ATOM     28  C   UNL     1      50.608   7.210  20.910  0.00  0.00    +0.000 A 
ATOM     29  N   UNL     1      50.812   8.182  19.966  0.00  0.00    +0.000 N 
ATOM     30  C   UNL     1      50.468   8.022  18.642  0.00  0.00    +0.000 A 
ATOM     31  O   UNL     1      50.718   8.885  17.811  0.00  0.00    +0.000 OA
ATOM     32  C   UNL     1      49.817   6.763  18.335  0.00  0.00    +0.000 A 
ATOM     33  H   UNL     1      51.262   9.051  20.210  0.00  0.00    +0.000 HD
ENDBRANCH  20  23
ENDBRANCH  18  19
ENDBRANCH   4  18
TORSDOF 7
ENDMDL
