MODEL 1
REMARK VINA RESULT:    -7.862      0.000      0.000
REMARK INTER + INTRA:         -11.706
REMARK INTER:                 -10.620
REMARK INTRA:                  -1.086
REMARK UNBOUND:                -1.086
REMARK  Name = 
REMARK  6 active torsions:
REMARK  status: ('A' for Active; 'I' for Inactive)
REMARK    1  A    between atoms: C_2  and  C_3
REMARK    2  A    between atoms: C_7  and  C_8
REMARK    3  A    between atoms: C_8  and  C_9
REMARK    4  A    between atoms: C_12  and  C_13
REMARK    5  A    between atoms: C_13  and  N_14
REMARK    6  A    between atoms: C_15  and  C_17
REMARK                            x       y       z     vdW  Elec       q    Type
REMARK                         _______ _______ _______ _____ _____    ______ ____
ROOT
ATOM      1  C   UNL     1      46.797   4.503  14.994  0.00  0.00    +0.000 C 
ENDROOT
BRANCH   1   5
ATOM      2  C   UNL     1      45.040   4.381  11.103  0.00  0.00    +0.000 A 
ATOM      3  C   UNL     1      45.615   5.570  11.557  0.00  0.00    +0.000 A 
ATOM      4  C   UNL     1      46.197   5.621  12.822  0.00  0.00    +0.000 A 
ATOM      5  C   UNL     1      46.174   4.480  13.619  0.00  0.00    +0.000 A 
ATOM      6  N   UNL     1      45.620   3.312  13.201  0.00  0.00    +0.000 NA
ATOM      7  C   UNL     1      45.078   3.289  11.961  0.00  0.00    +0.000 A 
BRANCH   2   8
ATOM      8  C   UNL     1      44.458   4.268   9.720  0.00  0.00    +0.000 C 
BRANCH   8  13
ATOM      9  C   UNL     1      46.462   1.721   7.695  0.00  0.00    +0.000 A 
ATOM     10  C   UNL     1      47.140   2.553   6.799  0.00  0.00    +0.000 A 
ATOM     11  C   UNL     1      46.971   3.936   6.865  0.00  0.00    +0.000 A 
ATOM     12  C   UNL     1      46.120   4.493   7.820  0.00  0.00    +0.000 A 
ATOM     13  C   UNL     1      45.428   3.673   8.723  0.00  0.00    +0.000 A 
ATOM     14  C   UNL     1      45.607   2.283   8.652  0.00  0.00    +0.000 A 
BRANCH   9  16
ATOM     15  N   UNL     1      46.779  -0.852   7.585  0.00  0.00    +0.000 NA
ATOM     16  C   UNL     1      46.635   0.301   7.632  0.00  0.00    +0.000 C 
ENDBRANCH   9  16
ENDBRANCH   8  13
ENDBRANCH   2   8
ENDBRANCH   1   5
BRANCH   1  17
ATOM     17  N   UNL     1      47.541   5.716  15.245  0.00  0.00    +0.000 N 
ATOM     18  C   UNL     1      48.652   5.751  16.042  0.00  0.00    +0.000 C 
ATOM     19  O   UNL     1      49.081   4.749  16.609  0.00  0.00    +0.000 OA
ATOM     20  H   UNL     1      47.072   6.580  14.990  0.00  0.00    +0.000 HD
BRANCH  18  21
ATOM     21  C   UNL     1      49.360   7.037  16.120  0.00  0.00    +0.000 A 
ATOM     22  C   UNL     1      49.599   7.618  17.358  0.00  0.00    +0.000 A 
ATOM     23  S   UNL     1      50.493   9.068  17.274  0.00  0.00    +0.000 S 
ATOM     24  C   UNL     1      50.551   8.997  15.576  0.00  0.00    +0.000 A 
ATOM     25  N   UNL     1      51.176   9.968  14.855  0.00  0.00    +0.000 NA
ATOM     26  C   UNL     1      51.115   9.806  13.577  0.00  0.00    +0.000 A 
ATOM     27  N   UNL     1      50.493   8.758  12.951  0.00  0.00    +0.000 N 
ATOM     28  C   UNL     1      49.894   7.730  13.638  0.00  0.00    +0.000 A 
ATOM     29  O   UNL     1      49.417   6.767  13.048  0.00  0.00    +0.000 OA
ATOM     30  C   UNL     1      49.911   7.875  15.080  0.00  0.00    +0.000 A 
ATOM     31  H   UNL     1      50.494   8.678  11.945  0.00  0.00    +0.000 HD
ENDBRANCH  18  21
ENDBRANCH   1  17
TORSDOF 6
ENDMDL
MODEL 2
REMARK VINA RESULT:    -7.477      1.860      3.379
REMARK INTER + INTRA:         -11.186
REMARK INTER:                 -10.546
REMARK INTRA:                  -0.640
REMARK UNBOUND:                -1.086
REMARK  Name = 
REMARK  6 active torsions:
REMARK  status: ('A' for Active; 'I' for Inactive)
REMARK    1  A    between atoms: C_2  and  C_3
REMARK    2  A    between atoms: C_7  and  C_8
REMARK    3  A    between atoms: C_8  and  C_9
REMARK    4  A    between atoms: C_12  and  C_13
REMARK    5  A    between atoms: C_13  and  N_14
REMARK    6  A    between atoms: C_15  and  C_17
REMARK                            x       y       z     vdW  Elec       q    Type
REMARK                         _______ _______ _______ _____ _____    ______ ____
ROOT
ATOM      1  C   UNL     1      47.215   8.032  13.516  0.00  0.00    +0.000 C 
ENDROOT
BRANCH   1   5
ATOM      2  C   UNL     1      45.130   5.031  11.305  0.00  0.00    +0.000 A 
ATOM      3  C   UNL     1      45.081   6.357  10.873  0.00  0.00    +0.000 A 
ATOM      4  C   UNL     1      45.761   7.344  11.582  0.00  0.00    +0.000 A 
ATOM      5  C   UNL     1      46.466   6.986  12.727  0.00  0.00    +0.000 A 
ATOM      6  N   UNL     1      46.529   5.703  13.169  0.00  0.00    +0.000 NA
ATOM      7  C   UNL     1      45.872   4.763  12.450  0.00  0.00    +0.000 A 
BRANCH   2   8
ATOM      8  C   UNL     1      44.461   3.927  10.533  0.00  0.00    +0.000 C 
BRANCH   8  13
ATOM      9  C   UNL     1      46.232   1.726   7.958  0.00  0.00    +0.000 A 
ATOM     10  C   UNL     1      46.632   2.675   7.012  0.00  0.00    +0.000 A 
ATOM     11  C   UNL     1      46.354   4.026   7.218  0.00  0.00    +0.000 A 
ATOM     12  C   UNL     1      45.670   4.434   8.363  0.00  0.00    +0.000 A 
ATOM     13  C   UNL     1      45.256   3.495   9.319  0.00  0.00    +0.000 A 
ATOM     14  C   UNL     1      45.544   2.138   9.107  0.00  0.00    +0.000 A 
BRANCH   9  16
ATOM     15  N   UNL     1      46.755  -0.788   7.588  0.00  0.00    +0.000 NA
ATOM     16  C   UNL     1      46.519   0.338   7.752  0.00  0.00    +0.000 C 
ENDBRANCH   9  16
ENDBRANCH   8  13
ENDBRANCH   2   8
ENDBRANCH   1   5
BRANCH   1  17
ATOM     17  N   UNL     1      47.590   7.569  14.833  0.00  0.00    +0.000 N 
ATOM     18  C   UNL     1      48.821   7.043  15.110  0.00  0.00    +0.000 C 
ATOM     19  O   UNL     1      49.686   6.917  14.246  0.00  0.00    +0.000 OA
ATOM     20  H   UNL     1      46.824   7.441  15.489  0.00  0.00    +0.000 HD
BRANCH  18  21
ATOM     21  C   UNL     1      49.090   6.712  16.516  0.00  0.00    +0.000 A 
ATOM     22  C   UNL     1      49.642   7.671  17.356  0.00  0.00    +0.000 A 
ATOM     23  S   UNL     1      49.822   7.147  18.969  0.00  0.00    +0.000 S 
ATOM     24  C   UNL     1      49.213   5.604  18.593  0.00  0.00    +0.000 A 
ATOM     25  N   UNL     1      49.111   4.640  19.548  0.00  0.00    +0.000 NA
ATOM     26  C   UNL     1      48.665   3.508  19.118  0.00  0.00    +0.000 A 
ATOM     27  N   UNL     1      48.306   3.252  17.820  0.00  0.00    +0.000 N 
ATOM     28  C   UNL     1      48.345   4.208  16.834  0.00  0.00    +0.000 A 
ATOM     29  O   UNL     1      47.940   3.969  15.703  0.00  0.00    +0.000 OA
ATOM     30  C   UNL     1      48.863   5.495  17.259  0.00  0.00    +0.000 A 
ATOM     31  H   UNL     1      47.947   2.349  17.549  0.00  0.00    +0.000 HD
ENDBRANCH  18  21
ENDBRANCH   1  17
TORSDOF 6
ENDMDL
MODEL 3
REMARK VINA RESULT:    -6.941      2.797      3.958
REMARK INTER + INTRA:         -10.462
REMARK INTER:                  -9.404
REMARK INTRA:                  -1.058
REMARK UNBOUND:                -1.086
REMARK  Name = 
REMARK  6 active torsions:
REMARK  status: ('A' for Active; 'I' for Inactive)
REMARK    1  A    between atoms: C_2  and  C_3
REMARK    2  A    between atoms: C_7  and  C_8
REMARK    3  A    between atoms: C_8  and  C_9
REMARK    4  A    between atoms: C_12  and  C_13
REMARK    5  A    between atoms: C_13  and  N_14
REMARK    6  A    between atoms: C_15  and  C_17
REMARK                            x       y       z     vdW  Elec       q    Type
REMARK                         _______ _______ _______ _____ _____    ______ ____
ROOT
ATOM      1  C   UNL     1      48.682   6.858  14.276  0.00  0.00    +0.000 C 
ENDROOT
BRANCH   1   5
ATOM      2  C   UNL     1      45.499   5.723  11.665  0.00  0.00    +0.000 A 
ATOM      3  C   UNL     1      45.698   5.012  12.850  0.00  0.00    +0.000 A 
ATOM      4  C   UNL     1      46.729   5.376  13.713  0.00  0.00    +0.000 A 
ATOM      5  C   UNL     1      47.557   6.438  13.361  0.00  0.00    +0.000 A 
ATOM      6  N   UNL     1      47.385   7.145  12.214  0.00  0.00    +0.000 NA
ATOM      7  C   UNL     1      46.364   6.779  11.405  0.00  0.00    +0.000 A 
BRANCH   2   8
ATOM      8  C   UNL     1      44.358   5.401  10.738  0.00  0.00    +0.000 C 
BRANCH   8  13
ATOM      9  C   UNL     1      45.658   3.161   7.928  0.00  0.00    +0.000 A 
ATOM     10  C   UNL     1      45.217   1.903   8.350  0.00  0.00    +0.000 A 
ATOM     11  C   UNL     1      44.478   1.782   9.528  0.00  0.00    +0.000 A 
ATOM     12  C   UNL     1      44.184   2.912  10.290  0.00  0.00    +0.000 A 
ATOM     13  C   UNL     1      44.624   4.181   9.884  0.00  0.00    +0.000 A 
ATOM     14  C   UNL     1      45.362   4.295   8.696  0.00  0.00    +0.000 A 
BRANCH   9  16
ATOM     15  N   UNL     1      47.030   3.393   5.738  0.00  0.00    +0.000 NA
ATOM     16  C   UNL     1      46.413   3.290   6.718  0.00  0.00    +0.000 C 
ENDBRANCH   9  16
ENDBRANCH   8  13
ENDBRANCH   2   8
ENDBRANCH   1   5
BRANCH   1  17
ATOM     17  N   UNL     1      48.317   6.790  15.672  0.00  0.00    +0.000 N 
ATOM     18  C   UNL     1      49.134   6.251  16.626  0.00  0.00    +0.000 C 
ATOM     19  O   UNL     1      50.233   5.775  16.351  0.00  0.00    +0.000 OA
ATOM     20  H   UNL     1      47.334   6.951  15.878  0.00  0.00    +0.000 HD
BRANCH  18  21
ATOM     21  C   UNL     1      48.667   6.346  18.017  0.00  0.00    +0.000 A 
ATOM     22  C   UNL     1      48.696   5.222  18.831  0.00  0.00    +0.000 A 
ATOM     23  S   UNL     1      48.188   5.522  20.432  0.00  0.00    +0.000 S 
ATOM     24  C   UNL     1      47.867   7.155  20.082  0.00  0.00    +0.000 A 
ATOM     25  N   UNL     1      47.383   7.994  21.038  0.00  0.00    +0.000 NA
ATOM     26  C   UNL     1      47.154   9.196  20.627  0.00  0.00    +0.000 A 
ATOM     27  N   UNL     1      47.370   9.638  19.347  0.00  0.00    +0.000 N 
ATOM     28  C   UNL     1      47.903   8.841  18.363  0.00  0.00    +0.000 A 
ATOM     29  O   UNL     1      48.159   9.291  17.252  0.00  0.00    +0.000 OA
ATOM     30  C   UNL     1      48.157   7.471  18.766  0.00  0.00    +0.000 A 
ATOM     31  H   UNL     1      47.186  10.596  19.091  0.00  0.00    +0.000 HD
ENDBRANCH  18  21
ENDBRANCH   1  17
TORSDOF 6
ENDMDL
MODEL 4
REMARK VINA RESULT:    -6.887      5.111      9.146
REMARK INTER + INTRA:         -10.389
REMARK INTER:                  -9.771
REMARK INTRA:                  -0.617
REMARK UNBOUND:                -1.086
REMARK  Name = 
REMARK  6 active torsions:
REMARK  status: ('A' for Active; 'I' for Inactive)
REMARK    1  A    between atoms: C_2  and  C_3
REMARK    2  A    between atoms: C_7  and  C_8
REMARK    3  A    between atoms: C_8  and  C_9
REMARK    4  A    between atoms: C_12  and  C_13
REMARK    5  A    between atoms: C_13  and  N_14
REMARK    6  A    between atoms: C_15  and  C_17
REMARK                            x       y       z     vdW  Elec       q    Type
REMARK                         _______ _______ _______ _____ _____    ______ ____
ROOT
ATOM      1  C   UNL     1      47.297   3.509  16.698  0.00  0.00    +0.000 C 
ENDROOT
BRANCH   1   5
ATOM      2  C   UNL     1      51.459   3.977  17.529  0.00  0.00    +0.000 A 
ATOM      3  C   UNL     1      50.906   2.695  17.508  0.00  0.00    +0.000 A 
ATOM      4  C   UNL     1      49.551   2.529  17.233  0.00  0.00    +0.000 A 
ATOM      5  C   UNL     1      48.768   3.656  17.001  0.00  0.00    +0.000 A 
ATOM      6  N   UNL     1      49.282   4.914  17.016  0.00  0.00    +0.000 NA
ATOM      7  C   UNL     1      50.605   5.042  17.270  0.00  0.00    +0.000 A 
BRANCH   2   8
ATOM      8  C   UNL     1      52.930   4.194  17.761  0.00  0.00    +0.000 C 
BRANCH   8  13
ATOM      9  C   UNL     1      54.590   0.753  17.856  0.00  0.00    +0.000 A 
ATOM     10  C   UNL     1      55.036   0.698  19.180  0.00  0.00    +0.000 A 
ATOM     11  C   UNL     1      54.779   1.759  20.048  0.00  0.00    +0.000 A 
ATOM     12  C   UNL     1      54.082   2.881  19.597  0.00  0.00    +0.000 A 
ATOM     13  C   UNL     1      53.633   2.954  18.270  0.00  0.00    +0.000 A 
ATOM     14  C   UNL     1      53.893   1.881  17.405  0.00  0.00    +0.000 A 
BRANCH   9  16
ATOM     15  N   UNL     1      55.065  -1.218  16.237  0.00  0.00    +0.000 NA
ATOM     16  C   UNL     1      54.850  -0.336  16.963  0.00  0.00    +0.000 C 
ENDBRANCH   9  16
ENDBRANCH   8  13
ENDBRANCH   2   8
ENDBRANCH   1   5
BRANCH   1  17
ATOM     17  N   UNL     1      46.834   4.467  15.719  0.00  0.00    +0.000 N 
ATOM     18  C   UNL     1      46.822   4.207  14.377  0.00  0.00    +0.000 C 
ATOM     19  O   UNL     1      47.219   3.140  13.915  0.00  0.00    +0.000 OA
ATOM     20  H   UNL     1      46.733   5.422  16.053  0.00  0.00    +0.000 HD
BRANCH  18  21
ATOM     21  C   UNL     1      46.227   5.240  13.516  0.00  0.00    +0.000 A 
ATOM     22  C   UNL     1      46.945   6.393  13.228  0.00  0.00    +0.000 A 
ATOM     23  S   UNL     1      46.140   7.453  12.161  0.00  0.00    +0.000 S 
ATOM     24  C   UNL     1      44.783   6.431  12.083  0.00  0.00    +0.000 A 
ATOM     25  N   UNL     1      43.699   6.763  11.332  0.00  0.00    +0.000 NA
ATOM     26  C   UNL     1      42.728   5.915  11.390  0.00  0.00    +0.000 A 
ATOM     27  N   UNL     1      42.745   4.759  12.127  0.00  0.00    +0.000 N 
ATOM     28  C   UNL     1      43.836   4.359  12.860  0.00  0.00    +0.000 A 
ATOM     29  O   UNL     1      43.847   3.280  13.442  0.00  0.00    +0.000 OA
ATOM     30  C   UNL     1      44.948   5.290  12.849  0.00  0.00    +0.000 A 
ATOM     31  H   UNL     1      41.959   4.126  12.119  0.00  0.00    +0.000 HD
ENDBRANCH  18  21
ENDBRANCH   1  17
TORSDOF 6
ENDMDL
MODEL 5
REMARK VINA RESULT:    -6.826      2.375      3.445
REMARK INTER + INTRA:         -10.306
REMARK INTER:                  -9.891
REMARK INTRA:                  -0.415
REMARK UNBOUND:                -1.086
REMARK  Name = 
REMARK  6 active torsions:
REMARK  status: ('A' for Active; 'I' for Inactive)
REMARK    1  A    between atoms: C_2  and  C_3
REMARK    2  A    between atoms: C_7  and  C_8
REMARK    3  A    between atoms: C_8  and  C_9
REMARK    4  A    between atoms: C_12  and  C_13
REMARK    5  A    between atoms: C_13  and  N_14
REMARK    6  A    between atoms: C_15  and  C_17
REMARK                            x       y       z     vdW  Elec       q    Type
REMARK                         _______ _______ _______ _____ _____    ______ ____
ROOT
ATOM      1  C   UNL     1      47.305   4.374  15.754  0.00  0.00    +0.000 C 
ENDROOT
BRANCH   1   5
ATOM      2  C   UNL     1      45.812   5.377  11.880  0.00  0.00    +0.000 A 
ATOM      3  C   UNL     1      46.914   6.067  12.388  0.00  0.00    +0.000 A 
ATOM      4  C   UNL     1      47.414   5.746  13.648  0.00  0.00    +0.000 A 
ATOM      5  C   UNL     1      46.786   4.747  14.386  0.00  0.00    +0.000 A 
ATOM      6  N   UNL     1      45.713   4.060  13.915  0.00  0.00    +0.000 NA
ATOM      7  C   UNL     1      45.261   4.383  12.681  0.00  0.00    +0.000 A 
BRANCH   2   8
ATOM      8  C   UNL     1      45.282   5.651  10.499  0.00  0.00    +0.000 C 
BRANCH   8  13
ATOM      9  C   UNL     1      45.849   3.175   7.644  0.00  0.00    +0.000 A 
ATOM     10  C   UNL     1      45.146   2.057   8.104  0.00  0.00    +0.000 A 
ATOM     11  C   UNL     1      44.469   2.111   9.322  0.00  0.00    +0.000 A 
ATOM     12  C   UNL     1      44.496   3.277  10.088  0.00  0.00    +0.000 A 
ATOM     13  C   UNL     1      45.200   4.406   9.644  0.00  0.00    +0.000 A 
ATOM     14  C   UNL     1      45.876   4.344   8.415  0.00  0.00    +0.000 A 
BRANCH   9  16
ATOM     15  N   UNL     1      47.104   3.079   5.375  0.00  0.00    +0.000 NA
ATOM     16  C   UNL     1      46.543   3.124   6.392  0.00  0.00    +0.000 C 
ENDBRANCH   9  16
ENDBRANCH   8  13
ENDBRANCH   2   8
ENDBRANCH   1   5
BRANCH   1  17
ATOM     17  N   UNL     1      47.897   5.495  16.447  0.00  0.00    +0.000 N 
ATOM     18  C   UNL     1      49.153   5.455  16.984  0.00  0.00    +0.000 C 
ATOM     19  O   UNL     1      49.857   4.449  16.922  0.00  0.00    +0.000 OA
ATOM     20  H   UNL     1      47.253   6.234  16.717  0.00  0.00    +0.000 HD
BRANCH  18  21
ATOM     21  C   UNL     1      49.656   6.706  17.569  0.00  0.00    +0.000 A 
ATOM     22  C   UNL     1      50.827   7.272  17.082  0.00  0.00    +0.000 A 
ATOM     23  S   UNL     1      51.229   8.756  17.820  0.00  0.00    +0.000 S 
ATOM     24  C   UNL     1      49.879   8.672  18.850  0.00  0.00    +0.000 A 
ATOM     25  N   UNL     1      49.634   9.650  19.765  0.00  0.00    +0.000 NA
ATOM     26  C   UNL     1      48.596   9.443  20.502  0.00  0.00    +0.000 A 
ATOM     27  N   UNL     1      47.774   8.350  20.405  0.00  0.00    +0.000 N 
ATOM     28  C   UNL     1      47.953   7.364  19.464  0.00  0.00    +0.000 A 
ATOM     29  O   UNL     1      47.153   6.443  19.352  0.00  0.00    +0.000 OA
ATOM     30  C   UNL     1      49.123   7.536  18.624  0.00  0.00    +0.000 A 
ATOM     31  H   UNL     1      46.965   8.253  21.001  0.00  0.00    +0.000 HD
ENDBRANCH  18  21
ENDBRANCH   1  17
TORSDOF 6
ENDMDL
MODEL 6
REMARK VINA RESULT:    -6.816      4.277      8.812
REMARK INTER + INTRA:         -10.292
REMARK INTER:                  -9.310
REMARK INTRA:                  -0.983
REMARK UNBOUND:                -1.086
REMARK  Name = 
REMARK  6 active torsions:
REMARK  status: ('A' for Active; 'I' for Inactive)
REMARK    1  A    between atoms: C_2  and  C_3
REMARK    2  A    between atoms: C_7  and  C_8
REMARK    3  A    between atoms: C_8  and  C_9
REMARK    4  A    between atoms: C_12  and  C_13
REMARK    5  A    between atoms: C_13  and  N_14
REMARK    6  A    between atoms: C_15  and  C_17
REMARK                            x       y       z     vdW  Elec       q    Type
REMARK                         _______ _______ _______ _____ _____    ______ ____
ROOT
ATOM      1  C   UNL     1      47.317   3.511  16.623  0.00  0.00    +0.000 C 
ENDROOT
BRANCH   1   5
ATOM      2  C   UNL     1      51.176   4.574  18.110  0.00  0.00    +0.000 A 
ATOM      3  C   UNL     1      50.926   3.251  17.743  0.00  0.00    +0.000 A 
ATOM      4  C   UNL     1      49.673   2.892  17.251  0.00  0.00    +0.000 A 
ATOM      5  C   UNL     1      48.684   3.867  17.153  0.00  0.00    +0.000 A 
ATOM      6  N   UNL     1      48.903   5.161  17.504  0.00  0.00    +0.000 NA
ATOM      7  C   UNL     1      50.134   5.482  17.962  0.00  0.00    +0.000 A 
BRANCH   2   8
ATOM      8  C   UNL     1      52.534   5.014  18.586  0.00  0.00    +0.000 C 
BRANCH   8  13
ATOM      9  C   UNL     1      54.383   6.300  15.498  0.00  0.00    +0.000 A 
ATOM     10  C   UNL     1      55.468   5.419  15.439  0.00  0.00    +0.000 A 
ATOM     11  C   UNL     1      55.588   4.396  16.380  0.00  0.00    +0.000 A 
ATOM     12  C   UNL     1      54.632   4.251  17.385  0.00  0.00    +0.000 A 
ATOM     13  C   UNL     1      53.541   5.129  17.462  0.00  0.00    +0.000 A 
ATOM     14  C   UNL     1      53.425   6.154  16.510  0.00  0.00    +0.000 A 
BRANCH   9  16
ATOM     15  N   UNL     1      54.146   8.203  13.751  0.00  0.00    +0.000 NA
ATOM     16  C   UNL     1      54.255   7.350  14.533  0.00  0.00    +0.000 C 
ENDBRANCH   9  16
ENDBRANCH   8  13
ENDBRANCH   2   8
ENDBRANCH   1   5
BRANCH   1  17
ATOM     17  N   UNL     1      46.822   4.479  15.672  0.00  0.00    +0.000 N 
ATOM     18  C   UNL     1      46.793   4.247  14.325  0.00  0.00    +0.000 C 
ATOM     19  O   UNL     1      47.202   3.197  13.835  0.00  0.00    +0.000 OA
ATOM     20  H   UNL     1      46.709   5.425  16.026  0.00  0.00    +0.000 HD
BRANCH  18  21
ATOM     21  C   UNL     1      46.166   5.286  13.495  0.00  0.00    +0.000 A 
ATOM     22  C   UNL     1      46.849   6.469  13.241  0.00  0.00    +0.000 A 
ATOM     23  S   UNL     1      46.011   7.534  12.205  0.00  0.00    +0.000 S 
ATOM     24  C   UNL     1      44.686   6.474  12.097  0.00  0.00    +0.000 A 
ATOM     25  N   UNL     1      43.591   6.795  11.355  0.00  0.00    +0.000 NA
ATOM     26  C   UNL     1      42.647   5.915  11.388  0.00  0.00    +0.000 A 
ATOM     27  N   UNL     1      42.700   4.739  12.090  0.00  0.00    +0.000 N 
ATOM     28  C   UNL     1      43.803   4.351  12.812  0.00  0.00    +0.000 A 
ATOM     29  O   UNL     1      43.848   3.257  13.362  0.00  0.00    +0.000 OA
ATOM     30  C   UNL     1      44.886   5.316  12.828  0.00  0.00    +0.000 A 
ATOM     31  H   UNL     1      41.934   4.083  12.063  0.00  0.00    +0.000 HD
ENDBRANCH  18  21
ENDBRANCH   1  17
TORSDOF 6
ENDMDL
MODEL 7
REMARK VINA RESULT:    -6.759      1.759      2.186
REMARK INTER + INTRA:         -10.215
REMARK INTER:                  -9.034
REMARK INTRA:                  -1.181
REMARK UNBOUND:                -1.086
REMARK  Name = 
REMARK  6 active torsions:
REMARK  status: ('A' for Active; 'I' for Inactive)
REMARK    1  A    between atoms: C_2  and  C_3
REMARK    2  A    between atoms: C_7  and  C_8
REMARK    3  A    between atoms: C_8  and  C_9
REMARK    4  A    between atoms: C_12  and  C_13
REMARK    5  A    between atoms: C_13  and  N_14
REMARK    6  A    between atoms: C_15  and  C_17
REMARK                            x       y       z     vdW  Elec       q    Type
REMARK                         _______ _______ _______ _____ _____    ______ ____
ROOT
ATOM      1  C   UNL     1      47.543   5.943  14.755  0.00  0.00    +0.000 C 
ENDROOT
BRANCH   1   5
ATOM      2  C   UNL     1      45.314   4.433  11.440  0.00  0.00    +0.000 A 
ATOM      3  C   UNL     1      45.623   3.580  12.502  0.00  0.00    +0.000 A 
ATOM      4  C   UNL     1      46.345   4.062  13.592  0.00  0.00    +0.000 A 
ATOM      5  C   UNL     1      46.761   5.390  13.589  0.00  0.00    +0.000 A 
ATOM      6  N   UNL     1      46.474   6.239  12.568  0.00  0.00    +0.000 NA
ATOM      7  C   UNL     1      45.757   5.747  11.532  0.00  0.00    +0.000 A 
BRANCH   2   8
ATOM      8  C   UNL     1      44.484   3.967  10.276  0.00  0.00    +0.000 C 
BRANCH   8  13
ATOM      9  C   UNL     1      46.313   1.632   7.866  0.00  0.00    +0.000 A 
ATOM     10  C   UNL     1      46.783   2.536   6.909  0.00  0.00    +0.000 A 
ATOM     11  C   UNL     1      46.532   3.900   7.054  0.00  0.00    +0.000 A 
ATOM     12  C   UNL     1      45.806   4.366   8.151  0.00  0.00    +0.000 A 
ATOM     13  C   UNL     1      45.323   3.473   9.117  0.00  0.00    +0.000 A 
ATOM     14  C   UNL     1      45.583   2.102   8.966  0.00  0.00    +0.000 A 
BRANCH   9  16
ATOM     15  N   UNL     1      46.778  -0.907   7.606  0.00  0.00    +0.000 NA
ATOM     16  C   UNL     1      46.572   0.231   7.722  0.00  0.00    +0.000 C 
ENDBRANCH   9  16
ENDBRANCH   8  13
ENDBRANCH   2   8
ENDBRANCH   1   5
BRANCH   1  17
ATOM     17  N   UNL     1      48.746   6.629  14.342  0.00  0.00    +0.000 N 
ATOM     18  C   UNL     1      48.982   7.945  14.625  0.00  0.00    +0.000 C 
ATOM     19  O   UNL     1      48.174   8.635  15.244  0.00  0.00    +0.000 OA
ATOM     20  H   UNL     1      49.302   6.155  13.635  0.00  0.00    +0.000 HD
BRANCH  18  21
ATOM     21  C   UNL     1      50.295   8.475  14.227  0.00  0.00    +0.000 A 
ATOM     22  C   UNL     1      51.099   9.101  15.170  0.00  0.00    +0.000 A 
ATOM     23  S   UNL     1      52.614   9.592  14.560  0.00  0.00    +0.000 S 
ATOM     24  C   UNL     1      52.230   9.029  13.002  0.00  0.00    +0.000 A 
ATOM     25  N   UNL     1      53.113   9.156  11.974  0.00  0.00    +0.000 NA
ATOM     26  C   UNL     1      52.680   8.717  10.841  0.00  0.00    +0.000 A 
ATOM     27  N   UNL     1      51.445   8.155  10.641  0.00  0.00    +0.000 N 
ATOM     28  C   UNL     1      50.542   7.961  11.658  0.00  0.00    +0.000 A 
ATOM     29  O   UNL     1      49.480   7.382  11.461  0.00  0.00    +0.000 OA
ATOM     30  C   UNL     1      50.970   8.460  12.951  0.00  0.00    +0.000 A 
ATOM     31  H   UNL     1      51.170   7.815   9.732  0.00  0.00    +0.000 HD
ENDBRANCH  18  21
ENDBRANCH   1  17
TORSDOF 6
ENDMDL
MODEL 8
REMARK VINA RESULT:    -6.728      3.277      8.892
REMARK INTER + INTRA:         -10.174
REMARK INTER:                  -9.179
REMARK INTRA:                  -0.995
REMARK UNBOUND:                -1.086
REMARK  Name = 
REMARK  6 active torsions:
REMARK  status: ('A' for Active; 'I' for Inactive)
REMARK    1  A    between atoms: C_2  and  C_3
REMARK    2  A    between atoms: C_7  and  C_8
REMARK    3  A    between atoms: C_8  and  C_9
REMARK    4  A    between atoms: C_12  and  C_13
REMARK    5  A    between atoms: C_13  and  N_14
REMARK    6  A    between atoms: C_15  and  C_17
REMARK                            x       y       z     vdW  Elec       q    Type
REMARK                         _______ _______ _______ _____ _____    ______ ____
ROOT
ATOM      1  C   UNL     1      47.660   7.799  11.772  0.00  0.00    +0.000 C 
ENDROOT
BRANCH   1   5
ATOM      2  C   UNL     1      49.335   8.187  15.681  0.00  0.00    +0.000 A 
ATOM      3  C   UNL     1      48.171   8.890  15.363  0.00  0.00    +0.000 A 
ATOM      4  C   UNL     1      47.612   8.767  14.093  0.00  0.00    +0.000 A 
ATOM      5  C   UNL     1      48.242   7.954  13.156  0.00  0.00    +0.000 A 
ATOM      6  N   UNL     1      49.376   7.261  13.440  0.00  0.00    +0.000 NA
ATOM      7  C   UNL     1      49.885   7.387  14.687  0.00  0.00    +0.000 A 
BRANCH   2   8
ATOM      8  C   UNL     1      49.935   8.244  17.060  0.00  0.00    +0.000 C 
BRANCH   8  13
ATOM      9  C   UNL     1      48.103   5.143  18.337  0.00  0.00    +0.000 A 
ATOM     10  C   UNL     1      48.379   5.203  19.707  0.00  0.00    +0.000 A 
ATOM     11  C   UNL     1      49.134   6.258  20.221  0.00  0.00    +0.000 A 
ATOM     12  C   UNL     1      49.621   7.251  19.370  0.00  0.00    +0.000 A 
ATOM     13  C   UNL     1      49.358   7.202  17.993  0.00  0.00    +0.000 A 
ATOM     14  C   UNL     1      48.594   6.140  17.485  0.00  0.00    +0.000 A 
BRANCH   9  16
ATOM     15  N   UNL     1      46.695   3.189  17.372  0.00  0.00    +0.000 NA
ATOM     16  C   UNL     1      47.325   4.064  17.807  0.00  0.00    +0.000 C 
ENDBRANCH   9  16
ENDBRANCH   8  13
ENDBRANCH   2   8
ENDBRANCH   1   5
BRANCH   1  17
ATOM     17  N   UNL     1      46.925   6.565  11.614  0.00  0.00    +0.000 N 
ATOM     18  C   UNL     1      45.566   6.490  11.741  0.00  0.00    +0.000 C 
ATOM     19  O   UNL     1      44.881   7.474  12.012  0.00  0.00    +0.000 OA
ATOM     20  H   UNL     1      47.484   5.716  11.632  0.00  0.00    +0.000 HD
BRANCH  18  21
ATOM     21  C   UNL     1      44.953   5.186  11.452  0.00  0.00    +0.000 A 
ATOM     22  C   UNL     1      44.184   4.557  12.422  0.00  0.00    +0.000 A 
ATOM     23  S   UNL     1      43.489   3.089  11.900  0.00  0.00    +0.000 S 
ATOM     24  C   UNL     1      44.228   3.219  10.374  0.00  0.00    +0.000 A 
ATOM     25  N   UNL     1      44.050   2.259   9.426  0.00  0.00    +0.000 NA
ATOM     26  C   UNL     1      44.695   2.468   8.328  0.00  0.00    +0.000 A 
ATOM     27  N   UNL     1      45.498   3.552   8.088  0.00  0.00    +0.000 N 
ATOM     28  C   UNL     1      45.668   4.570   8.996  0.00  0.00    +0.000 A 
ATOM     29  O   UNL     1      46.328   5.564   8.717  0.00  0.00    +0.000 OA
ATOM     30  C   UNL     1      44.983   4.373  10.259  0.00  0.00    +0.000 A 
ATOM     31  H   UNL     1      45.965   3.667   7.200  0.00  0.00    +0.000 HD
ENDBRANCH  18  21
ENDBRANCH   1  17
TORSDOF 6
ENDMDL
MODEL 9
REMARK VINA RESULT:    -6.472      4.278      7.768
REMARK INTER + INTRA:          -9.828
REMARK INTER:                  -8.850
REMARK INTRA:                  -0.979
REMARK UNBOUND:                -1.086
REMARK  Name = 
REMARK  6 active torsions:
REMARK  status: ('A' for Active; 'I' for Inactive)
REMARK    1  A    between atoms: C_2  and  C_3
REMARK    2  A    between atoms: C_7  and  C_8
REMARK    3  A    between atoms: C_8  and  C_9
REMARK    4  A    between atoms: C_12  and  C_13
REMARK    5  A    between atoms: C_13  and  N_14
REMARK    6  A    between atoms: C_15  and  C_17
REMARK                            x       y       z     vdW  Elec       q    Type
REMARK                         _______ _______ _______ _____ _____    ______ ____
ROOT
ATOM      1  C   UNL     1      46.612   8.118  13.252  0.00  0.00    +0.000 C 
ENDROOT
BRANCH   1   5
ATOM      2  C   UNL     1      50.354   8.950  11.370  0.00  0.00    +0.000 A 
ATOM      3  C   UNL     1      49.775   7.689  11.213  0.00  0.00    +0.000 A 
ATOM      4  C   UNL     1      48.552   7.407  11.817  0.00  0.00    +0.000 A 
ATOM      5  C   UNL     1      47.938   8.392  12.586  0.00  0.00    +0.000 A 
ATOM      6  N   UNL     1      48.481   9.626  12.754  0.00  0.00    +0.000 NA
ATOM      7  C   UNL     1      49.660   9.876  12.141  0.00  0.00    +0.000 A 
BRANCH   2   8
ATOM      8  C   UNL     1      51.641   9.314  10.683  0.00  0.00    +0.000 C 
BRANCH   8  13
ATOM      9  C   UNL     1      53.220   6.362   8.839  0.00  0.00    +0.000 A 
ATOM     10  C   UNL     1      54.183   5.943   9.763  0.00  0.00    +0.000 A 
ATOM     11  C   UNL     1      54.305   6.596  10.990  0.00  0.00    +0.000 A 
ATOM     12  C   UNL     1      53.472   7.672  11.296  0.00  0.00    +0.000 A 
ATOM     13  C   UNL     1      52.505   8.109  10.379  0.00  0.00    +0.000 A 
ATOM     14  C   UNL     1      52.386   7.444   9.149  0.00  0.00    +0.000 A 
BRANCH   9  16
ATOM     15  N   UNL     1      52.987   5.145   6.560  0.00  0.00    +0.000 NA
ATOM     16  C   UNL     1      53.090   5.692   7.580  0.00  0.00    +0.000 C 
ENDBRANCH   9  16
ENDBRANCH   8  13
ENDBRANCH   2   8
ENDBRANCH   1   5
BRANCH   1  17
ATOM     17  N   UNL     1      46.072   6.823  12.902  0.00  0.00    +0.000 N 
ATOM     18  C   UNL     1      45.039   6.665  12.022  0.00  0.00    +0.000 C 
ATOM     19  O   UNL     1      44.491   7.622  11.479  0.00  0.00    +0.000 OA
ATOM     20  H   UNL     1      46.342   6.056  13.511  0.00  0.00    +0.000 HD
BRANCH  18  21
ATOM     21  C   UNL     1      44.669   5.282  11.689  0.00  0.00    +0.000 A 
ATOM     22  C   UNL     1      43.952   4.522  12.604  0.00  0.00    +0.000 A 
ATOM     23  S   UNL     1      43.544   2.967  12.032  0.00  0.00    +0.000 S 
ATOM     24  C   UNL     1      44.352   3.237  10.560  0.00  0.00    +0.000 A 
ATOM     25  N   UNL     1      44.398   2.273   9.600  0.00  0.00    +0.000 NA
ATOM     26  C   UNL     1      45.071   2.599   8.549  0.00  0.00    +0.000 A 
ATOM     27  N   UNL     1      45.699   3.804   8.366  0.00  0.00    +0.000 N 
ATOM     28  C   UNL     1      45.638   4.823   9.286  0.00  0.00    +0.000 A 
ATOM     29  O   UNL     1      46.142   5.916   9.055  0.00  0.00    +0.000 OA
ATOM     30  C   UNL     1      44.912   4.500  10.499  0.00  0.00    +0.000 A 
ATOM     31  H   UNL     1      46.198   4.006   7.512  0.00  0.00    +0.000 HD
ENDBRANCH  18  21
ENDBRANCH   1  17
TORSDOF 6
ENDMDL
