MODEL 1
REMARK VINA RESULT:    -7.535      0.000      0.000
REMARK INTER + INTRA:          -9.963
REMARK INTER:                  -9.517
REMARK INTRA:                  -0.446
REMARK UNBOUND:                -0.446
REMARK  Name = 
REMARK  5 active torsions:
REMARK  status: ('A' for Active; 'I' for Inactive)
REMARK    1  A    between atoms: N_1  and  C_2
REMARK    2  A    between atoms: C_2  and  C_3
REMARK    3  A    between atoms: C_6  and  N_7
REMARK    4  A    between atoms: N_7  and  C_8
REMARK    5  A    between atoms: C_8  and  C_9
REMARK                            x       y       z     vdW  Elec       q    Type
REMARK                         _______ _______ _______ _____ _____    ______ ____
ROOT
ATOM      1  C   UNL     1      46.362   4.702  13.401  0.00  0.00    +0.000 A 
ATOM      2  N   UNL     1      45.734   3.503  13.246  0.00  0.00    +0.000 NA
ATOM      3  C   UNL     1      45.062   3.287  12.088  0.00  0.00    +0.000 A 
ATOM      4  C   UNL     1      44.919   4.206  11.046  0.00  0.00    +0.000 A 
ATOM      5  C   UNL     1      45.568   5.427  11.239  0.00  0.00    +0.000 A 
ATOM      6  C   UNL     1      46.282   5.693  12.420  0.00  0.00    +0.000 A 
ATOM      7  I   UNL     1      47.201   7.569  12.572  0.00  0.00    +0.000 I 
ENDROOT
BRANCH   4   8
ATOM      8  N   UNL     1      44.303   3.835   9.853  0.00  0.00    +0.000 N 
ATOM      9  H   UNL     1      44.399   4.526   9.113  0.00  0.00    +0.000 HD
BRANCH   8  10
ATOM     10  C   UNL     1      44.421   2.481   9.323  0.00  0.00    +0.000 C 
BRANCH  10  11
ATOM     11  C   UNL     1      45.551   2.428   8.318  0.00  0.00    +0.000 A 
ATOM     12  C   UNL     1      46.294   1.258   8.117  0.00  0.00    +0.000 A 
ATOM     13  C   UNL     1      47.294   1.214   7.141  0.00  0.00    +0.000 A 
ATOM     14  C   UNL     1      47.562   2.337   6.358  0.00  0.00    +0.000 A 
ATOM     15  C   UNL     1      46.835   3.509   6.554  0.00  0.00    +0.000 A 
ATOM     16  C   UNL     1      45.836   3.554   7.527  0.00  0.00    +0.000 A 
ENDBRANCH  10  11
ENDBRANCH   8  10
ENDBRANCH   4   8
BRANCH   1  17
ATOM     17  C   UNL     1      47.127   4.852  14.697  0.00  0.00    +0.000 C 
BRANCH  17  18
ATOM     18  N   UNL     1      47.427   3.566  15.332  0.00  0.00    +0.000 NA
ATOM     19  H   UNL     1      47.282   2.825  14.650  0.00  0.00    +0.000 HD
ATOM     20  H   UNL     1      46.724   3.417  16.060  0.00  0.00    +0.000 HD
ENDBRANCH  17  18
ENDBRANCH   1  17
TORSDOF 5
ENDMDL
MODEL 2
REMARK VINA RESULT:    -6.968      1.616      2.126
REMARK INTER + INTRA:          -9.247
REMARK INTER:                  -8.728
REMARK INTRA:                  -0.519
REMARK UNBOUND:                -0.446
REMARK  Name = 
REMARK  5 active torsions:
REMARK  status: ('A' for Active; 'I' for Inactive)
REMARK    1  A    between atoms: N_1  and  C_2
REMARK    2  A    between atoms: C_2  and  C_3
REMARK    3  A    between atoms: C_6  and  N_7
REMARK    4  A    between atoms: N_7  and  C_8
REMARK    5  A    between atoms: C_8  and  C_9
REMARK                            x       y       z     vdW  Elec       q    Type
REMARK                         _______ _______ _______ _____ _____    ______ ____
ROOT
ATOM      1  C   UNL     1      47.176   5.694  13.535  0.00  0.00    +0.000 A 
ATOM      2  N   UNL     1      47.363   4.359  13.725  0.00  0.00    +0.000 NA
ATOM      3  C   UNL     1      46.485   3.509  13.135  0.00  0.00    +0.000 A 
ATOM      4  C   UNL     1      45.373   3.883  12.378  0.00  0.00    +0.000 A 
ATOM      5  C   UNL     1      45.206   5.258  12.209  0.00  0.00    +0.000 A 
ATOM      6  C   UNL     1      46.094   6.176  12.795  0.00  0.00    +0.000 A 
ATOM      7  I   UNL     1      45.717   8.209  12.459  0.00  0.00    +0.000 I 
ENDROOT
BRANCH   4   8
ATOM      8  N   UNL     1      44.605   2.921  11.724  0.00  0.00    +0.000 N 
ATOM      9  H   UNL     1      44.008   2.384  12.348  0.00  0.00    +0.000 HD
BRANCH   8  10
ATOM     10  C   UNL     1      43.923   3.216  10.469  0.00  0.00    +0.000 C 
BRANCH  10  11
ATOM     11  C   UNL     1      44.894   3.065   9.319  0.00  0.00    +0.000 A 
ATOM     12  C   UNL     1      45.372   4.179   8.616  0.00  0.00    +0.000 A 
ATOM     13  C   UNL     1      46.314   4.021   7.596  0.00  0.00    +0.000 A 
ATOM     14  C   UNL     1      46.788   2.752   7.267  0.00  0.00    +0.000 A 
ATOM     15  C   UNL     1      46.316   1.635   7.953  0.00  0.00    +0.000 A 
ATOM     16  C   UNL     1      45.376   1.790   8.972  0.00  0.00    +0.000 A 
ENDBRANCH  10  11
ENDBRANCH   8  10
ENDBRANCH   4   8
BRANCH   1  17
ATOM     17  C   UNL     1      48.219   6.576  14.185  0.00  0.00    +0.000 C 
BRANCH  17  18
ATOM     18  N   UNL     1      49.418   6.743  13.358  0.00  0.00    +0.000 NA
ATOM     19  H   UNL     1      49.329   6.154  12.534  0.00  0.00    +0.000 HD
ATOM     20  H   UNL     1      50.205   6.364  13.889  0.00  0.00    +0.000 HD
ENDBRANCH  17  18
ENDBRANCH   1  17
TORSDOF 5
ENDMDL
MODEL 3
REMARK VINA RESULT:    -6.451      1.956      2.207
REMARK INTER + INTRA:          -8.595
REMARK INTER:                  -8.177
REMARK INTRA:                  -0.418
REMARK UNBOUND:                -0.446
REMARK  Name = 
REMARK  5 active torsions:
REMARK  status: ('A' for Active; 'I' for Inactive)
REMARK    1  A    between atoms: N_1  and  C_2
REMARK    2  A    between atoms: C_2  and  C_3
REMARK    3  A    between atoms: C_6  and  N_7
REMARK    4  A    between atoms: N_7  and  C_8
REMARK    5  A    between atoms: C_8  and  C_9
REMARK                            x       y       z     vdW  Elec       q    Type
REMARK                         _______ _______ _______ _____ _____    ______ ____
ROOT
ATOM      1  C   UNL     1      47.068   6.076  13.178  0.00  0.00    +0.000 A 
ATOM      2  N   UNL     1      46.632   6.515  11.965  0.00  0.00    +0.000 NA
ATOM      3  C   UNL     1      45.788   5.713  11.269  0.00  0.00    +0.000 A 
ATOM      4  C   UNL     1      45.353   4.447  11.668  0.00  0.00    +0.000 A 
ATOM      5  C   UNL     1      45.824   4.024  12.912  0.00  0.00    +0.000 A 
ATOM      6  C   UNL     1      46.695   4.824  13.672  0.00  0.00    +0.000 A 
ATOM      7  I   UNL     1      47.324   4.056  15.517  0.00  0.00    +0.000 I 
ENDROOT
BRANCH   4   8
ATOM      8  N   UNL     1      44.394   3.761  10.927  0.00  0.00    +0.000 N 
ATOM      9  H   UNL     1      43.505   3.656  11.410  0.00  0.00    +0.000 HD
BRANCH   8  10
ATOM     10  C   UNL     1      44.191   4.030   9.508  0.00  0.00    +0.000 C 
BRANCH  10  11
ATOM     11  C   UNL     1      45.211   3.261   8.698  0.00  0.00    +0.000 A 
ATOM     12  C   UNL     1      45.383   1.880   8.863  0.00  0.00    +0.000 A 
ATOM     13  C   UNL     1      46.289   1.179   8.062  0.00  0.00    +0.000 A 
ATOM     14  C   UNL     1      47.033   1.849   7.091  0.00  0.00    +0.000 A 
ATOM     15  C   UNL     1      46.877   3.223   6.923  0.00  0.00    +0.000 A 
ATOM     16  C   UNL     1      45.973   3.924   7.720  0.00  0.00    +0.000 A 
ENDBRANCH  10  11
ENDBRANCH   8  10
ENDBRANCH   4   8
BRANCH   1  17
ATOM     17  C   UNL     1      47.970   7.042  13.914  0.00  0.00    +0.000 C 
BRANCH  17  18
ATOM     18  N   UNL     1      49.393   6.782  13.680  0.00  0.00    +0.000 NA
ATOM     19  H   UNL     1      49.509   6.440  12.729  0.00  0.00    +0.000 HD
ATOM     20  H   UNL     1      49.661   6.007  14.290  0.00  0.00    +0.000 HD
ENDBRANCH  17  18
ENDBRANCH   1  17
TORSDOF 5
ENDMDL
MODEL 4
REMARK VINA RESULT:    -6.157      1.724      2.592
REMARK INTER + INTRA:          -8.223
REMARK INTER:                  -7.889
REMARK INTRA:                  -0.334
REMARK UNBOUND:                -0.446
REMARK  Name = 
REMARK  5 active torsions:
REMARK  status: ('A' for Active; 'I' for Inactive)
REMARK    1  A    between atoms: N_1  and  C_2
REMARK    2  A    between atoms: C_2  and  C_3
REMARK    3  A    between atoms: C_6  and  N_7
REMARK    4  A    between atoms: N_7  and  C_8
REMARK    5  A    between atoms: C_8  and  C_9
REMARK                            x       y       z     vdW  Elec       q    Type
REMARK                         _______ _______ _______ _____ _____    ______ ____
ROOT
ATOM      1  C   UNL     1      47.363   4.662  15.295  0.00  0.00    +0.000 A 
ATOM      2  N   UNL     1      46.433   3.937  14.614  0.00  0.00    +0.000 NA
ATOM      3  C   UNL     1      46.016   4.412  13.414  0.00  0.00    +0.000 A 
ATOM      4  C   UNL     1      46.426   5.610  12.826  0.00  0.00    +0.000 A 
ATOM      5  C   UNL     1      47.374   6.333  13.552  0.00  0.00    +0.000 A 
ATOM      6  C   UNL     1      47.841   5.876  14.796  0.00  0.00    +0.000 A 
ATOM      7  I   UNL     1      49.260   7.067  15.774  0.00  0.00    +0.000 I 
ENDROOT
BRANCH   4   8
ATOM      8  N   UNL     1      46.018   5.943  11.536  0.00  0.00    +0.000 N 
ATOM      9  H   UNL     1      46.782   5.982  10.865  0.00  0.00    +0.000 HD
BRANCH   8  10
ATOM     10  C   UNL     1      44.825   5.355  10.939  0.00  0.00    +0.000 C 
BRANCH  10  11
ATOM     11  C   UNL     1      45.231   4.356   9.878  0.00  0.00    +0.000 A 
ATOM     12  C   UNL     1      44.940   2.991  10.011  0.00  0.00    +0.000 A 
ATOM     13  C   UNL     1      45.272   2.095   8.991  0.00  0.00    +0.000 A 
ATOM     14  C   UNL     1      45.898   2.550   7.831  0.00  0.00    +0.000 A 
ATOM     15  C   UNL     1      46.199   3.903   7.690  0.00  0.00    +0.000 A 
ATOM     16  C   UNL     1      45.868   4.800   8.706  0.00  0.00    +0.000 A 
ENDBRANCH  10  11
ENDBRANCH   8  10
ENDBRANCH   4   8
BRANCH   1  17
ATOM     17  C   UNL     1      47.813   4.046  16.602  0.00  0.00    +0.000 C 
BRANCH  17  18
ATOM     18  N   UNL     1      46.700   3.504  17.386  0.00  0.00    +0.000 NA
ATOM     19  H   UNL     1      46.328   2.690  16.903  0.00  0.00    +0.000 HD
ATOM     20  H   UNL     1      45.953   4.202  17.373  0.00  0.00    +0.000 HD
ENDBRANCH  17  18
ENDBRANCH   1  17
TORSDOF 5
ENDMDL
MODEL 5
REMARK VINA RESULT:    -6.102      2.999      5.793
REMARK INTER + INTRA:          -8.153
REMARK INTER:                  -7.758
REMARK INTRA:                  -0.395
REMARK UNBOUND:                -0.446
REMARK  Name = 
REMARK  5 active torsions:
REMARK  status: ('A' for Active; 'I' for Inactive)
REMARK    1  A    between atoms: N_1  and  C_2
REMARK    2  A    between atoms: C_2  and  C_3
REMARK    3  A    between atoms: C_6  and  N_7
REMARK    4  A    between atoms: N_7  and  C_8
REMARK    5  A    between atoms: C_8  and  C_9
REMARK                            x       y       z     vdW  Elec       q    Type
REMARK                         _______ _______ _______ _____ _____    ______ ____
ROOT
ATOM      1  C   UNL     1      46.372   1.608   7.889  0.00  0.00    +0.000 A 
ATOM      2  N   UNL     1      45.652   1.399   9.026  0.00  0.00    +0.000 NA
ATOM      3  C   UNL     1      44.843   2.401   9.453  0.00  0.00    +0.000 A 
ATOM      4  C   UNL     1      44.711   3.654   8.851  0.00  0.00    +0.000 A 
ATOM      5  C   UNL     1      45.468   3.838   7.692  0.00  0.00    +0.000 A 
ATOM      6  C   UNL     1      46.315   2.826   7.209  0.00  0.00    +0.000 A 
ATOM      7  I   UNL     1      47.394   3.245   5.463  0.00  0.00    +0.000 I 
ENDROOT
BRANCH   4   8
ATOM      8  N   UNL     1      43.762   4.565   9.310  0.00  0.00    +0.000 N 
ATOM      9  H   UNL     1      42.915   4.589   8.748  0.00  0.00    +0.000 HD
BRANCH   8  10
ATOM     10  C   UNL     1      43.453   4.693  10.730  0.00  0.00    +0.000 C 
BRANCH  10  11
ATOM     11  C   UNL     1      44.664   5.224  11.464  0.00  0.00    +0.000 A 
ATOM     12  C   UNL     1      45.266   4.497  12.500  0.00  0.00    +0.000 A 
ATOM     13  C   UNL     1      46.419   4.979  13.125  0.00  0.00    +0.000 A 
ATOM     14  C   UNL     1      46.982   6.191  12.724  0.00  0.00    +0.000 A 
ATOM     15  C   UNL     1      46.388   6.927  11.701  0.00  0.00    +0.000 A 
ATOM     16  C   UNL     1      45.237   6.447  11.075  0.00  0.00    +0.000 A 
ENDBRANCH  10  11
ENDBRANCH   8  10
ENDBRANCH   4   8
BRANCH   1  17
ATOM     17  C   UNL     1      47.216   0.431   7.451  0.00  0.00    +0.000 C 
BRANCH  17  18
ATOM     18  N   UNL     1      46.548  -0.856   7.660  0.00  0.00    +0.000 NA
ATOM     19  H   UNL     1      45.640  -0.686   8.086  0.00  0.00    +0.000 HD
ATOM     20  H   UNL     1      47.092  -1.369   8.356  0.00  0.00    +0.000 HD
ENDBRANCH  17  18
ENDBRANCH   1  17
TORSDOF 5
ENDMDL
MODEL 6
REMARK VINA RESULT:    -5.991      2.370      2.772
REMARK INTER + INTRA:          -8.014
REMARK INTER:                  -7.820
REMARK INTRA:                  -0.194
REMARK UNBOUND:                -0.446
REMARK  Name = 
REMARK  5 active torsions:
REMARK  status: ('A' for Active; 'I' for Inactive)
REMARK    1  A    between atoms: N_1  and  C_2
REMARK    2  A    between atoms: C_2  and  C_3
REMARK    3  A    between atoms: C_6  and  N_7
REMARK    4  A    between atoms: N_7  and  C_8
REMARK    5  A    between atoms: C_8  and  C_9
REMARK                            x       y       z     vdW  Elec       q    Type
REMARK                         _______ _______ _______ _____ _____    ______ ____
ROOT
ATOM      1  C   UNL     1      46.431   7.831  12.775  0.00  0.00    +0.000 A 
ATOM      2  N   UNL     1      46.438   6.477  12.916  0.00  0.00    +0.000 NA
ATOM      3  C   UNL     1      45.511   5.766  12.228  0.00  0.00    +0.000 A 
ATOM      4  C   UNL     1      44.513   6.303  11.412  0.00  0.00    +0.000 A 
ATOM      5  C   UNL     1      44.529   7.694  11.294  0.00  0.00    +0.000 A 
ATOM      6  C   UNL     1      45.476   8.472  11.983  0.00  0.00    +0.000 A 
ATOM      7  I   UNL     1      45.376  10.547  11.715  0.00  0.00    +0.000 I 
ENDROOT
BRANCH   4   8
ATOM      8  N   UNL     1      43.686   5.470  10.661  0.00  0.00    +0.000 N 
ATOM      9  H   UNL     1      43.562   5.779   9.700  0.00  0.00    +0.000 HD
BRANCH   8  10
ATOM     10  C   UNL     1      43.797   4.018  10.736  0.00  0.00    +0.000 C 
BRANCH  10  11
ATOM     11  C   UNL     1      44.718   3.526   9.641  0.00  0.00    +0.000 A 
ATOM     12  C   UNL     1      44.984   2.160   9.472  0.00  0.00    +0.000 A 
ATOM     13  C   UNL     1      45.790   1.722   8.417  0.00  0.00    +0.000 A 
ATOM     14  C   UNL     1      46.339   2.642   7.523  0.00  0.00    +0.000 A 
ATOM     15  C   UNL     1      46.088   4.002   7.686  0.00  0.00    +0.000 A 
ATOM     16  C   UNL     1      45.283   4.441   8.737  0.00  0.00    +0.000 A 
ENDBRANCH  10  11
ENDBRANCH   8  10
ENDBRANCH   4   8
BRANCH   1  17
ATOM     17  C   UNL     1      47.522   8.552  13.537  0.00  0.00    +0.000 C 
BRANCH  17  18
ATOM     18  N   UNL     1      47.123   8.904  14.902  0.00  0.00    +0.000 NA
ATOM     19  H   UNL     1      46.119   8.770  14.993  0.00  0.00    +0.000 HD
ATOM     20  H   UNL     1      47.282   9.907  15.014  0.00  0.00    +0.000 HD
ENDBRANCH  17  18
ENDBRANCH   1  17
TORSDOF 5
ENDMDL
MODEL 7
REMARK VINA RESULT:    -5.533      3.085      7.246
REMARK INTER + INTRA:          -7.435
REMARK INTER:                  -7.088
REMARK INTRA:                  -0.347
REMARK UNBOUND:                -0.446
REMARK  Name = 
REMARK  5 active torsions:
REMARK  status: ('A' for Active; 'I' for Inactive)
REMARK    1  A    between atoms: N_1  and  C_2
REMARK    2  A    between atoms: C_2  and  C_3
REMARK    3  A    between atoms: C_6  and  N_7
REMARK    4  A    between atoms: N_7  and  C_8
REMARK    5  A    between atoms: C_8  and  C_9
REMARK                            x       y       z     vdW  Elec       q    Type
REMARK                         _______ _______ _______ _____ _____    ______ ____
ROOT
ATOM      1  C   UNL     1      45.161   3.750  12.170  0.00  0.00    +0.000 A 
ATOM      2  N   UNL     1      45.964   2.905  12.874  0.00  0.00    +0.000 NA
ATOM      3  C   UNL     1      46.709   3.433  13.878  0.00  0.00    +0.000 A 
ATOM      4  C   UNL     1      46.760   4.783  14.231  0.00  0.00    +0.000 A 
ATOM      5  C   UNL     1      45.931   5.622  13.485  0.00  0.00    +0.000 A 
ATOM      6  C   UNL     1      45.136   5.119  12.441  0.00  0.00    +0.000 A 
ATOM      7  I   UNL     1      43.946   6.497  11.405  0.00  0.00    +0.000 I 
ENDROOT
BRANCH   4   8
ATOM      8  N   UNL     1      47.473   5.195  15.355  0.00  0.00    +0.000 N 
ATOM      9  H   UNL     1      47.486   6.205  15.480  0.00  0.00    +0.000 HD
BRANCH   8  10
ATOM     10  C   UNL     1      47.342   4.509  16.635  0.00  0.00    +0.000 C 
BRANCH  10  11
ATOM     11  C   UNL     1      48.672   3.898  17.018  0.00  0.00    +0.000 A 
ATOM     12  C   UNL     1      48.948   2.544  16.783  0.00  0.00    +0.000 A 
ATOM     13  C   UNL     1      50.205   2.015  17.091  0.00  0.00    +0.000 A 
ATOM     14  C   UNL     1      51.197   2.830  17.636  0.00  0.00    +0.000 A 
ATOM     15  C   UNL     1      50.932   4.175  17.882  0.00  0.00    +0.000 A 
ATOM     16  C   UNL     1      49.679   4.706  17.575  0.00  0.00    +0.000 A 
ENDBRANCH  10  11
ENDBRANCH   8  10
ENDBRANCH   4   8
BRANCH   1  17
ATOM     17  C   UNL     1      44.328   3.082  11.098  0.00  0.00    +0.000 C 
BRANCH  17  18
ATOM     18  N   UNL     1      43.140   2.414  11.635  0.00  0.00    +0.000 NA
ATOM     19  H   UNL     1      42.360   2.582  11.004  0.00  0.00    +0.000 HD
ATOM     20  H   UNL     1      42.898   2.886  12.509  0.00  0.00    +0.000 HD
ENDBRANCH  17  18
ENDBRANCH   1  17
TORSDOF 5
ENDMDL
MODEL 8
REMARK VINA RESULT:    -5.413      2.545      4.134
REMARK INTER + INTRA:          -7.283
REMARK INTER:                  -6.942
REMARK INTRA:                  -0.341
REMARK UNBOUND:                -0.446
REMARK  Name = 
REMARK  5 active torsions:
REMARK  status: ('A' for Active; 'I' for Inactive)
REMARK    1  A    between atoms: N_1  and  C_2
REMARK    2  A    between atoms: C_2  and  C_3
REMARK    3  A    between atoms: C_6  and  N_7
REMARK    4  A    between atoms: N_7  and  C_8
REMARK    5  A    between atoms: C_8  and  C_9
REMARK                            x       y       z     vdW  Elec       q    Type
REMARK                         _______ _______ _______ _____ _____    ______ ____
ROOT
ATOM      1  C   UNL     1      48.642   6.057  15.482  0.00  0.00    +0.000 A 
ATOM      2  N   UNL     1      48.370   6.345  14.180  0.00  0.00    +0.000 NA
ATOM      3  C   UNL     1      47.429   5.597  13.551  0.00  0.00    +0.000 A 
ATOM      4  C   UNL     1      46.736   4.522  14.111  0.00  0.00    +0.000 A 
ATOM      5  C   UNL     1      47.043   4.248  15.444  0.00  0.00    +0.000 A 
ATOM      6  C   UNL     1      48.006   5.001  16.138  0.00  0.00    +0.000 A 
ATOM      7  I   UNL     1      48.367   4.473  18.133  0.00  0.00    +0.000 I 
ENDROOT
BRANCH   4   8
ATOM      8  N   UNL     1      45.707   3.899  13.407  0.00  0.00    +0.000 N 
ATOM      9  H   UNL     1      45.250   3.155  13.930  0.00  0.00    +0.000 HD
BRANCH   8  10
ATOM     10  C   UNL     1      44.740   4.667  12.632  0.00  0.00    +0.000 C 
BRANCH  10  11
ATOM     11  C   UNL     1      44.828   4.266  11.176  0.00  0.00    +0.000 A 
ATOM     12  C   UNL     1      45.376   5.126  10.215  0.00  0.00    +0.000 A 
ATOM     13  C   UNL     1      45.502   4.712   8.886  0.00  0.00    +0.000 A 
ATOM     14  C   UNL     1      45.083   3.438   8.503  0.00  0.00    +0.000 A 
ATOM     15  C   UNL     1      44.529   2.577   9.448  0.00  0.00    +0.000 A 
ATOM     16  C   UNL     1      44.402   2.988  10.775  0.00  0.00    +0.000 A 
ENDBRANCH  10  11
ENDBRANCH   8  10
ENDBRANCH   4   8
BRANCH   1  17
ATOM     17  C   UNL     1      49.669   6.961  16.129  0.00  0.00    +0.000 C 
BRANCH  17  18
ATOM     18  N   UNL     1      51.009   6.798  15.558  0.00  0.00    +0.000 NA
ATOM     19  H   UNL     1      50.919   6.395  14.628  0.00  0.00    +0.000 HD
ATOM     20  H   UNL     1      51.493   6.096  16.121  0.00  0.00    +0.000 HD
ENDBRANCH  17  18
ENDBRANCH   1  17
TORSDOF 5
ENDMDL
MODEL 9
REMARK VINA RESULT:    -5.337      4.606      7.329
REMARK INTER + INTRA:          -7.188
REMARK INTER:                  -6.877
REMARK INTRA:                  -0.311
REMARK UNBOUND:                -0.446
REMARK  Name = 
REMARK  5 active torsions:
REMARK  status: ('A' for Active; 'I' for Inactive)
REMARK    1  A    between atoms: N_1  and  C_2
REMARK    2  A    between atoms: C_2  and  C_3
REMARK    3  A    between atoms: C_6  and  N_7
REMARK    4  A    between atoms: N_7  and  C_8
REMARK    5  A    between atoms: C_8  and  C_9
REMARK                            x       y       z     vdW  Elec       q    Type
REMARK                         _______ _______ _______ _____ _____    ______ ____
ROOT
ATOM      1  C   UNL     1      45.642   6.774  12.620  0.00  0.00    +0.000 A 
ATOM      2  N   UNL     1      46.838   6.912  13.256  0.00  0.00    +0.000 NA
ATOM      3  C   UNL     1      47.273   5.876  14.016  0.00  0.00    +0.000 A 
ATOM      4  C   UNL     1      46.581   4.685  14.241  0.00  0.00    +0.000 A 
ATOM      5  C   UNL     1      45.355   4.577  13.581  0.00  0.00    +0.000 A 
ATOM      6  C   UNL     1      44.867   5.622  12.779  0.00  0.00    +0.000 A 
ATOM      7  I   UNL     1      43.011   5.323  11.855  0.00  0.00    +0.000 I 
ENDROOT
BRANCH   4   8
ATOM      8  N   UNL     1      47.176   3.641  14.946  0.00  0.00    +0.000 N 
ATOM      9  H   UNL     1      48.069   3.345  14.558  0.00  0.00    +0.000 HD
BRANCH   8  10
ATOM     10  C   UNL     1      47.208   3.627  16.404  0.00  0.00    +0.000 C 
BRANCH  10  11
ATOM     11  C   UNL     1      48.633   3.440  16.876  0.00  0.00    +0.000 A 
ATOM     12  C   UNL     1      49.254   2.183  16.841  0.00  0.00    +0.000 A 
ATOM     13  C   UNL     1      50.590   2.044  17.226  0.00  0.00    +0.000 A 
ATOM     14  C   UNL     1      51.320   3.155  17.649  0.00  0.00    +0.000 A 
ATOM     15  C   UNL     1      50.712   4.407  17.696  0.00  0.00    +0.000 A 
ATOM     16  C   UNL     1      49.378   4.549  17.312  0.00  0.00    +0.000 A 
ENDBRANCH  10  11
ENDBRANCH   8  10
ENDBRANCH   4   8
BRANCH   1  17
ATOM     17  C   UNL     1      45.244   7.951  11.758  0.00  0.00    +0.000 C 
BRANCH  17  18
ATOM     18  N   UNL     1      44.869   9.130  12.543  0.00  0.00    +0.000 NA
ATOM     19  H   UNL     1      45.576   9.849  12.408  0.00  0.00    +0.000 HD
ATOM     20  H   UNL     1      44.923   8.866  13.529  0.00  0.00    +0.000 HD
ENDBRANCH  17  18
ENDBRANCH   1  17
TORSDOF 5
ENDMDL
