MODEL 1
REMARK VINA RESULT:    -8.235      0.000      0.000
REMARK INTER + INTRA:         -12.291
REMARK INTER:                 -11.364
REMARK INTRA:                  -0.927
REMARK UNBOUND:                -0.927
REMARK  Name = 
REMARK  7 active torsions:
REMARK  status: ('A' for Active; 'I' for Inactive)
REMARK    1  A    between atoms: N_1  and  C_2
REMARK    2  A    between atoms: C_2  and  C_3
REMARK    3  A    between atoms: C_6  and  O_7
REMARK    4  A    between atoms: O_7  and  C_8
REMARK    5  A    between atoms: C_8  and  C_9
REMARK    6  A    between atoms: C_9  and  C_12
REMARK    7  A    between atoms: C_15  and  C_16
REMARK                            x       y       z     vdW  Elec       q    Type
REMARK                         _______ _______ _______ _____ _____    ______ ____
ROOT
ATOM      1  C   UNL     1      43.979   3.203  10.874  0.00  0.00    +0.000 C 
ATOM      2  F   UNL     1      43.193   2.104  11.070  0.00  0.00    +0.000 F 
ATOM      3  F   UNL     1      43.096   4.243  10.732  0.00  0.00    +0.000 F 
ENDROOT
BRANCH   1   4
ATOM      4  C   UNL     1      44.870   3.071   9.656  0.00  0.00    +0.000 A 
ATOM      5  C   UNL     1      45.274   4.204   8.935  0.00  0.00    +0.000 A 
ATOM      6  C   UNL     1      46.078   4.075   7.797  0.00  0.00    +0.000 A 
ATOM      7  C   UNL     1      46.494   2.807   7.363  0.00  0.00    +0.000 A 
ATOM      8  C   UNL     1      46.096   1.686   8.089  0.00  0.00    +0.000 A 
ATOM      9  F   UNL     1      46.469   0.449   7.723  0.00  0.00    +0.000 F 
ATOM     10  C   UNL     1      45.293   1.807   9.221  0.00  0.00    +0.000 A 
BRANCH   7  11
ATOM     11  C   UNL     1      47.338   2.708   6.143  0.00  0.00    +0.000 C 
ATOM     12  N   UNL     1      48.670   2.456   6.309  0.00  0.00    +0.000 N 
ATOM     13  O   UNL     1      46.860   2.844   5.024  0.00  0.00    +0.000 OA
ATOM     14  H   UNL     1      49.106   2.338   7.215  0.00  0.00    +0.000 HD
ATOM     15  H   UNL     1      49.249   2.385   5.480  0.00  0.00    +0.000 HD
ENDBRANCH   7  11
ENDBRANCH   1   4
BRANCH   1  16
ATOM     16  C   UNL     1      44.781   3.473  12.155  0.00  0.00    +0.000 C 
BRANCH  16  17
ATOM     17  O   UNL     1      44.718   4.851  12.547  0.00  0.00    +0.000 OA
BRANCH  17  21
ATOM     18  C   UNL     1      48.349   6.764  12.932  0.00  0.00    +0.000 A 
ATOM     19  C   UNL     1      47.583   7.072  11.811  0.00  0.00    +0.000 A 
ATOM     20  C   UNL     1      46.351   6.446  11.636  0.00  0.00    +0.000 A 
ATOM     21  C   UNL     1      45.910   5.520  12.575  0.00  0.00    +0.000 A 
ATOM     22  C   UNL     1      46.752   5.254  13.650  0.00  0.00    +0.000 A 
ATOM     23  N   UNL     1      47.952   5.852  13.853  0.00  0.00    +0.000 NA
BRANCH  18  24
ATOM     24  C   UNL     1      49.640   7.513  13.187  0.00  0.00    +0.000 C 
BRANCH  24  25
ATOM     25  N   UNL     1      50.276   7.091  14.441  0.00  0.00    +0.000 NA
ATOM     26  H   UNL     1      49.820   7.568  15.216  0.00  0.00    +0.000 HD
ATOM     27  H   UNL     1      51.238   7.434  14.427  0.00  0.00    +0.000 HD
ENDBRANCH  24  25
ENDBRANCH  18  24
ENDBRANCH  17  21
ENDBRANCH  16  17
ENDBRANCH   1  16
TORSDOF 7
ENDMDL
MODEL 2
REMARK VINA RESULT:    -7.971      2.236      6.389
REMARK INTER + INTRA:         -11.927
REMARK INTER:                 -11.158
REMARK INTRA:                  -0.769
REMARK UNBOUND:                -0.927
REMARK  Name = 
REMARK  7 active torsions:
REMARK  status: ('A' for Active; 'I' for Inactive)
REMARK    1  A    between atoms: N_1  and  C_2
REMARK    2  A    between atoms: C_2  and  C_3
REMARK    3  A    between atoms: C_6  and  O_7
REMARK    4  A    between atoms: O_7  and  C_8
REMARK    5  A    between atoms: C_8  and  C_9
REMARK    6  A    between atoms: C_9  and  C_12
REMARK    7  A    between atoms: C_15  and  C_16
REMARK                            x       y       z     vdW  Elec       q    Type
REMARK                         _______ _______ _______ _____ _____    ______ ____
ROOT
ATOM      1  C   UNL     1      43.897   4.357  12.135  0.00  0.00    +0.000 C 
ATOM      2  F   UNL     1      42.826   4.964  12.725  0.00  0.00    +0.000 F 
ATOM      3  F   UNL     1      43.905   3.085  12.649  0.00  0.00    +0.000 F 
ENDROOT
BRANCH   1   4
ATOM      4  C   UNL     1      45.201   5.072  12.424  0.00  0.00    +0.000 A 
ATOM      5  C   UNL     1      45.737   5.988  11.508  0.00  0.00    +0.000 A 
ATOM      6  C   UNL     1      46.953   6.629  11.769  0.00  0.00    +0.000 A 
ATOM      7  C   UNL     1      47.653   6.364  12.956  0.00  0.00    +0.000 A 
ATOM      8  C   UNL     1      47.111   5.458  13.866  0.00  0.00    +0.000 A 
ATOM      9  F   UNL     1      47.735   5.171  15.020  0.00  0.00    +0.000 F 
ATOM     10  C   UNL     1      45.902   4.815  13.611  0.00  0.00    +0.000 A 
BRANCH   7  11
ATOM     11  C   UNL     1      48.948   7.055  13.194  0.00  0.00    +0.000 C 
ATOM     12  N   UNL     1      49.889   7.003  12.206  0.00  0.00    +0.000 N 
ATOM     13  O   UNL     1      49.168   7.656  14.238  0.00  0.00    +0.000 OA
ATOM     14  H   UNL     1      49.750   6.517  11.329  0.00  0.00    +0.000 HD
ATOM     15  H   UNL     1      50.773   7.475  12.363  0.00  0.00    +0.000 HD
ENDBRANCH   7  11
ENDBRANCH   1   4
BRANCH   1  16
ATOM     16  C   UNL     1      43.626   4.227  10.629  0.00  0.00    +0.000 C 
BRANCH  16  17
ATOM     17  O   UNL     1      43.876   2.899  10.152  0.00  0.00    +0.000 OA
BRANCH  17  21
ATOM     18  C   UNL     1      46.600   2.849   7.059  0.00  0.00    +0.000 A 
ATOM     19  C   UNL     1      46.390   1.654   7.742  0.00  0.00    +0.000 A 
ATOM     20  C   UNL     1      45.482   1.624   8.798  0.00  0.00    +0.000 A 
ATOM     21  C   UNL     1      44.808   2.786   9.159  0.00  0.00    +0.000 A 
ATOM     22  C   UNL     1      45.100   3.940   8.440  0.00  0.00    +0.000 A 
ATOM     23  N   UNL     1      45.971   4.000   7.402  0.00  0.00    +0.000 NA
BRANCH  18  24
ATOM     24  C   UNL     1      47.505   2.870   5.846  0.00  0.00    +0.000 C 
BRANCH  24  25
ATOM     25  N   UNL     1      48.467   1.762   5.865  0.00  0.00    +0.000 NA
ATOM     26  H   UNL     1      48.030   0.955   6.307  0.00  0.00    +0.000 HD
ATOM     27  H   UNL     1      49.237   2.035   6.480  0.00  0.00    +0.000 HD
ENDBRANCH  24  25
ENDBRANCH  18  24
ENDBRANCH  17  21
ENDBRANCH  16  17
ENDBRANCH   1  16
TORSDOF 7
ENDMDL
MODEL 3
REMARK VINA RESULT:    -7.532      1.401      1.715
REMARK INTER + INTRA:         -11.322
REMARK INTER:                 -10.482
REMARK INTRA:                  -0.840
REMARK UNBOUND:                -0.927
REMARK  Name = 
REMARK  7 active torsions:
REMARK  status: ('A' for Active; 'I' for Inactive)
REMARK    1  A    between atoms: N_1  and  C_2
REMARK    2  A    between atoms: C_2  and  C_3
REMARK    3  A    between atoms: C_6  and  O_7
REMARK    4  A    between atoms: O_7  and  C_8
REMARK    5  A    between atoms: C_8  and  C_9
REMARK    6  A    between atoms: C_9  and  C_12
REMARK    7  A    between atoms: C_15  and  C_16
REMARK                            x       y       z     vdW  Elec       q    Type
REMARK                         _______ _______ _______ _____ _____    ______ ____
ROOT
ATOM      1  C   UNL     1      43.737   3.617  11.077  0.00  0.00    +0.000 C 
ATOM      2  F   UNL     1      42.869   2.603  11.366  0.00  0.00    +0.000 F 
ATOM      3  F   UNL     1      42.936   4.697  10.809  0.00  0.00    +0.000 F 
ENDROOT
BRANCH   1   4
ATOM      4  C   UNL     1      44.634   3.295   9.899  0.00  0.00    +0.000 A 
ATOM      5  C   UNL     1      44.767   1.979   9.435  0.00  0.00    +0.000 A 
ATOM      6  C   UNL     1      45.613   1.684   8.361  0.00  0.00    +0.000 A 
ATOM      7  C   UNL     1      46.340   2.705   7.730  0.00  0.00    +0.000 A 
ATOM      8  C   UNL     1      46.197   4.013   8.190  0.00  0.00    +0.000 A 
ATOM      9  F   UNL     1      46.863   5.030   7.620  0.00  0.00    +0.000 F 
ATOM     10  C   UNL     1      45.358   4.313   9.261  0.00  0.00    +0.000 A 
BRANCH   7  11
ATOM     11  C   UNL     1      47.238   2.352   6.599  0.00  0.00    +0.000 C 
ATOM     12  N   UNL     1      47.051   2.998   5.410  0.00  0.00    +0.000 N 
ATOM     13  O   UNL     1      48.121   1.513   6.724  0.00  0.00    +0.000 OA
ATOM     14  H   UNL     1      46.333   3.696   5.263  0.00  0.00    +0.000 HD
ATOM     15  H   UNL     1      47.662   2.762   4.637  0.00  0.00    +0.000 HD
ENDBRANCH   7  11
ENDBRANCH   1   4
BRANCH   1  16
ATOM     16  C   UNL     1      44.538   3.959  12.341  0.00  0.00    +0.000 C 
BRANCH  16  17
ATOM     17  O   UNL     1      44.528   5.366  12.617  0.00  0.00    +0.000 OA
BRANCH  17  21
ATOM     18  C   UNL     1      48.294   7.043  12.632  0.00  0.00    +0.000 A 
ATOM     19  C   UNL     1      47.272   7.777  12.035  0.00  0.00    +0.000 A 
ATOM     20  C   UNL     1      45.984   7.248  12.001  0.00  0.00    +0.000 A 
ATOM     21  C   UNL     1      45.740   5.995  12.555  0.00  0.00    +0.000 A 
ATOM     22  C   UNL     1      46.825   5.321  13.106  0.00  0.00    +0.000 A 
ATOM     23  N   UNL     1      48.088   5.812  13.161  0.00  0.00    +0.000 NA
BRANCH  18  24
ATOM     24  C   UNL     1      49.674   7.651  12.766  0.00  0.00    +0.000 C 
BRANCH  24  25
ATOM     25  N   UNL     1      50.554   7.253  11.661  0.00  0.00    +0.000 NA
ATOM     26  H   UNL     1      50.109   6.499  11.143  0.00  0.00    +0.000 HD
ATOM     27  H   UNL     1      51.399   6.852  12.071  0.00  0.00    +0.000 HD
ENDBRANCH  24  25
ENDBRANCH  18  24
ENDBRANCH  17  21
ENDBRANCH  16  17
ENDBRANCH   1  16
TORSDOF 7
ENDMDL
MODEL 4
REMARK VINA RESULT:    -7.501      1.212      1.409
REMARK INTER + INTRA:         -11.279
REMARK INTER:                 -10.381
REMARK INTRA:                  -0.898
REMARK UNBOUND:                -0.927
REMARK  Name = 
REMARK  7 active torsions:
REMARK  status: ('A' for Active; 'I' for Inactive)
REMARK    1  A    between atoms: N_1  and  C_2
REMARK    2  A    between atoms: C_2  and  C_3
REMARK    3  A    between atoms: C_6  and  O_7
REMARK    4  A    between atoms: O_7  and  C_8
REMARK    5  A    between atoms: C_8  and  C_9
REMARK    6  A    between atoms: C_9  and  C_12
REMARK    7  A    between atoms: C_15  and  C_16
REMARK                            x       y       z     vdW  Elec       q    Type
REMARK                         _______ _______ _______ _____ _____    ______ ____
ROOT
ATOM      1  C   UNL     1      44.022   3.671  11.151  0.00  0.00    +0.000 C 
ATOM      2  F   UNL     1      44.599   3.162  12.279  0.00  0.00    +0.000 F 
ATOM      3  F   UNL     1      42.809   3.037  11.062  0.00  0.00    +0.000 F 
ENDROOT
BRANCH   1   4
ATOM      4  C   UNL     1      44.858   3.429   9.911  0.00  0.00    +0.000 A 
ATOM      5  C   UNL     1      45.344   4.503   9.151  0.00  0.00    +0.000 A 
ATOM      6  C   UNL     1      46.097   4.274   7.994  0.00  0.00    +0.000 A 
ATOM      7  C   UNL     1      46.378   2.964   7.580  0.00  0.00    +0.000 A 
ATOM      8  C   UNL     1      45.900   1.901   8.344  0.00  0.00    +0.000 A 
ATOM      9  F   UNL     1      46.144   0.627   7.998  0.00  0.00    +0.000 F 
ATOM     10  C   UNL     1      45.147   2.122   9.496  0.00  0.00    +0.000 A 
BRANCH   7  11
ATOM     11  C   UNL     1      47.172   2.759   6.339  0.00  0.00    +0.000 C 
ATOM     12  N   UNL     1      48.498   2.461   6.472  0.00  0.00    +0.000 N 
ATOM     13  O   UNL     1      46.658   2.850   5.231  0.00  0.00    +0.000 OA
ATOM     14  H   UNL     1      48.963   2.378   7.367  0.00  0.00    +0.000 HD
ATOM     15  H   UNL     1      49.042   2.319   5.629  0.00  0.00    +0.000 HD
ENDBRANCH   7  11
ENDBRANCH   1   4
BRANCH   1  16
ATOM     16  C   UNL     1      43.729   5.162  11.374  0.00  0.00    +0.000 C 
BRANCH  16  17
ATOM     17  O   UNL     1      44.204   5.616  12.648  0.00  0.00    +0.000 OA
BRANCH  17  21
ATOM     18  C   UNL     1      47.864   7.508  12.506  0.00  0.00    +0.000 A 
ATOM     19  C   UNL     1      47.838   6.206  12.998  0.00  0.00    +0.000 A 
ATOM     20  C   UNL     1      46.624   5.529  13.071  0.00  0.00    +0.000 A 
ATOM     21  C   UNL     1      45.456   6.164  12.659  0.00  0.00    +0.000 A 
ATOM     22  C   UNL     1      45.571   7.474  12.206  0.00  0.00    +0.000 A 
ATOM     23  N   UNL     1      46.739   8.157  12.116  0.00  0.00    +0.000 NA
BRANCH  18  24
ATOM     24  C   UNL     1      49.189   8.216  12.326  0.00  0.00    +0.000 C 
BRANCH  24  25
ATOM     25  N   UNL     1      50.268   7.277  11.995  0.00  0.00    +0.000 NA
ATOM     26  H   UNL     1      51.056   7.801  11.622  0.00  0.00    +0.000 HD
ATOM     27  H   UNL     1      49.936   6.687  11.229  0.00  0.00    +0.000 HD
ENDBRANCH  24  25
ENDBRANCH  18  24
ENDBRANCH  17  21
ENDBRANCH  16  17
ENDBRANCH   1  16
TORSDOF 7
ENDMDL
MODEL 5
REMARK VINA RESULT:    -7.158      2.764      7.232
REMARK INTER + INTRA:         -10.805
REMARK INTER:                 -10.250
REMARK INTRA:                  -0.556
REMARK UNBOUND:                -0.927
REMARK  Name = 
REMARK  7 active torsions:
REMARK  status: ('A' for Active; 'I' for Inactive)
REMARK    1  A    between atoms: N_1  and  C_2
REMARK    2  A    between atoms: C_2  and  C_3
REMARK    3  A    between atoms: C_6  and  O_7
REMARK    4  A    between atoms: O_7  and  C_8
REMARK    5  A    between atoms: C_8  and  C_9
REMARK    6  A    between atoms: C_9  and  C_12
REMARK    7  A    between atoms: C_15  and  C_16
REMARK                            x       y       z     vdW  Elec       q    Type
REMARK                         _______ _______ _______ _____ _____    ______ ____
ROOT
ATOM      1  C   UNL     1      45.688   5.967  11.594  0.00  0.00    +0.000 C 
ATOM      2  F   UNL     1      46.475   6.207  10.503  0.00  0.00    +0.000 F 
ATOM      3  F   UNL     1      44.786   7.000  11.607  0.00  0.00    +0.000 F 
ENDROOT
BRANCH   1   4
ATOM      4  C   UNL     1      46.482   5.918  12.883  0.00  0.00    +0.000 A 
ATOM      5  C   UNL     1      47.405   6.926  13.197  0.00  0.00    +0.000 A 
ATOM      6  C   UNL     1      48.153   6.864  14.379  0.00  0.00    +0.000 A 
ATOM      7  C   UNL     1      47.986   5.791  15.267  0.00  0.00    +0.000 A 
ATOM      8  C   UNL     1      47.062   4.797  14.953  0.00  0.00    +0.000 A 
ATOM      9  F   UNL     1      46.857   3.750  15.769  0.00  0.00    +0.000 F 
ATOM     10  C   UNL     1      46.316   4.851  13.777  0.00  0.00    +0.000 A 
BRANCH   7  11
ATOM     11  C   UNL     1      48.806   5.753  16.507  0.00  0.00    +0.000 C 
ATOM     12  N   UNL     1      48.174   5.978  17.697  0.00  0.00    +0.000 N 
ATOM     13  O   UNL     1      50.009   5.525  16.470  0.00  0.00    +0.000 OA
ATOM     14  H   UNL     1      47.183   6.171  17.773  0.00  0.00    +0.000 HD
ATOM     15  H   UNL     1      48.729   5.951  18.545  0.00  0.00    +0.000 HD
ENDBRANCH   7  11
ENDBRANCH   1   4
BRANCH   1  16
ATOM     16  C   UNL     1      44.888   4.680  11.353  0.00  0.00    +0.000 C 
BRANCH  16  17
ATOM     17  O   UNL     1      44.395   4.598  10.009  0.00  0.00    +0.000 OA
BRANCH  17  21
ATOM     18  C   UNL     1      46.586   2.061   7.611  0.00  0.00    +0.000 A 
ATOM     19  C   UNL     1      46.606   3.415   7.291  0.00  0.00    +0.000 A 
ATOM     20  C   UNL     1      45.877   4.310   8.070  0.00  0.00    +0.000 A 
ATOM     21  C   UNL     1      45.134   3.838   9.147  0.00  0.00    +0.000 A 
ATOM     22  C   UNL     1      45.150   2.466   9.377  0.00  0.00    +0.000 A 
ATOM     23  N   UNL     1      45.856   1.571   8.643  0.00  0.00    +0.000 NA
BRANCH  18  24
ATOM     24  C   UNL     1      47.456   1.094   6.836  0.00  0.00    +0.000 C 
BRANCH  24  25
ATOM     25  N   UNL     1      48.366   1.794   5.921  0.00  0.00    +0.000 NA
ATOM     26  H   UNL     1      47.825   2.165   5.143  0.00  0.00    +0.000 HD
ATOM     27  H   UNL     1      48.994   1.095   5.519  0.00  0.00    +0.000 HD
ENDBRANCH  24  25
ENDBRANCH  18  24
ENDBRANCH  17  21
ENDBRANCH  16  17
ENDBRANCH   1  16
TORSDOF 7
ENDMDL
MODEL 6
REMARK VINA RESULT:    -6.399      3.616      5.281
REMARK INTER + INTRA:          -9.758
REMARK INTER:                  -9.305
REMARK INTRA:                  -0.453
REMARK UNBOUND:                -0.927
REMARK  Name = 
REMARK  7 active torsions:
REMARK  status: ('A' for Active; 'I' for Inactive)
REMARK    1  A    between atoms: N_1  and  C_2
REMARK    2  A    between atoms: C_2  and  C_3
REMARK    3  A    between atoms: C_6  and  O_7
REMARK    4  A    between atoms: O_7  and  C_8
REMARK    5  A    between atoms: C_8  and  C_9
REMARK    6  A    between atoms: C_9  and  C_12
REMARK    7  A    between atoms: C_15  and  C_16
REMARK                            x       y       z     vdW  Elec       q    Type
REMARK                         _______ _______ _______ _____ _____    ______ ____
ROOT
ATOM      1  C   UNL     1      45.854   8.194  12.524  0.00  0.00    +0.000 C 
ATOM      2  F   UNL     1      44.845   9.041  12.884  0.00  0.00    +0.000 F 
ATOM      3  F   UNL     1      46.468   8.814  11.465  0.00  0.00    +0.000 F 
ENDROOT
BRANCH   1   4
ATOM      4  C   UNL     1      45.350   6.820  12.136  0.00  0.00    +0.000 A 
ATOM      5  C   UNL     1      45.788   6.201  10.957  0.00  0.00    +0.000 A 
ATOM      6  C   UNL     1      45.302   4.940  10.591  0.00  0.00    +0.000 A 
ATOM      7  C   UNL     1      44.369   4.277  11.403  0.00  0.00    +0.000 A 
ATOM      8  C   UNL     1      43.944   4.895  12.578  0.00  0.00    +0.000 A 
ATOM      9  F   UNL     1      43.057   4.304  13.395  0.00  0.00    +0.000 F 
ATOM     10  C   UNL     1      44.422   6.151  12.946  0.00  0.00    +0.000 A 
BRANCH   7  11
ATOM     11  C   UNL     1      43.866   2.945  10.976  0.00  0.00    +0.000 C 
ATOM     12  N   UNL     1      44.486   2.338   9.921  0.00  0.00    +0.000 N 
ATOM     13  O   UNL     1      42.930   2.403  11.549  0.00  0.00    +0.000 OA
ATOM     14  H   UNL     1      45.262   2.750   9.418  0.00  0.00    +0.000 HD
ATOM     15  H   UNL     1      44.148   1.428   9.628  0.00  0.00    +0.000 HD
ENDBRANCH   7  11
ENDBRANCH   1   4
BRANCH   1  16
ATOM     16  C   UNL     1      46.882   8.137  13.663  0.00  0.00    +0.000 C 
BRANCH  16  17
ATOM     17  O   UNL     1      47.848   7.097  13.461  0.00  0.00    +0.000 OA
BRANCH  17  21
ATOM     18  C   UNL     1      47.979   4.164  16.354  0.00  0.00    +0.000 A 
ATOM     19  C   UNL     1      48.614   5.369  16.640  0.00  0.00    +0.000 A 
ATOM     20  C   UNL     1      48.601   6.388  15.691  0.00  0.00    +0.000 A 
ATOM     21  C   UNL     1      47.963   6.184  14.471  0.00  0.00    +0.000 A 
ATOM     22  C   UNL     1      47.378   4.940  14.260  0.00  0.00    +0.000 A 
ATOM     23  N   UNL     1      47.366   3.931  15.167  0.00  0.00    +0.000 NA
BRANCH  18  24
ATOM     24  C   UNL     1      47.897   3.089  17.417  0.00  0.00    +0.000 C 
BRANCH  24  25
ATOM     25  N   UNL     1      46.507   2.757  17.750  0.00  0.00    +0.000 NA
ATOM     26  H   UNL     1      45.890   3.401  17.260  0.00  0.00    +0.000 HD
ATOM     27  H   UNL     1      46.377   2.946  18.746  0.00  0.00    +0.000 HD
ENDBRANCH  24  25
ENDBRANCH  18  24
ENDBRANCH  17  21
ENDBRANCH  16  17
ENDBRANCH   1  16
TORSDOF 7
ENDMDL
MODEL 7
REMARK VINA RESULT:    -6.063      4.373      7.459
REMARK INTER + INTRA:          -9.294
REMARK INTER:                  -8.512
REMARK INTRA:                  -0.782
REMARK UNBOUND:                -0.927
REMARK  Name = 
REMARK  7 active torsions:
REMARK  status: ('A' for Active; 'I' for Inactive)
REMARK    1  A    between atoms: N_1  and  C_2
REMARK    2  A    between atoms: C_2  and  C_3
REMARK    3  A    between atoms: C_6  and  O_7
REMARK    4  A    between atoms: O_7  and  C_8
REMARK    5  A    between atoms: C_8  and  C_9
REMARK    6  A    between atoms: C_9  and  C_12
REMARK    7  A    between atoms: C_15  and  C_16
REMARK                            x       y       z     vdW  Elec       q    Type
REMARK                         _______ _______ _______ _____ _____    ______ ____
ROOT
ATOM      1  C   UNL     1      47.837   7.487  13.033  0.00  0.00    +0.000 C 
ATOM      2  F   UNL     1      48.264   7.051  11.811  0.00  0.00    +0.000 F 
ATOM      3  F   UNL     1      48.724   8.474  13.380  0.00  0.00    +0.000 F 
ENDROOT
BRANCH   1   4
ATOM      4  C   UNL     1      47.816   6.382  14.068  0.00  0.00    +0.000 A 
ATOM      5  C   UNL     1      47.150   5.174  13.816  0.00  0.00    +0.000 A 
ATOM      6  C   UNL     1      47.114   4.164  14.785  0.00  0.00    +0.000 A 
ATOM      7  C   UNL     1      47.748   4.347  16.023  0.00  0.00    +0.000 A 
ATOM      8  C   UNL     1      48.416   5.546  16.264  0.00  0.00    +0.000 A 
ATOM      9  F   UNL     1      49.045   5.773  17.428  0.00  0.00    +0.000 F 
ATOM     10  C   UNL     1      48.453   6.557  15.305  0.00  0.00    +0.000 A 
BRANCH   7  11
ATOM     11  C   UNL     1      47.679   3.257  17.031  0.00  0.00    +0.000 C 
ATOM     12  N   UNL     1      48.849   2.662  17.408  0.00  0.00    +0.000 N 
ATOM     13  O   UNL     1      46.611   2.901  17.514  0.00  0.00    +0.000 OA
ATOM     14  H   UNL     1      49.752   2.923  17.034  0.00  0.00    +0.000 HD
ATOM     15  H   UNL     1      48.807   1.920  18.097  0.00  0.00    +0.000 HD
ENDBRANCH   7  11
ENDBRANCH   1   4
BRANCH   1  16
ATOM     16  C   UNL     1      46.466   8.158  12.869  0.00  0.00    +0.000 C 
BRANCH  16  17
ATOM     17  O   UNL     1      45.906   7.922  11.570  0.00  0.00    +0.000 OA
BRANCH  17  21
ATOM     18  C   UNL     1      43.982   4.287  11.292  0.00  0.00    +0.000 A 
ATOM     19  C   UNL     1      45.000   4.541  10.377  0.00  0.00    +0.000 A 
ATOM     20  C   UNL     1      45.675   5.758  10.428  0.00  0.00    +0.000 A 
ATOM     21  C   UNL     1      45.318   6.702  11.385  0.00  0.00    +0.000 A 
ATOM     22  C   UNL     1      44.272   6.375  12.242  0.00  0.00    +0.000 A 
ATOM     23  N   UNL     1      43.601   5.197  12.222  0.00  0.00    +0.000 NA
BRANCH  18  24
ATOM     24  C   UNL     1      43.313   2.930  11.312  0.00  0.00    +0.000 C 
BRANCH  24  25
ATOM     25  N   UNL     1      43.567   2.215  12.568  0.00  0.00    +0.000 NA
ATOM     26  H   UNL     1      43.278   2.806  13.345  0.00  0.00    +0.000 HD
ATOM     27  H   UNL     1      44.579   2.107  12.660  0.00  0.00    +0.000 HD
ENDBRANCH  24  25
ENDBRANCH  18  24
ENDBRANCH  17  21
ENDBRANCH  16  17
ENDBRANCH   1  16
TORSDOF 7
ENDMDL
MODEL 8
REMARK VINA RESULT:    -5.868      3.880      5.657
REMARK INTER + INTRA:          -9.025
REMARK INTER:                  -8.235
REMARK INTRA:                  -0.790
REMARK UNBOUND:                -0.927
REMARK  Name = 
REMARK  7 active torsions:
REMARK  status: ('A' for Active; 'I' for Inactive)
REMARK    1  A    between atoms: N_1  and  C_2
REMARK    2  A    between atoms: C_2  and  C_3
REMARK    3  A    between atoms: C_6  and  O_7
REMARK    4  A    between atoms: O_7  and  C_8
REMARK    5  A    between atoms: C_8  and  C_9
REMARK    6  A    between atoms: C_9  and  C_12
REMARK    7  A    between atoms: C_15  and  C_16
REMARK                            x       y       z     vdW  Elec       q    Type
REMARK                         _______ _______ _______ _____ _____    ______ ____
ROOT
ATOM      1  C   UNL     1      47.500   7.491  12.953  0.00  0.00    +0.000 C 
ATOM      2  F   UNL     1      46.815   8.382  13.728  0.00  0.00    +0.000 F 
ATOM      3  F   UNL     1      48.010   8.243  11.925  0.00  0.00    +0.000 F 
ENDROOT
BRANCH   1   4
ATOM      4  C   UNL     1      46.617   6.377  12.431  0.00  0.00    +0.000 A 
ATOM      5  C   UNL     1      46.113   5.395  13.296  0.00  0.00    +0.000 A 
ATOM      6  C   UNL     1      45.316   4.355  12.805  0.00  0.00    +0.000 A 
ATOM      7  C   UNL     1      45.007   4.282  11.438  0.00  0.00    +0.000 A 
ATOM      8  C   UNL     1      45.504   5.266  10.585  0.00  0.00    +0.000 A 
ATOM      9  F   UNL     1      45.236   5.250   9.269  0.00  0.00    +0.000 F 
ATOM     10  C   UNL     1      46.301   6.303  11.067  0.00  0.00    +0.000 A 
BRANCH   7  11
ATOM     11  C   UNL     1      44.167   3.157  10.951  0.00  0.00    +0.000 C 
ATOM     12  N   UNL     1      44.739   2.257  10.098  0.00  0.00    +0.000 N 
ATOM     13  O   UNL     1      43.000   3.033  11.303  0.00  0.00    +0.000 OA
ATOM     14  H   UNL     1      45.698   2.322   9.781  0.00  0.00    +0.000 HD
ATOM     15  H   UNL     1      44.170   1.486   9.765  0.00  0.00    +0.000 HD
ENDBRANCH   7  11
ENDBRANCH   1   4
BRANCH   1  16
ATOM     16  C   UNL     1      48.699   6.959  13.751  0.00  0.00    +0.000 C 
BRANCH  16  17
ATOM     17  O   UNL     1      48.807   7.584  15.037  0.00  0.00    +0.000 OA
BRANCH  17  21
ATOM     18  C   UNL     1      48.805   5.273  18.450  0.00  0.00    +0.000 A 
ATOM     19  C   UNL     1      48.338   4.681  17.280  0.00  0.00    +0.000 A 
ATOM     20  C   UNL     1      48.315   5.425  16.103  0.00  0.00    +0.000 A 
ATOM     21  C   UNL     1      48.749   6.746  16.115  0.00  0.00    +0.000 A 
ATOM     22  C   UNL     1      49.175   7.264  17.334  0.00  0.00    +0.000 A 
ATOM     23  N   UNL     1      49.217   6.564  18.495  0.00  0.00    +0.000 NA
BRANCH  18  24
ATOM     24  C   UNL     1      48.932   4.445  19.710  0.00  0.00    +0.000 C 
BRANCH  24  25
ATOM     25  N   UNL     1      48.369   3.100  19.537  0.00  0.00    +0.000 NA
ATOM     26  H   UNL     1      47.560   3.003  20.147  0.00  0.00    +0.000 HD
ATOM     27  H   UNL     1      49.061   2.431  19.881  0.00  0.00    +0.000 HD
ENDBRANCH  24  25
ENDBRANCH  18  24
ENDBRANCH  17  21
ENDBRANCH  16  17
ENDBRANCH   1  16
TORSDOF 7
ENDMDL
MODEL 9
REMARK VINA RESULT:    -5.337      4.751      8.618
REMARK INTER + INTRA:          -8.292
REMARK INTER:                  -7.536
REMARK INTRA:                  -0.756
REMARK UNBOUND:                -0.927
REMARK  Name = 
REMARK  7 active torsions:
REMARK  status: ('A' for Active; 'I' for Inactive)
REMARK    1  A    between atoms: N_1  and  C_2
REMARK    2  A    between atoms: C_2  and  C_3
REMARK    3  A    between atoms: C_6  and  O_7
REMARK    4  A    between atoms: O_7  and  C_8
REMARK    5  A    between atoms: C_8  and  C_9
REMARK    6  A    between atoms: C_9  and  C_12
REMARK    7  A    between atoms: C_15  and  C_16
REMARK                            x       y       z     vdW  Elec       q    Type
REMARK                         _______ _______ _______ _____ _____    ______ ____
ROOT
ATOM      1  C   UNL     1      48.958   7.455  14.192  0.00  0.00    +0.000 C 
ATOM      2  F   UNL     1      50.270   7.762  13.968  0.00  0.00    +0.000 F 
ATOM      3  F   UNL     1      48.289   8.641  14.027  0.00  0.00    +0.000 F 
ENDROOT
BRANCH   1   4
ATOM      4  C   UNL     1      48.724   6.883  15.575  0.00  0.00    +0.000 A 
ATOM      5  C   UNL     1      48.988   7.645  16.722  0.00  0.00    +0.000 A 
ATOM      6  C   UNL     1      48.791   7.104  17.998  0.00  0.00    +0.000 A 
ATOM      7  C   UNL     1      48.322   5.790  18.146  0.00  0.00    +0.000 A 
ATOM      8  C   UNL     1      48.053   5.041  17.002  0.00  0.00    +0.000 A 
ATOM      9  F   UNL     1      47.598   3.780  17.084  0.00  0.00    +0.000 F 
ATOM     10  C   UNL     1      48.250   5.572  15.729  0.00  0.00    +0.000 A 
BRANCH   7  11
ATOM     11  C   UNL     1      48.136   5.245  19.517  0.00  0.00    +0.000 C 
ATOM     12  N   UNL     1      47.070   5.696  20.242  0.00  0.00    +0.000 N 
ATOM     13  O   UNL     1      48.908   4.418  19.984  0.00  0.00    +0.000 OA
ATOM     14  H   UNL     1      46.410   6.379  19.895  0.00  0.00    +0.000 HD
ATOM     15  H   UNL     1      46.938   5.326  21.176  0.00  0.00    +0.000 HD
ENDBRANCH   7  11
ENDBRANCH   1   4
BRANCH   1  16
ATOM     16  C   UNL     1      48.474   6.512  13.082  0.00  0.00    +0.000 C 
BRANCH  16  17
ATOM     17  O   UNL     1      47.384   7.074  12.339  0.00  0.00    +0.000 OA
BRANCH  17  21
ATOM     18  C   UNL     1      44.340   4.373  11.684  0.00  0.00    +0.000 A 
ATOM     19  C   UNL     1      44.876   5.010  10.569  0.00  0.00    +0.000 A 
ATOM     20  C   UNL     1      45.903   5.935  10.742  0.00  0.00    +0.000 A 
ATOM     21  C   UNL     1      46.370   6.214  12.022  0.00  0.00    +0.000 A 
ATOM     22  C   UNL     1      45.758   5.550  13.080  0.00  0.00    +0.000 A 
ATOM     23  N   UNL     1      44.763   4.639  12.945  0.00  0.00    +0.000 NA
BRANCH  18  24
ATOM     24  C   UNL     1      43.297   3.291  11.500  0.00  0.00    +0.000 C 
BRANCH  24  25
ATOM     25  N   UNL     1      43.483   2.188  12.450  0.00  0.00    +0.000 NA
ATOM     26  H   UNL     1      42.634   2.082  13.000  0.00  0.00    +0.000 HD
ATOM     27  H   UNL     1      44.212   2.470  13.109  0.00  0.00    +0.000 HD
ENDBRANCH  24  25
ENDBRANCH  18  24
ENDBRANCH  17  21
ENDBRANCH  16  17
ENDBRANCH   1  16
TORSDOF 7
ENDMDL
