MODEL 1
REMARK VINA RESULT:    -7.907      0.000      0.000
REMARK INTER + INTRA:         -11.583
REMARK INTER:                 -10.449
REMARK INTRA:                  -1.133
REMARK UNBOUND:                -1.133
REMARK  Name = 
REMARK  7 active torsions:
REMARK  status: ('A' for Active; 'I' for Inactive)
REMARK    1  A    between atoms: C_1  and  C_2
REMARK    2  A    between atoms: C_2  and  C_3
REMARK    3  A    between atoms: C_7  and  C_8
REMARK    4  A    between atoms: C_8  and  C_9
REMARK    5  A    between atoms: C_9  and  N_10
REMARK    6  A    between atoms: C_14  and  C_15
REMARK    7  A    between atoms: C_23  and  N_24
REMARK                            x       y       z     vdW  Elec       q    Type
REMARK                         _______ _______ _______ _____ _____    ______ ____
ROOT
ATOM      1  C   UNL     1      47.542   6.756  12.766  0.00  0.00    +0.000 A 
ATOM      2  C   UNL     1      47.900   5.766  13.695  0.00  0.00    +0.000 A 
ATOM      3  C   UNL     1      46.996   4.777  14.077  0.00  0.00    +0.000 A 
ATOM      4  C   UNL     1      45.708   4.762  13.547  0.00  0.00    +0.000 A 
ATOM      5  C   UNL     1      45.300   5.761  12.654  0.00  0.00    +0.000 A 
ATOM      6  C   UNL     1      46.228   6.736  12.273  0.00  0.00    +0.000 A 
ENDROOT
BRANCH   1   8
ATOM      7  C   UNL     1      49.472   7.269  11.312  0.00  0.00    +0.000 C 
ATOM      8  C   UNL     1      48.544   7.859  12.395  0.00  0.00    +0.000 C 
ATOM      9  C   UNL     1      47.836   9.141  11.878  0.00  0.00    +0.000 C 
ATOM     10  C   UNL     1      47.830  10.164  13.024  0.00  0.00    +0.000 C 
ATOM     11  C   UNL     1      48.517   9.507  14.218  0.00  0.00    +0.000 C 
ATOM     12  C   UNL     1      49.387   8.428  13.562  0.00  0.00    +0.000 C 
BRANCH  11  13
ATOM     13  N   UNL     1      47.525   8.994  15.164  0.00  0.00    +0.000 NA
ATOM     14  H   UNL     1      47.209   8.071  14.868  0.00  0.00    +0.000 HD
ATOM     15  H   UNL     1      46.685   9.570  15.125  0.00  0.00    +0.000 HD
ENDBRANCH  11  13
ENDBRANCH   1   8
BRANCH   5  16
ATOM     16  C   UNL     1      43.877   5.884  12.150  0.00  0.00    +0.000 C 
BRANCH  16  17
ATOM     17  C   UNL     1      43.695   5.367  10.730  0.00  0.00    +0.000 C 
BRANCH  17  18
ATOM     18  N   UNL     1      43.783   3.901  10.670  0.00  0.00    +0.000 N 
ATOM     19  C   UNL     1      44.675   3.492   9.646  0.00  0.00    +0.000 A 
ATOM     20  C   UNL     1      44.899   2.141   9.417  0.00  0.00    +0.000 A 
ATOM     21  C   UNL     1      45.769   1.773   8.389  0.00  0.00    +0.000 A 
ATOM     22  C   UNL     1      46.378   2.764   7.612  0.00  0.00    +0.000 A 
ATOM     23  C   UNL     1      46.102   4.071   7.915  0.00  0.00    +0.000 A 
ATOM     24  N   UNL     1      45.276   4.445   8.911  0.00  0.00    +0.000 NA
ATOM     25  H   UNL     1      42.886   3.463  10.469  0.00  0.00    +0.000 HD
BRANCH  22  26
ATOM     26  C   UNL     1      47.275   2.339   6.506  0.00  0.00    +0.000 C 
ATOM     27  N   UNL     1      47.365   3.125   5.392  0.00  0.00    +0.000 N 
ATOM     28  O   UNL     1      47.918   1.298   6.569  0.00  0.00    +0.000 OA
ATOM     29  H   UNL     1      46.886   3.995   5.235  0.00  0.00    +0.000 HD
ATOM     30  H   UNL     1      47.976   2.790   4.654  0.00  0.00    +0.000 HD
ENDBRANCH  22  26
ENDBRANCH  17  18
ENDBRANCH  16  17
ENDBRANCH   5  16
TORSDOF 6
ENDMDL
MODEL 2
REMARK VINA RESULT:    -7.372      1.060      1.819
REMARK INTER + INTRA:         -10.876
REMARK INTER:                  -9.933
REMARK INTRA:                  -0.943
REMARK UNBOUND:                -1.133
REMARK  Name = 
REMARK  7 active torsions:
REMARK  status: ('A' for Active; 'I' for Inactive)
REMARK    1  A    between atoms: C_1  and  C_2
REMARK    2  A    between atoms: C_2  and  C_3
REMARK    3  A    between atoms: C_7  and  C_8
REMARK    4  A    between atoms: C_8  and  C_9
REMARK    5  A    between atoms: C_9  and  N_10
REMARK    6  A    between atoms: C_14  and  C_15
REMARK    7  A    between atoms: C_23  and  N_24
REMARK                            x       y       z     vdW  Elec       q    Type
REMARK                         _______ _______ _______ _____ _____    ______ ____
ROOT
ATOM      1  C   UNL     1      47.199   8.227  12.510  0.00  0.00    +0.000 A 
ATOM      2  C   UNL     1      46.610   9.406  12.025  0.00  0.00    +0.000 A 
ATOM      3  C   UNL     1      45.267   9.443  11.660  0.00  0.00    +0.000 A 
ATOM      4  C   UNL     1      44.482   8.296  11.759  0.00  0.00    +0.000 A 
ATOM      5  C   UNL     1      45.046   7.089  12.192  0.00  0.00    +0.000 A 
ATOM      6  C   UNL     1      46.393   7.079  12.568  0.00  0.00    +0.000 A 
ENDROOT
BRANCH   1   8
ATOM      7  C   UNL     1      49.404   7.417  11.746  0.00  0.00    +0.000 C 
ATOM      8  C   UNL     1      48.692   8.205  12.865  0.00  0.00    +0.000 C 
ATOM      9  C   UNL     1      49.282   9.636  12.995  0.00  0.00    +0.000 C 
ATOM     10  C   UNL     1      49.397   9.958  14.494  0.00  0.00    +0.000 C 
ATOM     11  C   UNL     1      48.877   8.743  15.257  0.00  0.00    +0.000 C 
ATOM     12  C   UNL     1      49.051   7.603  14.246  0.00  0.00    +0.000 C 
BRANCH  11  13
ATOM     13  N   UNL     1      47.496   8.962  15.693  0.00  0.00    +0.000 NA
ATOM     14  H   UNL     1      47.283   9.959  15.680  0.00  0.00    +0.000 HD
ATOM     15  H   UNL     1      47.402   8.700  16.673  0.00  0.00    +0.000 HD
ENDBRANCH  11  13
ENDBRANCH   1   8
BRANCH   5  16
ATOM     16  C   UNL     1      44.288   5.778  12.191  0.00  0.00    +0.000 C 
BRANCH  16  17
ATOM     17  C   UNL     1      43.851   5.337  10.801  0.00  0.00    +0.000 C 
BRANCH  17  18
ATOM     18  N   UNL     1      43.885   3.875  10.659  0.00  0.00    +0.000 N 
ATOM     19  C   UNL     1      44.775   3.491   9.623  0.00  0.00    +0.000 A 
ATOM     20  C   UNL     1      44.951   2.147   9.320  0.00  0.00    +0.000 A 
ATOM     21  C   UNL     1      45.819   1.804   8.283  0.00  0.00    +0.000 A 
ATOM     22  C   UNL     1      46.476   2.813   7.570  0.00  0.00    +0.000 A 
ATOM     23  C   UNL     1      46.245   4.110   7.944  0.00  0.00    +0.000 A 
ATOM     24  N   UNL     1      45.421   4.460   8.950  0.00  0.00    +0.000 NA
ATOM     25  H   UNL     1      42.975   3.483  10.423  0.00  0.00    +0.000 HD
BRANCH  22  26
ATOM     26  C   UNL     1      47.372   2.417   6.452  0.00  0.00    +0.000 C 
ATOM     27  N   UNL     1      47.311   3.117   5.281  0.00  0.00    +0.000 N 
ATOM     28  O   UNL     1      48.145   1.473   6.557  0.00  0.00    +0.000 OA
ATOM     29  H   UNL     1      46.718   3.905   5.086  0.00  0.00    +0.000 HD
ATOM     30  H   UNL     1      47.927   2.803   4.537  0.00  0.00    +0.000 HD
ENDBRANCH  22  26
ENDBRANCH  17  18
ENDBRANCH  16  17
ENDBRANCH   5  16
TORSDOF 6
ENDMDL
MODEL 3
REMARK VINA RESULT:    -6.948      3.752      7.546
REMARK INTER + INTRA:         -10.316
REMARK INTER:                  -9.284
REMARK INTRA:                  -1.031
REMARK UNBOUND:                -1.133
REMARK  Name = 
REMARK  7 active torsions:
REMARK  status: ('A' for Active; 'I' for Inactive)
REMARK    1  A    between atoms: C_1  and  C_2
REMARK    2  A    between atoms: C_2  and  C_3
REMARK    3  A    between atoms: C_7  and  C_8
REMARK    4  A    between atoms: C_8  and  C_9
REMARK    5  A    between atoms: C_9  and  N_10
REMARK    6  A    between atoms: C_14  and  C_15
REMARK    7  A    between atoms: C_23  and  N_24
REMARK                            x       y       z     vdW  Elec       q    Type
REMARK                         _______ _______ _______ _____ _____    ______ ____
ROOT
ATOM      1  C   UNL     1      45.185   6.701  11.392  0.00  0.00    +0.000 A 
ATOM      2  C   UNL     1      44.298   7.740  11.067  0.00  0.00    +0.000 A 
ATOM      3  C   UNL     1      44.528   9.044  11.499  0.00  0.00    +0.000 A 
ATOM      4  C   UNL     1      45.645   9.338  12.278  0.00  0.00    +0.000 A 
ATOM      5  C   UNL     1      46.527   8.319  12.662  0.00  0.00    +0.000 A 
ATOM      6  C   UNL     1      46.285   7.020  12.205  0.00  0.00    +0.000 A 
ENDROOT
BRANCH   1   8
ATOM      7  C   UNL     1      45.500   5.106   9.532  0.00  0.00    +0.000 C 
ATOM      8  C   UNL     1      44.885   5.266  10.938  0.00  0.00    +0.000 C 
ATOM      9  C   UNL     1      45.465   4.210  11.919  0.00  0.00    +0.000 C 
ATOM     10  C   UNL     1      44.307   3.693  12.786  0.00  0.00    +0.000 C 
ATOM     11  C   UNL     1      43.047   4.430  12.340  0.00  0.00    +0.000 C 
ATOM     12  C   UNL     1      43.390   4.863  10.909  0.00  0.00    +0.000 C 
BRANCH  11  13
ATOM     13  N   UNL     1      42.748   5.535  13.253  0.00  0.00    +0.000 NA
ATOM     14  H   UNL     1      43.111   6.408  12.871  0.00  0.00    +0.000 HD
ATOM     15  H   UNL     1      43.264   5.409  14.123  0.00  0.00    +0.000 HD
ENDBRANCH  11  13
ENDBRANCH   1   8
BRANCH   5  16
ATOM     16  C   UNL     1      47.679   8.544  13.619  0.00  0.00    +0.000 C 
BRANCH  16  17
ATOM     17  C   UNL     1      48.769   7.488  13.507  0.00  0.00    +0.000 C 
BRANCH  17  18
ATOM     18  N   UNL     1      49.566   7.396  14.738  0.00  0.00    +0.000 N 
ATOM     19  C   UNL     1      49.105   6.334  15.558  0.00  0.00    +0.000 A 
ATOM     20  C   UNL     1      49.722   6.078  16.776  0.00  0.00    +0.000 A 
ATOM     21  C   UNL     1      49.232   5.038  17.567  0.00  0.00    +0.000 A 
ATOM     22  C   UNL     1      48.133   4.293  17.125  0.00  0.00    +0.000 A 
ATOM     23  C   UNL     1      47.594   4.614  15.907  0.00  0.00    +0.000 A 
ATOM     24  N   UNL     1      48.061   5.606  15.125  0.00  0.00    +0.000 NA
ATOM     25  H   UNL     1      49.516   8.243  15.301  0.00  0.00    +0.000 HD
BRANCH  22  26
ATOM     26  C   UNL     1      47.617   3.211  18.003  0.00  0.00    +0.000 C 
ATOM     27  N   UNL     1      48.221   2.998  19.210  0.00  0.00    +0.000 N 
ATOM     28  O   UNL     1      46.678   2.503  17.660  0.00  0.00    +0.000 OA
ATOM     29  H   UNL     1      48.994   3.516  19.590  0.00  0.00    +0.000 HD
ATOM     30  H   UNL     1      47.848   2.238  19.771  0.00  0.00    +0.000 HD
ENDBRANCH  22  26
ENDBRANCH  17  18
ENDBRANCH  16  17
ENDBRANCH   5  16
TORSDOF 6
ENDMDL
MODEL 4
REMARK VINA RESULT:    -6.816      4.494      8.003
REMARK INTER + INTRA:         -10.141
REMARK INTER:                  -9.404
REMARK INTRA:                  -0.737
REMARK UNBOUND:                -1.133
REMARK  Name = 
REMARK  7 active torsions:
REMARK  status: ('A' for Active; 'I' for Inactive)
REMARK    1  A    between atoms: C_1  and  C_2
REMARK    2  A    between atoms: C_2  and  C_3
REMARK    3  A    between atoms: C_7  and  C_8
REMARK    4  A    between atoms: C_8  and  C_9
REMARK    5  A    between atoms: C_9  and  N_10
REMARK    6  A    between atoms: C_14  and  C_15
REMARK    7  A    between atoms: C_23  and  N_24
REMARK                            x       y       z     vdW  Elec       q    Type
REMARK                         _______ _______ _______ _____ _____    ______ ____
ROOT
ATOM      1  C   UNL     1      45.645   6.354  11.695  0.00  0.00    +0.000 A 
ATOM      2  C   UNL     1      44.990   7.594  11.768  0.00  0.00    +0.000 A 
ATOM      3  C   UNL     1      45.557   8.669  12.448  0.00  0.00    +0.000 A 
ATOM      4  C   UNL     1      46.789   8.526  13.083  0.00  0.00    +0.000 A 
ATOM      5  C   UNL     1      47.450   7.291  13.073  0.00  0.00    +0.000 A 
ATOM      6  C   UNL     1      46.869   6.229  12.371  0.00  0.00    +0.000 A 
ENDROOT
BRANCH   1   8
ATOM      7  C   UNL     1      45.580   5.122   9.555  0.00  0.00    +0.000 C 
ATOM      8  C   UNL     1      44.978   5.175  10.974  0.00  0.00    +0.000 C 
ATOM      9  C   UNL     1      45.204   3.831  11.722  0.00  0.00    +0.000 C 
ATOM     10  C   UNL     1      43.913   3.502  12.489  0.00  0.00    +0.000 C 
ATOM     11  C   UNL     1      42.926   4.633  12.216  0.00  0.00    +0.000 C 
ATOM     12  C   UNL     1      43.432   5.219  10.891  0.00  0.00    +0.000 C 
BRANCH  11  13
ATOM     13  N   UNL     1      42.909   5.581  13.331  0.00  0.00    +0.000 NA
ATOM     14  H   UNL     1      43.527   6.367  13.128  0.00  0.00    +0.000 HD
ATOM     15  H   UNL     1      43.320   5.147  14.156  0.00  0.00    +0.000 HD
ENDBRANCH  11  13
ENDBRANCH   1   8
BRANCH   5  16
ATOM     16  C   UNL     1      48.719   7.029  13.857  0.00  0.00    +0.000 C 
BRANCH  16  17
ATOM     17  C   UNL     1      48.522   7.107  15.364  0.00  0.00    +0.000 C 
BRANCH  17  18
ATOM     18  N   UNL     1      47.991   5.849  15.908  0.00  0.00    +0.000 N 
ATOM     19  C   UNL     1      49.009   5.119  16.573  0.00  0.00    +0.000 A 
ATOM     20  C   UNL     1      48.718   3.893  17.157  0.00  0.00    +0.000 A 
ATOM     21  C   UNL     1      49.747   3.192  17.788  0.00  0.00    +0.000 A 
ATOM     22  C   UNL     1      51.039   3.730  17.805  0.00  0.00    +0.000 A 
ATOM     23  C   UNL     1      51.230   4.948  17.208  0.00  0.00    +0.000 A 
ATOM     24  N   UNL     1      50.247   5.644  16.606  0.00  0.00    +0.000 NA
ATOM     25  H   UNL     1      47.616   5.237  15.186  0.00  0.00    +0.000 HD
BRANCH  22  26
ATOM     26  C   UNL     1      52.119   2.945  18.458  0.00  0.00    +0.000 C 
ATOM     27  N   UNL     1      52.207   1.606  18.203  0.00  0.00    +0.000 N 
ATOM     28  O   UNL     1      52.916   3.471  19.226  0.00  0.00    +0.000 OA
ATOM     29  H   UNL     1      51.610   1.074  17.593  0.00  0.00    +0.000 HD
ATOM     30  H   UNL     1      52.948   1.104  18.683  0.00  0.00    +0.000 HD
ENDBRANCH  22  26
ENDBRANCH  17  18
ENDBRANCH  16  17
ENDBRANCH   5  16
TORSDOF 6
ENDMDL
MODEL 5
REMARK VINA RESULT:    -6.665      3.642      5.768
REMARK INTER + INTRA:          -9.941
REMARK INTER:                  -8.918
REMARK INTRA:                  -1.023
REMARK UNBOUND:                -1.133
REMARK  Name = 
REMARK  7 active torsions:
REMARK  status: ('A' for Active; 'I' for Inactive)
REMARK    1  A    between atoms: C_1  and  C_2
REMARK    2  A    between atoms: C_2  and  C_3
REMARK    3  A    between atoms: C_7  and  C_8
REMARK    4  A    between atoms: C_8  and  C_9
REMARK    5  A    between atoms: C_9  and  N_10
REMARK    6  A    between atoms: C_14  and  C_15
REMARK    7  A    between atoms: C_23  and  N_24
REMARK                            x       y       z     vdW  Elec       q    Type
REMARK                         _______ _______ _______ _____ _____    ______ ____
ROOT
ATOM      1  C   UNL     1      49.108   6.002  17.175  0.00  0.00    +0.000 A 
ATOM      2  C   UNL     1      50.406   6.375  17.560  0.00  0.00    +0.000 A 
ATOM      3  C   UNL     1      51.248   7.057  16.685  0.00  0.00    +0.000 A 
ATOM      4  C   UNL     1      50.816   7.372  15.399  0.00  0.00    +0.000 A 
ATOM      5  C   UNL     1      49.546   6.974  14.963  0.00  0.00    +0.000 A 
ATOM      6  C   UNL     1      48.711   6.303  15.863  0.00  0.00    +0.000 A 
ENDROOT
BRANCH   1   8
ATOM      7  C   UNL     1      47.618   6.239  19.131  0.00  0.00    +0.000 C 
ATOM      8  C   UNL     1      48.217   5.214  18.145  0.00  0.00    +0.000 C 
ATOM      9  C   UNL     1      47.094   4.436  17.405  0.00  0.00    +0.000 C 
ATOM     10  C   UNL     1      47.524   2.963  17.322  0.00  0.00    +0.000 C 
ATOM     11  C   UNL     1      48.889   2.854  17.995  0.00  0.00    +0.000 C 
ATOM     12  C   UNL     1      48.911   4.072  18.927  0.00  0.00    +0.000 C 
BRANCH  11  13
ATOM     13  N   UNL     1      49.957   2.838  16.993  0.00  0.00    +0.000 NA
ATOM     14  H   UNL     1      50.502   3.698  17.054  0.00  0.00    +0.000 HD
ATOM     15  H   UNL     1      49.550   2.867  16.059  0.00  0.00    +0.000 HD
ENDBRANCH  11  13
ENDBRANCH   1   8
BRANCH   5  16
ATOM     16  C   UNL     1      49.068   7.160  13.538  0.00  0.00    +0.000 C 
BRANCH  16  17
ATOM     17  C   UNL     1      47.559   7.318  13.425  0.00  0.00    +0.000 C 
BRANCH  17  18
ATOM     18  N   UNL     1      47.116   7.332  12.024  0.00  0.00    +0.000 N 
ATOM     19  C   UNL     1      46.301   6.206  11.742  0.00  0.00    +0.000 A 
ATOM     20  C   UNL     1      45.780   6.026  10.467  0.00  0.00    +0.000 A 
ATOM     21  C   UNL     1      44.997   4.898  10.218  0.00  0.00    +0.000 A 
ATOM     22  C   UNL     1      44.767   3.977  11.246  0.00  0.00    +0.000 A 
ATOM     23  C   UNL     1      45.316   4.242  12.473  0.00  0.00    +0.000 A 
ATOM     24  N   UNL     1      46.064   5.331  12.735  0.00  0.00    +0.000 NA
ATOM     25  H   UNL     1      47.894   7.302  11.367  0.00  0.00    +0.000 HD
BRANCH  22  26
ATOM     26  C   UNL     1      43.954   2.771  10.942  0.00  0.00    +0.000 C 
ATOM     27  N   UNL     1      44.294   2.002   9.866  0.00  0.00    +0.000 N 
ATOM     28  O   UNL     1      42.983   2.467  11.624  0.00  0.00    +0.000 OA
ATOM     29  H   UNL     1      45.067   2.157   9.241  0.00  0.00    +0.000 HD
ATOM     30  H   UNL     1      43.702   1.197   9.683  0.00  0.00    +0.000 HD
ENDBRANCH  22  26
ENDBRANCH  17  18
ENDBRANCH  16  17
ENDBRANCH   5  16
TORSDOF 6
ENDMDL
MODEL 6
REMARK VINA RESULT:    -6.335      3.679      5.720
REMARK INTER + INTRA:          -9.505
REMARK INTER:                  -8.673
REMARK INTRA:                  -0.832
REMARK UNBOUND:                -1.133
REMARK  Name = 
REMARK  7 active torsions:
REMARK  status: ('A' for Active; 'I' for Inactive)
REMARK    1  A    between atoms: C_1  and  C_2
REMARK    2  A    between atoms: C_2  and  C_3
REMARK    3  A    between atoms: C_7  and  C_8
REMARK    4  A    between atoms: C_8  and  C_9
REMARK    5  A    between atoms: C_9  and  N_10
REMARK    6  A    between atoms: C_14  and  C_15
REMARK    7  A    between atoms: C_23  and  N_24
REMARK                            x       y       z     vdW  Elec       q    Type
REMARK                         _______ _______ _______ _____ _____    ______ ____
ROOT
ATOM      1  C   UNL     1      49.663   5.593  17.132  0.00  0.00    +0.000 A 
ATOM      2  C   UNL     1      51.021   5.830  17.396  0.00  0.00    +0.000 A 
ATOM      3  C   UNL     1      51.771   6.688  16.596  0.00  0.00    +0.000 A 
ATOM      4  C   UNL     1      51.183   7.320  15.503  0.00  0.00    +0.000 A 
ATOM      5  C   UNL     1      49.843   7.072  15.179  0.00  0.00    +0.000 A 
ATOM      6  C   UNL     1      49.105   6.218  16.006  0.00  0.00    +0.000 A 
ENDROOT
BRANCH   1   8
ATOM      7  C   UNL     1      49.163   3.196  17.462  0.00  0.00    +0.000 C 
ATOM      8  C   UNL     1      48.871   4.610  18.006  0.00  0.00    +0.000 C 
ATOM      9  C   UNL     1      49.262   4.717  19.506  0.00  0.00    +0.000 C 
ATOM     10  C   UNL     1      48.164   5.525  20.217  0.00  0.00    +0.000 C 
ATOM     11  C   UNL     1      47.130   5.906  19.161  0.00  0.00    +0.000 C 
ATOM     12  C   UNL     1      47.342   4.845  18.074  0.00  0.00    +0.000 C 
BRANCH  11  13
ATOM     13  N   UNL     1      47.337   7.284  18.712  0.00  0.00    +0.000 NA
ATOM     14  H   UNL     1      47.198   7.927  19.491  0.00  0.00    +0.000 HD
ATOM     15  H   UNL     1      46.611   7.540  18.045  0.00  0.00    +0.000 HD
ENDBRANCH  11  13
ENDBRANCH   1   8
BRANCH   5  16
ATOM     16  C   UNL     1      49.182   7.615  13.929  0.00  0.00    +0.000 C 
BRANCH  16  17
ATOM     17  C   UNL     1      47.750   7.133  13.748  0.00  0.00    +0.000 C 
BRANCH  17  18
ATOM     18  N   UNL     1      47.296   7.288  12.359  0.00  0.00    +0.000 N 
ATOM     19  C   UNL     1      46.469   6.201  11.976  0.00  0.00    +0.000 A 
ATOM     20  C   UNL     1      45.936   6.150  10.695  0.00  0.00    +0.000 A 
ATOM     21  C   UNL     1      45.142   5.057  10.344  0.00  0.00    +0.000 A 
ATOM     22  C   UNL     1      44.915   4.041  11.279  0.00  0.00    +0.000 A 
ATOM     23  C   UNL     1      45.477   4.180  12.520  0.00  0.00    +0.000 A 
ATOM     24  N   UNL     1      46.235   5.233  12.880  0.00  0.00    +0.000 NA
ATOM     25  H   UNL     1      48.067   7.317  11.696  0.00  0.00    +0.000 HD
BRANCH  22  26
ATOM     26  C   UNL     1      44.090   2.876  10.865  0.00  0.00    +0.000 C 
ATOM     27  N   UNL     1      44.538   2.080   9.849  0.00  0.00    +0.000 N 
ATOM     28  O   UNL     1      43.018   2.629  11.404  0.00  0.00    +0.000 OA
ATOM     29  H   UNL     1      45.398   2.188   9.340  0.00  0.00    +0.000 HD
ATOM     30  H   UNL     1      43.936   1.305   9.587  0.00  0.00    +0.000 HD
ENDBRANCH  22  26
ENDBRANCH  17  18
ENDBRANCH  16  17
ENDBRANCH   5  16
TORSDOF 6
ENDMDL
MODEL 7
REMARK VINA RESULT:    -6.313      4.385      7.738
REMARK INTER + INTRA:          -9.477
REMARK INTER:                  -8.447
REMARK INTRA:                  -1.029
REMARK UNBOUND:                -1.133
REMARK  Name = 
REMARK  7 active torsions:
REMARK  status: ('A' for Active; 'I' for Inactive)
REMARK    1  A    between atoms: C_1  and  C_2
REMARK    2  A    between atoms: C_2  and  C_3
REMARK    3  A    between atoms: C_7  and  C_8
REMARK    4  A    between atoms: C_8  and  C_9
REMARK    5  A    between atoms: C_9  and  N_10
REMARK    6  A    between atoms: C_14  and  C_15
REMARK    7  A    between atoms: C_23  and  N_24
REMARK                            x       y       z     vdW  Elec       q    Type
REMARK                         _______ _______ _______ _____ _____    ______ ____
ROOT
ATOM      1  C   UNL     1      46.879   7.088  12.449  0.00  0.00    +0.000 A 
ATOM      2  C   UNL     1      47.988   7.027  11.589  0.00  0.00    +0.000 A 
ATOM      3  C   UNL     1      49.262   7.378  12.031  0.00  0.00    +0.000 A 
ATOM      4  C   UNL     1      49.455   7.812  13.340  0.00  0.00    +0.000 A 
ATOM      5  C   UNL     1      48.366   7.932  14.213  0.00  0.00    +0.000 A 
ATOM      6  C   UNL     1      47.098   7.560  13.753  0.00  0.00    +0.000 A 
ENDROOT
BRANCH   1   8
ATOM      7  C   UNL     1      44.828   8.058  11.473  0.00  0.00    +0.000 C 
ATOM      8  C   UNL     1      45.481   6.735  11.924  0.00  0.00    +0.000 C 
ATOM      9  C   UNL     1      45.537   5.718  10.752  0.00  0.00    +0.000 C 
ATOM     10  C   UNL     1      45.176   4.335  11.317  0.00  0.00    +0.000 C 
ATOM     11  C   UNL     1      44.913   4.513  12.810  0.00  0.00    +0.000 C 
ATOM     12  C   UNL     1      44.550   6.000  12.919  0.00  0.00    +0.000 C 
BRANCH  11  13
ATOM     13  N   UNL     1      46.086   4.116  13.590  0.00  0.00    +0.000 NA
ATOM     14  H   UNL     1      45.791   3.669  14.458  0.00  0.00    +0.000 HD
ATOM     15  H   UNL     1      46.590   4.947  13.897  0.00  0.00    +0.000 HD
ENDBRANCH  11  13
ENDBRANCH   1   8
BRANCH   5  16
ATOM     16  C   UNL     1      48.484   8.528  15.601  0.00  0.00    +0.000 C 
BRANCH  16  17
ATOM     17  C   UNL     1      49.106   7.577  16.612  0.00  0.00    +0.000 C 
BRANCH  17  18
ATOM     18  N   UNL     1      48.339   6.328  16.728  0.00  0.00    +0.000 N 
ATOM     19  C   UNL     1      49.197   5.236  17.018  0.00  0.00    +0.000 A 
ATOM     20  C   UNL     1      48.671   3.959  17.163  0.00  0.00    +0.000 A 
ATOM     21  C   UNL     1      49.545   2.903  17.430  0.00  0.00    +0.000 A 
ATOM     22  C   UNL     1      50.918   3.153  17.532  0.00  0.00    +0.000 A 
ATOM     23  C   UNL     1      51.343   4.446  17.380  0.00  0.00    +0.000 A 
ATOM     24  N   UNL     1      50.514   5.479  17.135  0.00  0.00    +0.000 NA
ATOM     25  H   UNL     1      47.845   6.091  15.870  0.00  0.00    +0.000 HD
BRANCH  22  26
ATOM     26  C   UNL     1      51.825   2.004  17.788  0.00  0.00    +0.000 C 
ATOM     27  N   UNL     1      51.331   0.736  17.669  0.00  0.00    +0.000 N 
ATOM     28  O   UNL     1      52.993   2.173  18.116  0.00  0.00    +0.000 OA
ATOM     29  H   UNL     1      50.394   0.482  17.406  0.00  0.00    +0.000 HD
ATOM     30  H   UNL     1      51.979  -0.020  17.869  0.00  0.00    +0.000 HD
ENDBRANCH  22  26
ENDBRANCH  17  18
ENDBRANCH  16  17
ENDBRANCH   5  16
TORSDOF 6
ENDMDL
MODEL 8
REMARK VINA RESULT:    -6.166      3.265      4.930
REMARK INTER + INTRA:          -9.282
REMARK INTER:                  -8.328
REMARK INTRA:                  -0.954
REMARK UNBOUND:                -1.133
REMARK  Name = 
REMARK  7 active torsions:
REMARK  status: ('A' for Active; 'I' for Inactive)
REMARK    1  A    between atoms: C_1  and  C_2
REMARK    2  A    between atoms: C_2  and  C_3
REMARK    3  A    between atoms: C_7  and  C_8
REMARK    4  A    between atoms: C_8  and  C_9
REMARK    5  A    between atoms: C_9  and  N_10
REMARK    6  A    between atoms: C_14  and  C_15
REMARK    7  A    between atoms: C_23  and  N_24
REMARK                            x       y       z     vdW  Elec       q    Type
REMARK                         _______ _______ _______ _____ _____    ______ ____
ROOT
ATOM      1  C   UNL     1      49.110   6.876  16.785  0.00  0.00    +0.000 A 
ATOM      2  C   UNL     1      48.892   8.102  17.435  0.00  0.00    +0.000 A 
ATOM      3  C   UNL     1      48.308   9.177  16.769  0.00  0.00    +0.000 A 
ATOM      4  C   UNL     1      47.940   9.055  15.431  0.00  0.00    +0.000 A 
ATOM      5  C   UNL     1      48.185   7.865  14.735  0.00  0.00    +0.000 A 
ATOM      6  C   UNL     1      48.759   6.793  15.428  0.00  0.00    +0.000 A 
ENDROOT
BRANCH   1   8
ATOM      7  C   UNL     1      51.256   5.681  17.043  0.00  0.00    +0.000 C 
ATOM      8  C   UNL     1      49.793   5.722  17.531  0.00  0.00    +0.000 C 
ATOM      9  C   UNL     1      49.729   5.905  19.073  0.00  0.00    +0.000 C 
ATOM     10  C   UNL     1      48.616   4.987  19.605  0.00  0.00    +0.000 C 
ATOM     11  C   UNL     1      48.013   4.267  18.402  0.00  0.00    +0.000 C 
ATOM     12  C   UNL     1      49.141   4.328  17.364  0.00  0.00    +0.000 C 
BRANCH  11  13
ATOM     13  N   UNL     1      46.769   4.916  17.985  0.00  0.00    +0.000 NA
ATOM     14  H   UNL     1      46.121   4.961  18.771  0.00  0.00    +0.000 HD
ATOM     15  H   UNL     1      46.290   4.332  17.301  0.00  0.00    +0.000 HD
ENDBRANCH  11  13
ENDBRANCH   1   8
BRANCH   5  16
ATOM     16  C   UNL     1      47.939   7.713  13.248  0.00  0.00    +0.000 C 
BRANCH  16  17
ATOM     17  C   UNL     1      46.466   7.569  12.894  0.00  0.00    +0.000 C 
BRANCH  17  18
ATOM     18  N   UNL     1      45.916   6.291  13.367  0.00  0.00    +0.000 N 
ATOM     19  C   UNL     1      45.624   5.434  12.274  0.00  0.00    +0.000 A 
ATOM     20  C   UNL     1      45.089   4.173  12.503  0.00  0.00    +0.000 A 
ATOM     21  C   UNL     1      44.796   3.363  11.405  0.00  0.00    +0.000 A 
ATOM     22  C   UNL     1      45.034   3.840  10.112  0.00  0.00    +0.000 A 
ATOM     23  C   UNL     1      45.570   5.094   9.984  0.00  0.00    +0.000 A 
ATOM     24  N   UNL     1      45.871   5.885  11.032  0.00  0.00    +0.000 NA
ATOM     25  H   UNL     1      45.049   6.406  13.888  0.00  0.00    +0.000 HD
BRANCH  22  26
ATOM     26  C   UNL     1      44.685   2.965   8.963  0.00  0.00    +0.000 C 
ATOM     27  N   UNL     1      44.582   1.618   9.169  0.00  0.00    +0.000 N 
ATOM     28  O   UNL     1      44.504   3.423   7.841  0.00  0.00    +0.000 OA
ATOM     29  H   UNL     1      44.707   1.136  10.042  0.00  0.00    +0.000 HD
ATOM     30  H   UNL     1      44.358   1.054   8.354  0.00  0.00    +0.000 HD
ENDBRANCH  22  26
ENDBRANCH  17  18
ENDBRANCH  16  17
ENDBRANCH   5  16
TORSDOF 6
ENDMDL
MODEL 9
REMARK VINA RESULT:    -6.029      4.490      8.285
REMARK INTER + INTRA:          -9.101
REMARK INTER:                  -8.374
REMARK INTRA:                  -0.727
REMARK UNBOUND:                -1.133
REMARK  Name = 
REMARK  7 active torsions:
REMARK  status: ('A' for Active; 'I' for Inactive)
REMARK    1  A    between atoms: C_1  and  C_2
REMARK    2  A    between atoms: C_2  and  C_3
REMARK    3  A    between atoms: C_7  and  C_8
REMARK    4  A    between atoms: C_8  and  C_9
REMARK    5  A    between atoms: C_9  and  N_10
REMARK    6  A    between atoms: C_14  and  C_15
REMARK    7  A    between atoms: C_23  and  N_24
REMARK                            x       y       z     vdW  Elec       q    Type
REMARK                         _______ _______ _______ _____ _____    ______ ____
ROOT
ATOM      1  C   UNL     1      45.957   5.331  12.376  0.00  0.00    +0.000 A 
ATOM      2  C   UNL     1      46.038   4.233  13.248  0.00  0.00    +0.000 A 
ATOM      3  C   UNL     1      46.873   4.258  14.362  0.00  0.00    +0.000 A 
ATOM      4  C   UNL     1      47.658   5.379  14.624  0.00  0.00    +0.000 A 
ATOM      5  C   UNL     1      47.641   6.474  13.751  0.00  0.00    +0.000 A 
ATOM      6  C   UNL     1      46.783   6.433  12.647  0.00  0.00    +0.000 A 
ENDROOT
BRANCH   1   8
ATOM      7  C   UNL     1      45.941   5.640   9.925  0.00  0.00    +0.000 C 
ATOM      8  C   UNL     1      45.059   5.260  11.133  0.00  0.00    +0.000 C 
ATOM      9  C   UNL     1      44.438   3.849  10.942  0.00  0.00    +0.000 C 
ATOM     10  C   UNL     1      42.982   3.911  11.429  0.00  0.00    +0.000 C 
ATOM     11  C   UNL     1      42.730   5.336  11.915  0.00  0.00    +0.000 C 
ATOM     12  C   UNL     1      43.791   6.148  11.162  0.00  0.00    +0.000 C 
BRANCH  11  13
ATOM     13  N   UNL     1      42.832   5.408  13.373  0.00  0.00    +0.000 NA
ATOM     14  H   UNL     1      43.565   4.778  13.701  0.00  0.00    +0.000 HD
ATOM     15  H   UNL     1      41.981   5.040  13.795  0.00  0.00    +0.000 HD
ENDBRANCH  11  13
ENDBRANCH   1   8
BRANCH   5  16
ATOM     16  C   UNL     1      48.569   7.662  13.900  0.00  0.00    +0.000 C 
BRANCH  16  17
ATOM     17  C   UNL     1      49.085   7.848  15.320  0.00  0.00    +0.000 C 
BRANCH  17  18
ATOM     18  N   UNL     1      50.554   7.861  15.367  0.00  0.00    +0.000 N 
ATOM     19  C   UNL     1      51.043   6.765  16.123  0.00  0.00    +0.000 A 
ATOM     20  C   UNL     1      52.410   6.595  16.296  0.00  0.00    +0.000 A 
ATOM     21  C   UNL     1      52.857   5.516  17.061  0.00  0.00    +0.000 A 
ATOM     22  C   UNL     1      51.926   4.647  17.640  0.00  0.00    +0.000 A 
ATOM     23  C   UNL     1      50.598   4.891  17.409  0.00  0.00    +0.000 A 
ATOM     24  N   UNL     1      50.148   5.919  16.664  0.00  0.00    +0.000 NA
ATOM     25  H   UNL     1      50.924   8.705  15.802  0.00  0.00    +0.000 HD
BRANCH  22  26
ATOM     26  C   UNL     1      52.432   3.525  18.473  0.00  0.00    +0.000 C 
ATOM     27  N   UNL     1      51.967   2.263  18.231  0.00  0.00    +0.000 N 
ATOM     28  O   UNL     1      53.241   3.713  19.374  0.00  0.00    +0.000 OA
ATOM     29  H   UNL     1      51.307   1.996  17.521  0.00  0.00    +0.000 HD
ATOM     30  H   UNL     1      52.326   1.529  18.834  0.00  0.00    +0.000 HD
ENDBRANCH  22  26
ENDBRANCH  17  18
ENDBRANCH  16  17
ENDBRANCH   5  16
TORSDOF 6
ENDMDL
