MODEL 1
REMARK VINA RESULT:    -8.084      0.000      0.000
REMARK INTER + INTRA:         -10.592
REMARK INTER:                  -9.975
REMARK INTRA:                  -0.617
REMARK UNBOUND:                -0.617
REMARK  Name = 
REMARK  5 active torsions:
REMARK  status: ('A' for Active; 'I' for Inactive)
REMARK    1  A    between atoms: C_1  and  C_2
REMARK    2  A    between atoms: C_2  and  O_3
REMARK    3  A    between atoms: C_2  and  C_13
REMARK    4  A    between atoms: O_3  and  C_4
REMARK    5  A    between atoms: C_7  and  C_8
REMARK                            x       y       z     vdW  Elec       q    Type
REMARK                         _______ _______ _______ _____ _____    ______ ____
ROOT
ATOM      1  C   UNL     1      44.474   3.769   9.267  0.00  0.00    +0.000 A 
ATOM      2  C   UNL     1      45.324   4.479   8.417  0.00  0.00    +0.000 A 
ATOM      3  C   UNL     1      46.287   3.809   7.654  0.00  0.00    +0.000 A 
ATOM      4  C   UNL     1      46.426   2.422   7.762  0.00  0.00    +0.000 A 
ATOM      5  C   UNL     1      45.607   1.715   8.649  0.00  0.00    +0.000 A 
ATOM      6  C   UNL     1      44.639   2.390   9.405  0.00  0.00    +0.000 A 
ENDROOT
BRANCH   4   7
ATOM      7  C   UNL     1      47.419   1.743   6.885  0.00  0.00    +0.000 C 
ATOM      8  N   UNL     1      48.481   2.482   6.442  0.00  0.00    +0.000 N 
ATOM      9  O   UNL     1      47.287   0.574   6.549  0.00  0.00    +0.000 OA
ATOM     10  H   UNL     1      48.504   3.489   6.488  0.00  0.00    +0.000 HD
ATOM     11  H   UNL     1      49.090   2.026   5.775  0.00  0.00    +0.000 HD
ENDBRANCH   4   7
BRANCH   1  12
ATOM     12  O   UNL     1      43.530   4.523   9.910  0.00  0.00    +0.000 OA
BRANCH  12  14
ATOM     13  C   UNL     1      42.535   5.590  11.869  0.00  0.00    +0.000 C 
ATOM     14  C   UNL     1      43.585   4.604  11.344  0.00  0.00    +0.000 C 
BRANCH  14  15
ATOM     15  C   UNL     1      45.019   5.040  11.767  0.00  0.00    +0.000 C 
ATOM     16  C   UNL     1      45.317   4.770  13.255  0.00  0.00    +0.000 C 
ATOM     17  C   UNL     1      46.700   5.270  13.667  0.00  0.00    +0.000 C 
ATOM     18  C   UNL     1      46.879   6.747  13.340  0.00  0.00    +0.000 C 
ATOM     19  C   UNL     1      46.639   7.007  11.858  0.00  0.00    +0.000 C 
ATOM     20  C   UNL     1      45.256   6.524  11.423  0.00  0.00    +0.000 C 
ENDBRANCH  14  15
ENDBRANCH  12  14
ENDBRANCH   1  12
TORSDOF 4
ENDMDL
MODEL 2
REMARK VINA RESULT:    -6.615      2.988      5.924
REMARK INTER + INTRA:          -8.779
REMARK INTER:                  -8.746
REMARK INTRA:                  -0.034
REMARK UNBOUND:                -0.617
REMARK  Name = 
REMARK  5 active torsions:
REMARK  status: ('A' for Active; 'I' for Inactive)
REMARK    1  A    between atoms: C_1  and  C_2
REMARK    2  A    between atoms: C_2  and  O_3
REMARK    3  A    between atoms: C_2  and  C_13
REMARK    4  A    between atoms: O_3  and  C_4
REMARK    5  A    between atoms: C_7  and  C_8
REMARK                            x       y       z     vdW  Elec       q    Type
REMARK                         _______ _______ _______ _____ _____    ______ ____
ROOT
ATOM      1  C   UNL     1      44.947   5.294  11.431  0.00  0.00    +0.000 A 
ATOM      2  C   UNL     1      45.967   6.173  11.063  0.00  0.00    +0.000 A 
ATOM      3  C   UNL     1      46.995   6.484  11.959  0.00  0.00    +0.000 A 
ATOM      4  C   UNL     1      46.991   5.938  13.246  0.00  0.00    +0.000 A 
ATOM      5  C   UNL     1      45.944   5.094  13.633  0.00  0.00    +0.000 A 
ATOM      6  C   UNL     1      44.921   4.781  12.728  0.00  0.00    +0.000 A 
ENDROOT
BRANCH   4   7
ATOM      7  C   UNL     1      48.137   6.244  14.146  0.00  0.00    +0.000 C 
ATOM      8  N   UNL     1      47.951   6.067  15.489  0.00  0.00    +0.000 N 
ATOM      9  O   UNL     1      49.202   6.661  13.712  0.00  0.00    +0.000 OA
ATOM     10  H   UNL     1      47.038   5.964  15.907  0.00  0.00    +0.000 HD
ATOM     11  H   UNL     1      48.711   6.368  16.086  0.00  0.00    +0.000 HD
ENDBRANCH   4   7
BRANCH   1  12
ATOM     12  O   UNL     1      44.036   5.014  10.449  0.00  0.00    +0.000 OA
BRANCH  12  14
ATOM     13  C   UNL     1      43.651   2.713  11.174  0.00  0.00    +0.000 C 
ATOM     14  C   UNL     1      43.921   3.655   9.995  0.00  0.00    +0.000 C 
BRANCH  14  15
ATOM     15  C   UNL     1      45.234   3.261   9.256  0.00  0.00    +0.000 C 
ATOM     16  C   UNL     1      45.540   4.165   8.045  0.00  0.00    +0.000 C 
ATOM     17  C   UNL     1      46.791   3.718   7.292  0.00  0.00    +0.000 C 
ATOM     18  C   UNL     1      46.693   2.259   6.864  0.00  0.00    +0.000 C 
ATOM     19  C   UNL     1      46.445   1.357   8.067  0.00  0.00    +0.000 C 
ATOM     20  C   UNL     1      45.192   1.779   8.833  0.00  0.00    +0.000 C 
ENDBRANCH  14  15
ENDBRANCH  12  14
ENDBRANCH   1  12
TORSDOF 4
ENDMDL
MODEL 3
REMARK VINA RESULT:    -6.464      3.513      6.412
REMARK INTER + INTRA:          -8.593
REMARK INTER:                  -7.940
REMARK INTRA:                  -0.653
REMARK UNBOUND:                -0.617
REMARK  Name = 
REMARK  5 active torsions:
REMARK  status: ('A' for Active; 'I' for Inactive)
REMARK    1  A    between atoms: C_1  and  C_2
REMARK    2  A    between atoms: C_2  and  O_3
REMARK    3  A    between atoms: C_2  and  C_13
REMARK    4  A    between atoms: O_3  and  C_4
REMARK    5  A    between atoms: C_7  and  C_8
REMARK                            x       y       z     vdW  Elec       q    Type
REMARK                         _______ _______ _______ _____ _____    ______ ____
ROOT
ATOM      1  C   UNL     1      46.002   5.051  12.664  0.00  0.00    +0.000 A 
ATOM      2  C   UNL     1      46.443   4.411  13.825  0.00  0.00    +0.000 A 
ATOM      3  C   UNL     1      47.386   5.022  14.658  0.00  0.00    +0.000 A 
ATOM      4  C   UNL     1      47.920   6.269  14.316  0.00  0.00    +0.000 A 
ATOM      5  C   UNL     1      47.515   6.889  13.130  0.00  0.00    +0.000 A 
ATOM      6  C   UNL     1      46.564   6.276  12.303  0.00  0.00    +0.000 A 
ENDROOT
BRANCH   4   7
ATOM      7  C   UNL     1      48.872   6.912  15.263  0.00  0.00    +0.000 C 
ATOM      8  N   UNL     1      48.410   7.961  16.009  0.00  0.00    +0.000 N 
ATOM      9  O   UNL     1      50.032   6.538  15.362  0.00  0.00    +0.000 OA
ATOM     10  H   UNL     1      47.556   8.453  15.793  0.00  0.00    +0.000 HD
ATOM     11  H   UNL     1      49.099   8.439  16.576  0.00  0.00    +0.000 HD
ENDBRANCH   4   7
BRANCH   1  12
ATOM     12  O   UNL     1      45.030   4.387  11.967  0.00  0.00    +0.000 OA
BRANCH  12  14
ATOM     13  C   UNL     1      42.997   5.386  11.052  0.00  0.00    +0.000 C 
ATOM     14  C   UNL     1      44.467   5.025  10.809  0.00  0.00    +0.000 C 
BRANCH  14  15
ATOM     15  C   UNL     1      44.611   4.068   9.589  0.00  0.00    +0.000 C 
ATOM     16  C   UNL     1      44.855   2.602   9.997  0.00  0.00    +0.000 C 
ATOM     17  C   UNL     1      45.065   1.692   8.789  0.00  0.00    +0.000 C 
ATOM     18  C   UNL     1      46.194   2.199   7.900  0.00  0.00    +0.000 C 
ATOM     19  C   UNL     1      45.928   3.630   7.449  0.00  0.00    +0.000 C 
ATOM     20  C   UNL     1      45.724   4.562   8.642  0.00  0.00    +0.000 C 
ENDBRANCH  14  15
ENDBRANCH  12  14
ENDBRANCH   1  12
TORSDOF 4
ENDMDL
MODEL 4
REMARK VINA RESULT:    -6.156      3.487      6.469
REMARK INTER + INTRA:          -8.213
REMARK INTER:                  -7.616
REMARK INTRA:                  -0.597
REMARK UNBOUND:                -0.617
REMARK  Name = 
REMARK  5 active torsions:
REMARK  status: ('A' for Active; 'I' for Inactive)
REMARK    1  A    between atoms: C_1  and  C_2
REMARK    2  A    between atoms: C_2  and  O_3
REMARK    3  A    between atoms: C_2  and  C_13
REMARK    4  A    between atoms: O_3  and  C_4
REMARK    5  A    between atoms: C_7  and  C_8
REMARK                            x       y       z     vdW  Elec       q    Type
REMARK                         _______ _______ _______ _____ _____    ______ ____
ROOT
ATOM      1  C   UNL     1      45.799   6.323  11.860  0.00  0.00    +0.000 A 
ATOM      2  C   UNL     1      47.138   6.556  11.542  0.00  0.00    +0.000 A 
ATOM      3  C   UNL     1      47.757   7.756  11.907  0.00  0.00    +0.000 A 
ATOM      4  C   UNL     1      47.026   8.748  12.569  0.00  0.00    +0.000 A 
ATOM      5  C   UNL     1      45.671   8.535  12.847  0.00  0.00    +0.000 A 
ATOM      6  C   UNL     1      45.059   7.328  12.484  0.00  0.00    +0.000 A 
ENDROOT
BRANCH   4   7
ATOM      7  C   UNL     1      47.739   9.982  12.996  0.00  0.00    +0.000 C 
ATOM      8  N   UNL     1      47.206  11.183  12.618  0.00  0.00    +0.000 N 
ATOM      9  O   UNL     1      48.776   9.935  13.643  0.00  0.00    +0.000 OA
ATOM     10  H   UNL     1      46.507  11.269  11.895  0.00  0.00    +0.000 HD
ATOM     11  H   UNL     1      47.756  12.003  12.841  0.00  0.00    +0.000 HD
ENDBRANCH   4   7
BRANCH   1  12
ATOM     12  O   UNL     1      45.324   5.088  11.511  0.00  0.00    +0.000 OA
BRANCH  12  14
ATOM     13  C   UNL     1      42.941   4.550  11.471  0.00  0.00    +0.000 C 
ATOM     14  C   UNL     1      44.161   5.019  10.669  0.00  0.00    +0.000 C 
BRANCH  14  15
ATOM     15  C   UNL     1      44.455   4.051   9.485  0.00  0.00    +0.000 C 
ATOM     16  C   UNL     1      44.734   2.606   9.943  0.00  0.00    +0.000 C 
ATOM     17  C   UNL     1      45.092   1.689   8.775  0.00  0.00    +0.000 C 
ATOM     18  C   UNL     1      46.267   2.237   7.975  0.00  0.00    +0.000 C 
ATOM     19  C   UNL     1      45.971   3.645   7.475  0.00  0.00    +0.000 C 
ATOM     20  C   UNL     1      45.620   4.585   8.627  0.00  0.00    +0.000 C 
ENDBRANCH  14  15
ENDBRANCH  12  14
ENDBRANCH   1  12
TORSDOF 4
ENDMDL
MODEL 5
REMARK VINA RESULT:    -5.473      4.405      6.496
REMARK INTER + INTRA:          -7.370
REMARK INTER:                  -6.730
REMARK INTRA:                  -0.640
REMARK UNBOUND:                -0.617
REMARK  Name = 
REMARK  5 active torsions:
REMARK  status: ('A' for Active; 'I' for Inactive)
REMARK    1  A    between atoms: C_1  and  C_2
REMARK    2  A    between atoms: C_2  and  O_3
REMARK    3  A    between atoms: C_2  and  C_13
REMARK    4  A    between atoms: O_3  and  C_4
REMARK    5  A    between atoms: C_7  and  C_8
REMARK                            x       y       z     vdW  Elec       q    Type
REMARK                         _______ _______ _______ _____ _____    ______ ____
ROOT
ATOM      1  C   UNL     1      46.935   5.638  13.440  0.00  0.00    +0.000 A 
ATOM      2  C   UNL     1      46.571   6.844  12.836  0.00  0.00    +0.000 A 
ATOM      3  C   UNL     1      45.313   6.987  12.239  0.00  0.00    +0.000 A 
ATOM      4  C   UNL     1      44.422   5.910  12.215  0.00  0.00    +0.000 A 
ATOM      5  C   UNL     1      44.804   4.688  12.778  0.00  0.00    +0.000 A 
ATOM      6  C   UNL     1      46.061   4.552  13.381  0.00  0.00    +0.000 A 
ENDROOT
BRANCH   4   7
ATOM      7  C   UNL     1      43.072   6.126  11.627  0.00  0.00    +0.000 C 
ATOM      8  N   UNL     1      42.810   7.350  11.076  0.00  0.00    +0.000 N 
ATOM      9  O   UNL     1      42.213   5.255  11.650  0.00  0.00    +0.000 OA
ATOM     10  H   UNL     1      43.385   8.162  11.247  0.00  0.00    +0.000 HD
ATOM     11  H   UNL     1      41.859   7.503  10.767  0.00  0.00    +0.000 HD
ENDBRANCH   4   7
BRANCH   1  12
ATOM     12  O   UNL     1      48.160   5.639  14.049  0.00  0.00    +0.000 OA
BRANCH  12  14
ATOM     13  C   UNL     1      49.330   7.180  15.542  0.00  0.00    +0.000 C 
ATOM     14  C   UNL     1      48.245   6.104  15.406  0.00  0.00    +0.000 C 
BRANCH  14  15
ATOM     15  C   UNL     1      48.546   4.890  16.334  0.00  0.00    +0.000 C 
ATOM     16  C   UNL     1      47.274   4.156  16.799  0.00  0.00    +0.000 C 
ATOM     17  C   UNL     1      47.586   3.014  17.765  0.00  0.00    +0.000 C 
ATOM     18  C   UNL     1      48.395   3.501  18.960  0.00  0.00    +0.000 C 
ATOM     19  C   UNL     1      49.682   4.178  18.503  0.00  0.00    +0.000 C 
ATOM     20  C   UNL     1      49.395   5.331  17.543  0.00  0.00    +0.000 C 
ENDBRANCH  14  15
ENDBRANCH  12  14
ENDBRANCH   1  12
TORSDOF 4
ENDMDL
MODEL 6
REMARK VINA RESULT:    -5.451      3.013      5.114
REMARK INTER + INTRA:          -7.343
REMARK INTER:                  -6.572
REMARK INTRA:                  -0.770
REMARK UNBOUND:                -0.617
REMARK  Name = 
REMARK  5 active torsions:
REMARK  status: ('A' for Active; 'I' for Inactive)
REMARK    1  A    between atoms: C_1  and  C_2
REMARK    2  A    between atoms: C_2  and  O_3
REMARK    3  A    between atoms: C_2  and  C_13
REMARK    4  A    between atoms: O_3  and  C_4
REMARK    5  A    between atoms: C_7  and  C_8
REMARK                            x       y       z     vdW  Elec       q    Type
REMARK                         _______ _______ _______ _____ _____    ______ ____
ROOT
ATOM      1  C   UNL     1      46.413   6.105  12.910  0.00  0.00    +0.000 A 
ATOM      2  C   UNL     1      46.234   6.566  11.604  0.00  0.00    +0.000 A 
ATOM      3  C   UNL     1      45.537   5.794  10.668  0.00  0.00    +0.000 A 
ATOM      4  C   UNL     1      45.040   4.538  11.027  0.00  0.00    +0.000 A 
ATOM      5  C   UNL     1      45.259   4.054  12.321  0.00  0.00    +0.000 A 
ATOM      6  C   UNL     1      45.952   4.835  13.256  0.00  0.00    +0.000 A 
ENDROOT
BRANCH   4   7
ATOM      7  C   UNL     1      44.249   3.778  10.020  0.00  0.00    +0.000 C 
ATOM      8  N   UNL     1      44.074   4.352   8.791  0.00  0.00    +0.000 N 
ATOM      9  O   UNL     1      43.752   2.692  10.279  0.00  0.00    +0.000 OA
ATOM     10  H   UNL     1      44.250   5.329   8.612  0.00  0.00    +0.000 HD
ATOM     11  H   UNL     1      43.457   3.861   8.156  0.00  0.00    +0.000 HD
ENDBRANCH   4   7
BRANCH   1  12
ATOM     12  O   UNL     1      47.051   6.975  13.752  0.00  0.00    +0.000 OA
BRANCH  12  14
ATOM     13  C   UNL     1      48.771   6.648  15.456  0.00  0.00    +0.000 C 
ATOM     14  C   UNL     1      48.463   6.806  13.962  0.00  0.00    +0.000 C 
BRANCH  14  15
ATOM     15  C   UNL     1      49.209   8.037  13.367  0.00  0.00    +0.000 C 
ATOM     16  C   UNL     1      48.345   9.314  13.345  0.00  0.00    +0.000 C 
ATOM     17  C   UNL     1      49.068  10.490  12.692  0.00  0.00    +0.000 C 
ATOM     18  C   UNL     1      49.549  10.140  11.290  0.00  0.00    +0.000 C 
ATOM     19  C   UNL     1      50.449   8.910  11.317  0.00  0.00    +0.000 C 
ATOM     20  C   UNL     1      49.743   7.716  11.957  0.00  0.00    +0.000 C 
ENDBRANCH  14  15
ENDBRANCH  12  14
ENDBRANCH   1  12
TORSDOF 4
ENDMDL
MODEL 7
REMARK VINA RESULT:    -5.251      4.516      7.001
REMARK INTER + INTRA:          -7.096
REMARK INTER:                  -6.522
REMARK INTRA:                  -0.574
REMARK UNBOUND:                -0.617
REMARK  Name = 
REMARK  5 active torsions:
REMARK  status: ('A' for Active; 'I' for Inactive)
REMARK    1  A    between atoms: C_1  and  C_2
REMARK    2  A    between atoms: C_2  and  O_3
REMARK    3  A    between atoms: C_2  and  C_13
REMARK    4  A    between atoms: O_3  and  C_4
REMARK    5  A    between atoms: C_7  and  C_8
REMARK                            x       y       z     vdW  Elec       q    Type
REMARK                         _______ _______ _______ _____ _____    ______ ____
ROOT
ATOM      1  C   UNL     1      47.698   5.198  14.717  0.00  0.00    +0.000 A 
ATOM      2  C   UNL     1      47.889   6.390  14.016  0.00  0.00    +0.000 A 
ATOM      3  C   UNL     1      47.117   6.682  12.886  0.00  0.00    +0.000 A 
ATOM      4  C   UNL     1      46.166   5.763  12.432  0.00  0.00    +0.000 A 
ATOM      5  C   UNL     1      46.005   4.547  13.106  0.00  0.00    +0.000 A 
ATOM      6  C   UNL     1      46.777   4.264  14.241  0.00  0.00    +0.000 A 
ENDROOT
BRANCH   4   7
ATOM      7  C   UNL     1      45.321   6.141  11.265  0.00  0.00    +0.000 C 
ATOM      8  N   UNL     1      45.672   5.638  10.043  0.00  0.00    +0.000 N 
ATOM      9  O   UNL     1      44.362   6.890  11.381  0.00  0.00    +0.000 OA
ATOM     10  H   UNL     1      46.574   5.226   9.858  0.00  0.00    +0.000 HD
ATOM     11  H   UNL     1      45.140   5.982   9.253  0.00  0.00    +0.000 HD
ENDBRANCH   4   7
BRANCH   1  12
ATOM     12  O   UNL     1      48.464   5.055  15.842  0.00  0.00    +0.000 OA
BRANCH  12  14
ATOM     13  C   UNL     1      47.125   4.836  17.874  0.00  0.00    +0.000 C 
ATOM     14  C   UNL     1      48.024   4.131  16.851  0.00  0.00    +0.000 C 
BRANCH  14  15
ATOM     15  C   UNL     1      49.275   3.512  17.543  0.00  0.00    +0.000 C 
ATOM     16  C   UNL     1      50.462   4.491  17.632  0.00  0.00    +0.000 C 
ATOM     17  C   UNL     1      51.700   3.842  18.247  0.00  0.00    +0.000 C 
ATOM     18  C   UNL     1      52.099   2.579  17.496  0.00  0.00    +0.000 C 
ATOM     19  C   UNL     1      50.944   1.586  17.454  0.00  0.00    +0.000 C 
ATOM     20  C   UNL     1      49.695   2.209  16.833  0.00  0.00    +0.000 C 
ENDBRANCH  14  15
ENDBRANCH  12  14
ENDBRANCH   1  12
TORSDOF 4
ENDMDL
