MODEL 1
REMARK VINA RESULT:    -7.837      0.000      0.000
REMARK INTER + INTRA:         -11.081
REMARK INTER:                 -10.357
REMARK INTRA:                  -0.724
REMARK UNBOUND:                -0.724
REMARK  Name = 
REMARK  6 active torsions:
REMARK  status: ('A' for Active; 'I' for Inactive)
REMARK    1  A    between atoms: N_1  and  C_2
REMARK    2  A    between atoms: C_2  and  C_3
REMARK    3  A    between atoms: C_3  and  C_4
REMARK    4  A    between atoms: C_7  and  C_8
REMARK    5  A    between atoms: C_8  and  N_9
REMARK    6  A    between atoms: C_14  and  C_15
REMARK                            x       y       z     vdW  Elec       q    Type
REMARK                         _______ _______ _______ _____ _____    ______ ____
ROOT
ATOM      1  N   UNL     1      43.885   4.319  10.524  0.00  0.00    +0.000 N 
ATOM      2  C   UNL     1      43.394   3.177  11.101  0.00  0.00    +0.000 A 
ATOM      3  N   UNL     1      43.873   2.095  10.533  0.00  0.00    +0.000 NA
ATOM      4  C   UNL     1      44.696   2.549   9.535  0.00  0.00    +0.000 A 
ATOM      5  C   UNL     1      45.572   1.827   8.716  0.00  0.00    +0.000 A 
ATOM      6  C   UNL     1      46.375   2.517   7.792  0.00  0.00    +0.000 A 
ATOM      7  C   UNL     1      46.197   3.896   7.610  0.00  0.00    +0.000 A 
ATOM      8  C   UNL     1      45.318   4.637   8.422  0.00  0.00    +0.000 A 
ATOM      9  C   UNL     1      44.632   3.937   9.424  0.00  0.00    +0.000 A 
ENDROOT
BRANCH   6  10
ATOM     10  C   UNL     1      47.442   1.724   7.115  0.00  0.00    +0.000 C 
ATOM     11  N   UNL     1      48.462   2.374   6.478  0.00  0.00    +0.000 N 
ATOM     12  O   UNL     1      47.456   0.497   7.161  0.00  0.00    +0.000 OA
ATOM     13  H   UNL     1      48.565   3.371   6.407  0.00  0.00    +0.000 HD
ATOM     14  H   UNL     1      49.198   1.788   6.111  0.00  0.00    +0.000 HD
ENDBRANCH   6  10
BRANCH   1  15
ATOM     15  C   UNL     1      43.997   5.612  11.198  0.00  0.00    +0.000 C 
BRANCH  15  19
ATOM     16  C   UNL     1      47.746   6.456  13.231  0.00  0.00    +0.000 A 
ATOM     17  C   UNL     1      47.420   7.108  12.038  0.00  0.00    +0.000 A 
ATOM     18  C   UNL     1      46.216   6.833  11.377  0.00  0.00    +0.000 A 
ATOM     19  C   UNL     1      45.317   5.878  11.879  0.00  0.00    +0.000 A 
ATOM     20  C   UNL     1      45.652   5.206  13.058  0.00  0.00    +0.000 A 
ATOM     21  C   UNL     1      46.849   5.494  13.724  0.00  0.00    +0.000 A 
BRANCH  16  22
ATOM     22  C   UNL     1      49.053   6.670  13.970  0.00  0.00    +0.000 C 
BRANCH  22  23
ATOM     23  C   UNL     1      48.969   6.861  15.492  0.00  0.00    +0.000 C 
BRANCH  23  24
ATOM     24  N   UNL     1      49.709   5.809  16.193  0.00  0.00    +0.000 NA
ATOM     25  H   UNL     1      49.476   4.903  15.787  0.00  0.00    +0.000 HD
ATOM     26  H   UNL     1      49.408   5.768  17.166  0.00  0.00    +0.000 HD
ENDBRANCH  23  24
ENDBRANCH  22  23
ENDBRANCH  16  22
ENDBRANCH  15  19
ENDBRANCH   1  15
TORSDOF 6
ENDMDL
MODEL 2
REMARK VINA RESULT:    -7.772      2.579      6.549
REMARK INTER + INTRA:         -10.995
REMARK INTER:                 -10.330
REMARK INTRA:                  -0.665
REMARK UNBOUND:                -0.724
REMARK  Name = 
REMARK  6 active torsions:
REMARK  status: ('A' for Active; 'I' for Inactive)
REMARK    1  A    between atoms: N_1  and  C_2
REMARK    2  A    between atoms: C_2  and  C_3
REMARK    3  A    between atoms: C_3  and  C_4
REMARK    4  A    between atoms: C_7  and  C_8
REMARK    5  A    between atoms: C_8  and  N_9
REMARK    6  A    between atoms: C_14  and  C_15
REMARK                            x       y       z     vdW  Elec       q    Type
REMARK                         _______ _______ _______ _____ _____    ______ ____
ROOT
ATOM      1  N   UNL     1      43.835   5.898  11.456  0.00  0.00    +0.000 N 
ATOM      2  C   UNL     1      43.630   7.202  11.086  0.00  0.00    +0.000 A 
ATOM      3  N   UNL     1      44.623   7.978  11.452  0.00  0.00    +0.000 NA
ATOM      4  C   UNL     1      45.502   7.151  12.103  0.00  0.00    +0.000 A 
ATOM      5  C   UNL     1      46.794   7.426  12.566  0.00  0.00    +0.000 A 
ATOM      6  C   UNL     1      47.547   6.396  13.153  0.00  0.00    +0.000 A 
ATOM      7  C   UNL     1      46.954   5.146  13.385  0.00  0.00    +0.000 A 
ATOM      8  C   UNL     1      45.654   4.854  12.929  0.00  0.00    +0.000 A 
ATOM      9  C   UNL     1      44.983   5.864  12.228  0.00  0.00    +0.000 A 
ENDROOT
BRANCH   6  10
ATOM     10  C   UNL     1      48.986   6.689  13.417  0.00  0.00    +0.000 C 
ATOM     11  N   UNL     1      49.794   7.080  12.387  0.00  0.00    +0.000 N 
ATOM     12  O   UNL     1      49.452   6.639  14.553  0.00  0.00    +0.000 OA
ATOM     13  H   UNL     1      49.509   7.184  11.429  0.00  0.00    +0.000 HD
ATOM     14  H   UNL     1      50.735   7.344  12.639  0.00  0.00    +0.000 HD
ENDBRANCH   6  10
BRANCH   1  15
ATOM     15  C   UNL     1      43.249   4.739  10.786  0.00  0.00    +0.000 C 
BRANCH  15  19
ATOM     16  C   UNL     1      45.889   2.449   8.200  0.00  0.00    +0.000 A 
ATOM     17  C   UNL     1      45.075   1.805   9.137  0.00  0.00    +0.000 A 
ATOM     18  C   UNL     1      44.229   2.541   9.976  0.00  0.00    +0.000 A 
ATOM     19  C   UNL     1      44.193   3.943   9.918  0.00  0.00    +0.000 A 
ATOM     20  C   UNL     1      45.024   4.591   8.999  0.00  0.00    +0.000 A 
ATOM     21  C   UNL     1      45.857   3.852   8.152  0.00  0.00    +0.000 A 
BRANCH  16  22
ATOM     22  C   UNL     1      46.863   1.716   7.297  0.00  0.00    +0.000 C 
BRANCH  22  23
ATOM     23  C   UNL     1      47.974   2.555   6.647  0.00  0.00    +0.000 C 
BRANCH  23  24
ATOM     24  N   UNL     1      48.518   1.878   5.467  0.00  0.00    +0.000 NA
ATOM     25  H   UNL     1      49.059   1.066   5.763  0.00  0.00    +0.000 HD
ATOM     26  H   UNL     1      49.176   2.496   4.990  0.00  0.00    +0.000 HD
ENDBRANCH  23  24
ENDBRANCH  22  23
ENDBRANCH  16  22
ENDBRANCH  15  19
ENDBRANCH   1  15
TORSDOF 6
ENDMDL
MODEL 3
REMARK VINA RESULT:    -6.608      3.063      7.268
REMARK INTER + INTRA:          -9.456
REMARK INTER:                  -8.867
REMARK INTRA:                  -0.589
REMARK UNBOUND:                -0.724
REMARK  Name = 
REMARK  6 active torsions:
REMARK  status: ('A' for Active; 'I' for Inactive)
REMARK    1  A    between atoms: N_1  and  C_2
REMARK    2  A    between atoms: C_2  and  C_3
REMARK    3  A    between atoms: C_3  and  C_4
REMARK    4  A    between atoms: C_7  and  C_8
REMARK    5  A    between atoms: C_8  and  N_9
REMARK    6  A    between atoms: C_14  and  C_15
REMARK                            x       y       z     vdW  Elec       q    Type
REMARK                         _______ _______ _______ _____ _____    ______ ____
ROOT
ATOM      1  N   UNL     1      46.104   4.401  12.562  0.00  0.00    +0.000 N 
ATOM      2  C   UNL     1      46.380   3.499  13.556  0.00  0.00    +0.000 A 
ATOM      3  N   UNL     1      47.126   4.023  14.501  0.00  0.00    +0.000 NA
ATOM      4  C   UNL     1      47.361   5.312  14.098  0.00  0.00    +0.000 A 
ATOM      5  C   UNL     1      47.973   6.359  14.798  0.00  0.00    +0.000 A 
ATOM      6  C   UNL     1      48.049   7.630  14.205  0.00  0.00    +0.000 A 
ATOM      7  C   UNL     1      47.630   7.805  12.878  0.00  0.00    +0.000 A 
ATOM      8  C   UNL     1      47.015   6.762  12.158  0.00  0.00    +0.000 A 
ATOM      9  C   UNL     1      46.835   5.545  12.829  0.00  0.00    +0.000 A 
ENDROOT
BRANCH   6  10
ATOM     10  C   UNL     1      48.503   8.748  15.082  0.00  0.00    +0.000 C 
ATOM     11  N   UNL     1      47.630   9.299  15.977  0.00  0.00    +0.000 N 
ATOM     12  O   UNL     1      49.663   9.152  15.056  0.00  0.00    +0.000 OA
ATOM     13  H   UNL     1      46.671   9.025  16.103  0.00  0.00    +0.000 HD
ATOM     14  H   UNL     1      48.016   9.994  16.601  0.00  0.00    +0.000 HD
ENDBRANCH   6  10
BRANCH   1  15
ATOM     15  C   UNL     1      44.934   4.346  11.687  0.00  0.00    +0.000 C 
BRANCH  15  19
ATOM     16  C   UNL     1      45.826   3.111   7.616  0.00  0.00    +0.000 A 
ATOM     17  C   UNL     1      45.953   4.450   7.998  0.00  0.00    +0.000 A 
ATOM     18  C   UNL     1      45.659   4.851   9.307  0.00  0.00    +0.000 A 
ATOM     19  C   UNL     1      45.206   3.928  10.263  0.00  0.00    +0.000 A 
ATOM     20  C   UNL     1      45.054   2.593   9.876  0.00  0.00    +0.000 A 
ATOM     21  C   UNL     1      45.362   2.193   8.571  0.00  0.00    +0.000 A 
BRANCH  16  22
ATOM     22  C   UNL     1      46.079   2.618   6.203  0.00  0.00    +0.000 C 
BRANCH  22  23
ATOM     23  C   UNL     1      47.546   2.498   5.762  0.00  0.00    +0.000 C 
BRANCH  23  24
ATOM     24  N   UNL     1      48.288   1.604   6.653  0.00  0.00    +0.000 NA
ATOM     25  H   UNL     1      47.746   0.754   6.808  0.00  0.00    +0.000 HD
ATOM     26  H   UNL     1      48.393   2.042   7.568  0.00  0.00    +0.000 HD
ENDBRANCH  23  24
ENDBRANCH  22  23
ENDBRANCH  16  22
ENDBRANCH  15  19
ENDBRANCH   1  15
TORSDOF 6
ENDMDL
MODEL 4
REMARK VINA RESULT:    -6.477      1.919      2.139
REMARK INTER + INTRA:          -9.283
REMARK INTER:                  -8.875
REMARK INTRA:                  -0.408
REMARK UNBOUND:                -0.724
REMARK  Name = 
REMARK  6 active torsions:
REMARK  status: ('A' for Active; 'I' for Inactive)
REMARK    1  A    between atoms: N_1  and  C_2
REMARK    2  A    between atoms: C_2  and  C_3
REMARK    3  A    between atoms: C_3  and  C_4
REMARK    4  A    between atoms: C_7  and  C_8
REMARK    5  A    between atoms: C_8  and  N_9
REMARK    6  A    between atoms: C_14  and  C_15
REMARK                            x       y       z     vdW  Elec       q    Type
REMARK                         _______ _______ _______ _____ _____    ______ ____
ROOT
ATOM      1  N   UNL     1      43.576   4.941  11.153  0.00  0.00    +0.000 N 
ATOM      2  C   UNL     1      43.371   4.034  12.160  0.00  0.00    +0.000 A 
ATOM      3  N   UNL     1      43.827   2.843  11.847  0.00  0.00    +0.000 NA
ATOM      4  C   UNL     1      44.334   2.975  10.580  0.00  0.00    +0.000 A 
ATOM      5  C   UNL     1      45.073   2.057   9.825  0.00  0.00    +0.000 A 
ATOM      6  C   UNL     1      45.551   2.435   8.559  0.00  0.00    +0.000 A 
ATOM      7  C   UNL     1      45.176   3.673   8.016  0.00  0.00    +0.000 A 
ATOM      8  C   UNL     1      44.430   4.606   8.760  0.00  0.00    +0.000 A 
ATOM      9  C   UNL     1      44.085   4.247  10.070  0.00  0.00    +0.000 A 
ENDROOT
BRANCH   6  10
ATOM     10  C   UNL     1      46.516   1.504   7.905  0.00  0.00    +0.000 C 
ATOM     11  N   UNL     1      47.543   2.012   7.161  0.00  0.00    +0.000 N 
ATOM     12  O   UNL     1      46.440   0.288   8.063  0.00  0.00    +0.000 OA
ATOM     13  H   UNL     1      47.716   2.988   6.993  0.00  0.00    +0.000 HD
ATOM     14  H   UNL     1      48.211   1.339   6.812  0.00  0.00    +0.000 HD
ENDBRANCH   6  10
BRANCH   1  15
ATOM     15  C   UNL     1      43.691   6.386  11.345  0.00  0.00    +0.000 C 
BRANCH  15  19
ATOM     16  C   UNL     1      47.614   7.725  12.654  0.00  0.00    +0.000 A 
ATOM     17  C   UNL     1      46.455   8.355  13.118  0.00  0.00    +0.000 A 
ATOM     18  C   UNL     1      45.190   7.930  12.692  0.00  0.00    +0.000 A 
ATOM     19  C   UNL     1      45.051   6.880  11.771  0.00  0.00    +0.000 A 
ATOM     20  C   UNL     1      46.210   6.265  11.286  0.00  0.00    +0.000 A 
ATOM     21  C   UNL     1      47.471   6.682  11.725  0.00  0.00    +0.000 A 
BRANCH  16  22
ATOM     22  C   UNL     1      49.014   8.167  13.037  0.00  0.00    +0.000 C 
BRANCH  22  23
ATOM     23  C   UNL     1      49.846   8.859  11.946  0.00  0.00    +0.000 C 
BRANCH  23  24
ATOM     24  N   UNL     1      49.067   9.903  11.276  0.00  0.00    +0.000 NA
ATOM     25  H   UNL     1      49.562  10.210  10.439  0.00  0.00    +0.000 HD
ATOM     26  H   UNL     1      49.001  10.722  11.881  0.00  0.00    +0.000 HD
ENDBRANCH  23  24
ENDBRANCH  22  23
ENDBRANCH  16  22
ENDBRANCH  15  19
ENDBRANCH   1  15
TORSDOF 6
ENDMDL
MODEL 5
REMARK VINA RESULT:    -6.236      4.011      6.111
REMARK INTER + INTRA:          -8.965
REMARK INTER:                  -8.550
REMARK INTRA:                  -0.414
REMARK UNBOUND:                -0.724
REMARK  Name = 
REMARK  6 active torsions:
REMARK  status: ('A' for Active; 'I' for Inactive)
REMARK    1  A    between atoms: N_1  and  C_2
REMARK    2  A    between atoms: C_2  and  C_3
REMARK    3  A    between atoms: C_3  and  C_4
REMARK    4  A    between atoms: C_7  and  C_8
REMARK    5  A    between atoms: C_8  and  N_9
REMARK    6  A    between atoms: C_14  and  C_15
REMARK                            x       y       z     vdW  Elec       q    Type
REMARK                         _______ _______ _______ _____ _____    ______ ____
ROOT
ATOM      1  N   UNL     1      47.435   5.034  14.707  0.00  0.00    +0.000 N 
ATOM      2  C   UNL     1      47.919   6.288  14.436  0.00  0.00    +0.000 A 
ATOM      3  N   UNL     1      47.434   6.769  13.315  0.00  0.00    +0.000 NA
ATOM      4  C   UNL     1      46.615   5.783  12.827  0.00  0.00    +0.000 A 
ATOM      5  C   UNL     1      45.735   5.825  11.739  0.00  0.00    +0.000 A 
ATOM      6  C   UNL     1      44.938   4.703  11.457  0.00  0.00    +0.000 A 
ATOM      7  C   UNL     1      45.124   3.518  12.184  0.00  0.00    +0.000 A 
ATOM      8  C   UNL     1      46.007   3.458  13.278  0.00  0.00    +0.000 A 
ATOM      9  C   UNL     1      46.687   4.636  13.614  0.00  0.00    +0.000 A 
ENDROOT
BRANCH   6  10
ATOM     10  C   UNL     1      43.866   4.887  10.436  0.00  0.00    +0.000 C 
ATOM     11  N   UNL     1      44.069   4.446   9.160  0.00  0.00    +0.000 N 
ATOM     12  O   UNL     1      42.780   5.381  10.729  0.00  0.00    +0.000 OA
ATOM     13  H   UNL     1      44.905   4.001   8.821  0.00  0.00    +0.000 HD
ATOM     14  H   UNL     1      43.279   4.522   8.534  0.00  0.00    +0.000 HD
ENDBRANCH   6  10
BRANCH   1  15
ATOM     15  C   UNL     1      47.330   4.453  16.045  0.00  0.00    +0.000 C 
BRANCH  15  19
ATOM     16  C   UNL     1      51.045   2.747  17.526  0.00  0.00    +0.000 A 
ATOM     17  C   UNL     1      50.045   1.925  16.995  0.00  0.00    +0.000 A 
ATOM     18  C   UNL     1      48.845   2.472  16.524  0.00  0.00    +0.000 A 
ATOM     19  C   UNL     1      48.601   3.853  16.594  0.00  0.00    +0.000 A 
ATOM     20  C   UNL     1      49.589   4.674  17.148  0.00  0.00    +0.000 A 
ATOM     21  C   UNL     1      50.793   4.126  17.604  0.00  0.00    +0.000 A 
BRANCH  16  22
ATOM     22  C   UNL     1      52.345   2.216  18.098  0.00  0.00    +0.000 C 
BRANCH  22  23
ATOM     23  C   UNL     1      52.891   0.914  17.491  0.00  0.00    +0.000 C 
BRANCH  23  24
ATOM     24  N   UNL     1      52.613  -0.228  18.366  0.00  0.00    +0.000 NA
ATOM     25  H   UNL     1      51.626  -0.476  18.295  0.00  0.00    +0.000 HD
ATOM     26  H   UNL     1      52.767   0.040  19.338  0.00  0.00    +0.000 HD
ENDBRANCH  23  24
ENDBRANCH  22  23
ENDBRANCH  16  22
ENDBRANCH  15  19
ENDBRANCH   1  15
TORSDOF 6
ENDMDL
MODEL 6
REMARK VINA RESULT:    -6.118      3.308      6.795
REMARK INTER + INTRA:          -8.809
REMARK INTER:                  -8.447
REMARK INTRA:                  -0.363
REMARK UNBOUND:                -0.724
REMARK  Name = 
REMARK  6 active torsions:
REMARK  status: ('A' for Active; 'I' for Inactive)
REMARK    1  A    between atoms: N_1  and  C_2
REMARK    2  A    between atoms: C_2  and  C_3
REMARK    3  A    between atoms: C_3  and  C_4
REMARK    4  A    between atoms: C_7  and  C_8
REMARK    5  A    between atoms: C_8  and  N_9
REMARK    6  A    between atoms: C_14  and  C_15
REMARK                            x       y       z     vdW  Elec       q    Type
REMARK                         _______ _______ _______ _____ _____    ______ ____
ROOT
ATOM      1  N   UNL     1      45.572   7.489  12.871  0.00  0.00    +0.000 N 
ATOM      2  C   UNL     1      45.118   8.729  12.503  0.00  0.00    +0.000 A 
ATOM      3  N   UNL     1      46.097   9.517  12.125  0.00  0.00    +0.000 NA
ATOM      4  C   UNL     1      47.236   8.768  12.268  0.00  0.00    +0.000 A 
ATOM      5  C   UNL     1      48.544   9.066  11.868  0.00  0.00    +0.000 A 
ATOM      6  C   UNL     1      49.555   8.110  12.061  0.00  0.00    +0.000 A 
ATOM      7  C   UNL     1      49.272   6.929  12.763  0.00  0.00    +0.000 A 
ATOM      8  C   UNL     1      47.962   6.616  13.175  0.00  0.00    +0.000 A 
ATOM      9  C   UNL     1      46.955   7.533  12.847  0.00  0.00    +0.000 A 
ENDROOT
BRANCH   6  10
ATOM     10  C   UNL     1      50.870   8.391  11.414  0.00  0.00    +0.000 C 
ATOM     11  N   UNL     1      51.823   7.414  11.373  0.00  0.00    +0.000 N 
ATOM     12  O   UNL     1      51.098   9.468  10.868  0.00  0.00    +0.000 OA
ATOM     13  H   UNL     1      51.730   6.490  11.759  0.00  0.00    +0.000 HD
ATOM     14  H   UNL     1      52.660   7.633  10.850  0.00  0.00    +0.000 HD
ENDBRANCH   6  10
BRANCH   1  15
ATOM     15  C   UNL     1      44.777   6.263  12.825  0.00  0.00    +0.000 C 
BRANCH  15  19
ATOM     16  C   UNL     1      44.970   4.055   9.085  0.00  0.00    +0.000 A 
ATOM     17  C   UNL     1      44.208   3.576  10.156  0.00  0.00    +0.000 A 
ATOM     18  C   UNL     1      44.150   4.283  11.365  0.00  0.00    +0.000 A 
ATOM     19  C   UNL     1      44.873   5.473  11.543  0.00  0.00    +0.000 A 
ATOM     20  C   UNL     1      45.655   5.939  10.482  0.00  0.00    +0.000 A 
ATOM     21  C   UNL     1      45.699   5.240   9.271  0.00  0.00    +0.000 A 
BRANCH  16  22
ATOM     22  C   UNL     1      45.115   3.314   7.769  0.00  0.00    +0.000 C 
BRANCH  22  23
ATOM     23  C   UNL     1      46.545   3.052   7.273  0.00  0.00    +0.000 C 
BRANCH  23  24
ATOM     24  N   UNL     1      46.913   3.996   6.215  0.00  0.00    +0.000 NA
ATOM     25  H   UNL     1      46.103   4.169   5.620  0.00  0.00    +0.000 HD
ATOM     26  H   UNL     1      47.620   3.576   5.611  0.00  0.00    +0.000 HD
ENDBRANCH  23  24
ENDBRANCH  22  23
ENDBRANCH  16  22
ENDBRANCH  15  19
ENDBRANCH   1  15
TORSDOF 6
ENDMDL
MODEL 7
REMARK VINA RESULT:    -5.609      3.419      5.454
REMARK INTER + INTRA:          -8.137
REMARK INTER:                  -7.513
REMARK INTRA:                  -0.624
REMARK UNBOUND:                -0.724
REMARK  Name = 
REMARK  6 active torsions:
REMARK  status: ('A' for Active; 'I' for Inactive)
REMARK    1  A    between atoms: N_1  and  C_2
REMARK    2  A    between atoms: C_2  and  C_3
REMARK    3  A    between atoms: C_3  and  C_4
REMARK    4  A    between atoms: C_7  and  C_8
REMARK    5  A    between atoms: C_8  and  N_9
REMARK    6  A    between atoms: C_14  and  C_15
REMARK                            x       y       z     vdW  Elec       q    Type
REMARK                         _______ _______ _______ _____ _____    ______ ____
ROOT
ATOM      1  N   UNL     1      47.397   7.250  13.627  0.00  0.00    +0.000 N 
ATOM      2  C   UNL     1      47.955   6.170  14.260  0.00  0.00    +0.000 A 
ATOM      3  N   UNL     1      47.351   5.049  13.941  0.00  0.00    +0.000 NA
ATOM      4  C   UNL     1      46.349   5.414  13.080  0.00  0.00    +0.000 A 
ATOM      5  C   UNL     1      45.497   4.602  12.322  0.00  0.00    +0.000 A 
ATOM      6  C   UNL     1      44.575   5.202  11.447  0.00  0.00    +0.000 A 
ATOM      7  C   UNL     1      44.432   6.597  11.438  0.00  0.00    +0.000 A 
ATOM      8  C   UNL     1      45.278   7.428  12.196  0.00  0.00    +0.000 A 
ATOM      9  C   UNL     1      46.275   6.800  12.955  0.00  0.00    +0.000 A 
ENDROOT
BRANCH   6  10
ATOM     10  C   UNL     1      43.859   4.291  10.507  0.00  0.00    +0.000 C 
ATOM     11  N   UNL     1      43.948   4.506   9.161  0.00  0.00    +0.000 N 
ATOM     12  O   UNL     1      43.231   3.317  10.914  0.00  0.00    +0.000 OA
ATOM     13  H   UNL     1      44.460   5.252   8.721  0.00  0.00    +0.000 HD
ATOM     14  H   UNL     1      43.513   3.811   8.572  0.00  0.00    +0.000 HD
ENDBRANCH   6  10
BRANCH   1  15
ATOM     15  C   UNL     1      48.101   8.497  13.330  0.00  0.00    +0.000 C 
BRANCH  15  19
ATOM     16  C   UNL     1      51.976   7.940  11.439  0.00  0.00    +0.000 A 
ATOM     17  C   UNL     1      51.875   8.565  12.686  0.00  0.00    +0.000 A 
ATOM     18  C   UNL     1      50.627   8.752  13.294  0.00  0.00    +0.000 A 
ATOM     19  C   UNL     1      49.444   8.342  12.659  0.00  0.00    +0.000 A 
ATOM     20  C   UNL     1      49.540   7.738  11.401  0.00  0.00    +0.000 A 
ATOM     21  C   UNL     1      50.790   7.540  10.804  0.00  0.00    +0.000 A 
BRANCH  16  22
ATOM     22  C   UNL     1      53.289   7.751  10.704  0.00  0.00    +0.000 C 
BRANCH  22  23
ATOM     23  C   UNL     1      53.369   6.581   9.712  0.00  0.00    +0.000 C 
BRANCH  23  24
ATOM     24  N   UNL     1      53.644   5.322  10.409  0.00  0.00    +0.000 NA
ATOM     25  H   UNL     1      53.654   4.557   9.736  0.00  0.00    +0.000 HD
ATOM     26  H   UNL     1      52.885   5.117  11.058  0.00  0.00    +0.000 HD
ENDBRANCH  23  24
ENDBRANCH  22  23
ENDBRANCH  16  22
ENDBRANCH  15  19
ENDBRANCH   1  15
TORSDOF 6
ENDMDL
MODEL 8
REMARK VINA RESULT:    -5.512      2.687      3.773
REMARK INTER + INTRA:          -8.009
REMARK INTER:                  -7.362
REMARK INTRA:                  -0.647
REMARK UNBOUND:                -0.724
REMARK  Name = 
REMARK  6 active torsions:
REMARK  status: ('A' for Active; 'I' for Inactive)
REMARK    1  A    between atoms: N_1  and  C_2
REMARK    2  A    between atoms: C_2  and  C_3
REMARK    3  A    between atoms: C_3  and  C_4
REMARK    4  A    between atoms: C_7  and  C_8
REMARK    5  A    between atoms: C_8  and  N_9
REMARK    6  A    between atoms: C_14  and  C_15
REMARK                            x       y       z     vdW  Elec       q    Type
REMARK                         _______ _______ _______ _____ _____    ______ ____
ROOT
ATOM      1  N   UNL     1      45.606   5.974  13.233  0.00  0.00    +0.000 N 
ATOM      2  C   UNL     1      46.194   5.007  14.006  0.00  0.00    +0.000 A 
ATOM      3  N   UNL     1      46.105   3.818  13.456  0.00  0.00    +0.000 NA
ATOM      4  C   UNL     1      45.418   4.015  12.287  0.00  0.00    +0.000 A 
ATOM      5  C   UNL     1      45.174   3.114  11.244  0.00  0.00    +0.000 A 
ATOM      6  C   UNL     1      44.493   3.557  10.098  0.00  0.00    +0.000 A 
ATOM      7  C   UNL     1      43.956   4.852  10.066  0.00  0.00    +0.000 A 
ATOM      8  C   UNL     1      44.188   5.770  11.108  0.00  0.00    +0.000 A 
ATOM      9  C   UNL     1      44.985   5.334  12.174  0.00  0.00    +0.000 A 
ENDROOT
BRANCH   6  10
ATOM     10  C   UNL     1      44.465   2.622   8.936  0.00  0.00    +0.000 C 
ATOM     11  N   UNL     1      44.460   3.125   7.666  0.00  0.00    +0.000 N 
ATOM     12  O   UNL     1      44.499   1.404   9.093  0.00  0.00    +0.000 OA
ATOM     13  H   UNL     1      44.462   4.101   7.424  0.00  0.00    +0.000 HD
ATOM     14  H   UNL     1      44.524   2.446   6.921  0.00  0.00    +0.000 HD
ENDBRANCH   6  10
BRANCH   1  15
ATOM     15  C   UNL     1      45.966   7.391  13.254  0.00  0.00    +0.000 C 
BRANCH  15  19
ATOM     16  C   UNL     1      50.091   8.391  12.317  0.00  0.00    +0.000 A 
ATOM     17  C   UNL     1      49.301   7.692  11.398  0.00  0.00    +0.000 A 
ATOM     18  C   UNL     1      47.974   7.363  11.701  0.00  0.00    +0.000 A 
ATOM     19  C   UNL     1      47.409   7.700  12.941  0.00  0.00    +0.000 A 
ATOM     20  C   UNL     1      48.205   8.376  13.871  0.00  0.00    +0.000 A 
ATOM     21  C   UNL     1      49.526   8.717  13.560  0.00  0.00    +0.000 A 
BRANCH  16  22
ATOM     22  C   UNL     1      51.548   8.735  12.073  0.00  0.00    +0.000 C 
BRANCH  22  23
ATOM     23  C   UNL     1      52.192   8.168  10.798  0.00  0.00    +0.000 C 
BRANCH  23  24
ATOM     24  N   UNL     1      53.120   7.081  11.119  0.00  0.00    +0.000 NA
ATOM     25  H   UNL     1      52.596   6.217  11.257  0.00  0.00    +0.000 HD
ATOM     26  H   UNL     1      53.580   7.276  12.009  0.00  0.00    +0.000 HD
ENDBRANCH  23  24
ENDBRANCH  22  23
ENDBRANCH  16  22
ENDBRANCH  15  19
ENDBRANCH   1  15
TORSDOF 6
ENDMDL
MODEL 9
REMARK VINA RESULT:    -5.500      3.318      7.286
REMARK INTER + INTRA:          -7.992
REMARK INTER:                  -7.377
REMARK INTRA:                  -0.615
REMARK UNBOUND:                -0.724
REMARK  Name = 
REMARK  6 active torsions:
REMARK  status: ('A' for Active; 'I' for Inactive)
REMARK    1  A    between atoms: N_1  and  C_2
REMARK    2  A    between atoms: C_2  and  C_3
REMARK    3  A    between atoms: C_3  and  C_4
REMARK    4  A    between atoms: C_7  and  C_8
REMARK    5  A    between atoms: C_8  and  N_9
REMARK    6  A    between atoms: C_14  and  C_15
REMARK                            x       y       z     vdW  Elec       q    Type
REMARK                         _______ _______ _______ _____ _____    ______ ____
ROOT
ATOM      1  N   UNL     1      47.252   6.175  13.463  0.00  0.00    +0.000 N 
ATOM      2  C   UNL     1      47.612   5.754  14.716  0.00  0.00    +0.000 A 
ATOM      3  N   UNL     1      48.764   6.259  15.092  0.00  0.00    +0.000 NA
ATOM      4  C   UNL     1      49.180   7.026  14.034  0.00  0.00    +0.000 A 
ATOM      5  C   UNL     1      50.268   7.904  13.955  0.00  0.00    +0.000 A 
ATOM      6  C   UNL     1      50.469   8.643  12.777  0.00  0.00    +0.000 A 
ATOM      7  C   UNL     1      49.660   8.400  11.657  0.00  0.00    +0.000 A 
ATOM      8  C   UNL     1      48.564   7.519  11.719  0.00  0.00    +0.000 A 
ATOM      9  C   UNL     1      48.314   6.899  12.950  0.00  0.00    +0.000 A 
ENDROOT
BRANCH   6  10
ATOM     10  C   UNL     1      51.500   9.720  12.834  0.00  0.00    +0.000 C 
ATOM     11  N   UNL     1      51.171  10.940  13.351  0.00  0.00    +0.000 N 
ATOM     12  O   UNL     1      52.657   9.518  12.474  0.00  0.00    +0.000 OA
ATOM     13  H   UNL     1      50.266  11.202  13.701  0.00  0.00    +0.000 HD
ATOM     14  H   UNL     1      51.929  11.602  13.441  0.00  0.00    +0.000 HD
ENDBRANCH   6  10
BRANCH   1  15
ATOM     15  C   UNL     1      45.877   6.255  12.973  0.00  0.00    +0.000 C 
BRANCH  15  19
ATOM     16  C   UNL     1      44.978   3.459   9.768  0.00  0.00    +0.000 A 
ATOM     17  C   UNL     1      45.318   4.785   9.482  0.00  0.00    +0.000 A 
ATOM     18  C   UNL     1      45.601   5.689  10.513  0.00  0.00    +0.000 A 
ATOM     19  C   UNL     1      45.526   5.298  11.860  0.00  0.00    +0.000 A 
ATOM     20  C   UNL     1      45.162   3.980  12.149  0.00  0.00    +0.000 A 
ATOM     21  C   UNL     1      44.894   3.075  11.116  0.00  0.00    +0.000 A 
BRANCH  16  22
ATOM     22  C   UNL     1      44.612   2.443   8.702  0.00  0.00    +0.000 C 
BRANCH  22  23
ATOM     23  C   UNL     1      45.653   1.357   8.390  0.00  0.00    +0.000 C 
BRANCH  23  24
ATOM     24  N   UNL     1      46.774   1.911   7.627  0.00  0.00    +0.000 NA
ATOM     25  H   UNL     1      47.076   2.786   8.056  0.00  0.00    +0.000 HD
ATOM     26  H   UNL     1      46.462   2.152   6.686  0.00  0.00    +0.000 HD
ENDBRANCH  23  24
ENDBRANCH  22  23
ENDBRANCH  16  22
ENDBRANCH  15  19
ENDBRANCH   1  15
TORSDOF 6
ENDMDL
