MODEL 1
REMARK VINA RESULT:    -8.527      0.000      0.000
REMARK INTER + INTRA:         -11.205
REMARK INTER:                 -10.770
REMARK INTRA:                  -0.435
REMARK UNBOUND:                -0.435
REMARK  Name = 
REMARK  5 active torsions:
REMARK  status: ('A' for Active; 'I' for Inactive)
REMARK    1  A    between atoms: N_1  and  C_2
REMARK    2  A    between atoms: C_2  and  C_3
REMARK    3  A    between atoms: C_6  and  C_7
REMARK    4  A    between atoms: C_7  and  N_8
REMARK    5  A    between atoms: C_13  and  C_14
REMARK                            x       y       z     vdW  Elec       q    Type
REMARK                         _______ _______ _______ _____ _____    ______ ____
ROOT
ATOM      1  N   UNL     1      44.872   3.649  11.466  0.00  0.00    +0.000 N 
ATOM      2  N   UNL     1      45.400   2.896  12.455  0.00  0.00    +0.000 NA
ATOM      3  N   UNL     1      46.017   3.714  13.296  0.00  0.00    +0.000 NA
ATOM      4  C   UNL     1      45.845   4.997  12.848  0.00  0.00    +0.000 A 
ATOM      5  C   UNL     1      46.300   6.212  13.383  0.00  0.00    +0.000 A 
ATOM      6  C   UNL     1      45.969   7.401  12.717  0.00  0.00    +0.000 A 
ATOM      7  C   UNL     1      45.188   7.358  11.547  0.00  0.00    +0.000 A 
ATOM      8  C   UNL     1      44.733   6.151  10.999  0.00  0.00    +0.000 A 
ATOM      9  C   UNL     1      45.091   4.987  11.680  0.00  0.00    +0.000 A 
ENDROOT
BRANCH   6  10
ATOM     10  C   UNL     1      46.419   8.742  13.192  0.00  0.00    +0.000 C 
ATOM     11  N   UNL     1      46.994   8.848  14.427  0.00  0.00    +0.000 N 
ATOM     12  O   UNL     1      46.285   9.742  12.495  0.00  0.00    +0.000 OA
ATOM     13  H   UNL     1      47.154   8.088  15.069  0.00  0.00    +0.000 HD
ATOM     14  H   UNL     1      47.298   9.772  14.705  0.00  0.00    +0.000 HD
ENDBRANCH   6  10
BRANCH   1  15
ATOM     15  C   UNL     1      44.150   3.013  10.381  0.00  0.00    +0.000 C 
BRANCH  15  19
ATOM     16  C   UNL     1      46.561   2.726   6.872  0.00  0.00    +0.000 A 
ATOM     17  C   UNL     1      46.447   1.609   7.694  0.00  0.00    +0.000 A 
ATOM     18  C   UNL     1      45.654   1.686   8.838  0.00  0.00    +0.000 A 
ATOM     19  C   UNL     1      44.989   2.877   9.141  0.00  0.00    +0.000 A 
ATOM     20  C   UNL     1      45.169   3.945   8.266  0.00  0.00    +0.000 A 
ATOM     21  N   UNL     1      45.929   3.893   7.148  0.00  0.00    +0.000 NA
BRANCH  16  22
ATOM     22  C   UNL     1      47.384   2.663   5.604  0.00  0.00    +0.000 C 
BRANCH  22  23
ATOM     23  N   UNL     1      48.561   1.797   5.743  0.00  0.00    +0.000 NA
ATOM     24  H   UNL     1      48.876   1.835   6.710  0.00  0.00    +0.000 HD
ATOM     25  H   UNL     1      49.314   2.213   5.191  0.00  0.00    +0.000 HD
ENDBRANCH  22  23
ENDBRANCH  16  22
ENDBRANCH  15  19
ENDBRANCH   1  15
TORSDOF 5
ENDMDL
MODEL 2
REMARK VINA RESULT:    -8.340      1.688      1.929
REMARK INTER + INTRA:         -10.969
REMARK INTER:                 -10.381
REMARK INTRA:                  -0.588
REMARK UNBOUND:                -0.435
REMARK  Name = 
REMARK  5 active torsions:
REMARK  status: ('A' for Active; 'I' for Inactive)
REMARK    1  A    between atoms: N_1  and  C_2
REMARK    2  A    between atoms: C_2  and  C_3
REMARK    3  A    between atoms: C_6  and  C_7
REMARK    4  A    between atoms: C_7  and  N_8
REMARK    5  A    between atoms: C_13  and  C_14
REMARK                            x       y       z     vdW  Elec       q    Type
REMARK                         _______ _______ _______ _____ _____    ______ ____
ROOT
ATOM      1  N   UNL     1      44.456   4.334  11.270  0.00  0.00    +0.000 N 
ATOM      2  N   UNL     1      43.880   3.590  12.239  0.00  0.00    +0.000 NA
ATOM      3  N   UNL     1      44.505   3.860  13.377  0.00  0.00    +0.000 NA
ATOM      4  C   UNL     1      45.461   4.808  13.124  0.00  0.00    +0.000 A 
ATOM      5  C   UNL     1      46.379   5.421  13.990  0.00  0.00    +0.000 A 
ATOM      6  C   UNL     1      47.256   6.381  13.464  0.00  0.00    +0.000 A 
ATOM      7  C   UNL     1      47.194   6.717  12.098  0.00  0.00    +0.000 A 
ATOM      8  C   UNL     1      46.287   6.107  11.221  0.00  0.00    +0.000 A 
ATOM      9  C   UNL     1      45.437   5.149  11.776  0.00  0.00    +0.000 A 
ENDROOT
BRANCH   6  10
ATOM     10  C   UNL     1      48.281   7.077  14.295  0.00  0.00    +0.000 C 
ATOM     11  N   UNL     1      47.921   8.197  14.990  0.00  0.00    +0.000 N 
ATOM     12  O   UNL     1      49.433   6.660  14.366  0.00  0.00    +0.000 OA
ATOM     13  H   UNL     1      47.003   8.612  15.003  0.00  0.00    +0.000 HD
ATOM     14  H   UNL     1      48.642   8.630  15.552  0.00  0.00    +0.000 HD
ENDBRANCH   6  10
BRANCH   1  15
ATOM     15  C   UNL     1      43.986   4.226   9.902  0.00  0.00    +0.000 C 
BRANCH  15  19
ATOM     16  C   UNL     1      46.637   1.977   7.429  0.00  0.00    +0.000 A 
ATOM     17  C   UNL     1      46.485   3.337   7.176  0.00  0.00    +0.000 A 
ATOM     18  C   UNL     1      45.629   4.085   7.984  0.00  0.00    +0.000 A 
ATOM     19  C   UNL     1      44.942   3.463   9.029  0.00  0.00    +0.000 A 
ATOM     20  C   UNL     1      45.150   2.097   9.200  0.00  0.00    +0.000 A 
ATOM     21  N   UNL     1      45.977   1.351   8.433  0.00  0.00    +0.000 NA
BRANCH  16  22
ATOM     22  C   UNL     1      47.586   1.144   6.594  0.00  0.00    +0.000 C 
BRANCH  22  23
ATOM     23  N   UNL     1      48.507   1.970   5.803  0.00  0.00    +0.000 NA
ATOM     24  H   UNL     1      49.118   2.473   6.443  0.00  0.00    +0.000 HD
ATOM     25  H   UNL     1      47.949   2.685   5.333  0.00  0.00    +0.000 HD
ENDBRANCH  22  23
ENDBRANCH  16  22
ENDBRANCH  15  19
ENDBRANCH   1  15
TORSDOF 5
ENDMDL
MODEL 3
REMARK VINA RESULT:    -8.322      2.738      6.844
REMARK INTER + INTRA:         -10.947
REMARK INTER:                 -10.476
REMARK INTRA:                  -0.471
REMARK UNBOUND:                -0.435
REMARK  Name = 
REMARK  5 active torsions:
REMARK  status: ('A' for Active; 'I' for Inactive)
REMARK    1  A    between atoms: N_1  and  C_2
REMARK    2  A    between atoms: C_2  and  C_3
REMARK    3  A    between atoms: C_6  and  C_7
REMARK    4  A    between atoms: C_7  and  N_8
REMARK    5  A    between atoms: C_13  and  C_14
REMARK                            x       y       z     vdW  Elec       q    Type
REMARK                         _______ _______ _______ _____ _____    ______ ____
ROOT
ATOM      1  N   UNL     1      43.841   4.274  10.472  0.00  0.00    +0.000 N 
ATOM      2  N   UNL     1      43.294   3.181  11.046  0.00  0.00    +0.000 NA
ATOM      3  N   UNL     1      43.819   2.114  10.458  0.00  0.00    +0.000 NA
ATOM      4  C   UNL     1      44.729   2.543   9.529  0.00  0.00    +0.000 A 
ATOM      5  C   UNL     1      45.544   1.810   8.654  0.00  0.00    +0.000 A 
ATOM      6  C   UNL     1      46.406   2.511   7.797  0.00  0.00    +0.000 A 
ATOM      7  C   UNL     1      46.447   3.917   7.837  0.00  0.00    +0.000 A 
ATOM      8  C   UNL     1      45.634   4.662   8.702  0.00  0.00    +0.000 A 
ATOM      9  C   UNL     1      44.780   3.933   9.532  0.00  0.00    +0.000 A 
ENDROOT
BRANCH   6  10
ATOM     10  C   UNL     1      47.298   1.826   6.816  0.00  0.00    +0.000 C 
ATOM     11  N   UNL     1      48.319   2.533   6.247  0.00  0.00    +0.000 N 
ATOM     12  O   UNL     1      47.132   0.648   6.519  0.00  0.00    +0.000 OA
ATOM     13  H   UNL     1      48.542   3.498   6.429  0.00  0.00    +0.000 HD
ATOM     14  H   UNL     1      48.909   2.029   5.597  0.00  0.00    +0.000 HD
ENDBRANCH   6  10
BRANCH   1  15
ATOM     15  C   UNL     1      43.433   5.597  10.905  0.00  0.00    +0.000 C 
BRANCH  15  19
ATOM     16  C   UNL     1      46.603   7.571  12.967  0.00  0.00    +0.000 A 
ATOM     17  C   UNL     1      45.833   8.307  12.072  0.00  0.00    +0.000 A 
ATOM     18  C   UNL     1      44.787   7.676  11.400  0.00  0.00    +0.000 A 
ATOM     19  C   UNL     1      44.529   6.322  11.633  0.00  0.00    +0.000 A 
ATOM     20  C   UNL     1      45.359   5.666  12.537  0.00  0.00    +0.000 A 
ATOM     21  N   UNL     1      46.376   6.257  13.205  0.00  0.00    +0.000 NA
BRANCH  16  22
ATOM     22  C   UNL     1      47.722   8.235  13.741  0.00  0.00    +0.000 C 
BRANCH  22  23
ATOM     23  N   UNL     1      47.244   8.892  14.963  0.00  0.00    +0.000 NA
ATOM     24  H   UNL     1      46.286   8.593  15.135  0.00  0.00    +0.000 HD
ATOM     25  H   UNL     1      47.191   9.894  14.771  0.00  0.00    +0.000 HD
ENDBRANCH  22  23
ENDBRANCH  16  22
ENDBRANCH  15  19
ENDBRANCH   1  15
TORSDOF 5
ENDMDL
MODEL 4
REMARK VINA RESULT:    -7.782      2.451      3.006
REMARK INTER + INTRA:         -10.265
REMARK INTER:                  -9.723
REMARK INTRA:                  -0.541
REMARK UNBOUND:                -0.435
REMARK  Name = 
REMARK  5 active torsions:
REMARK  status: ('A' for Active; 'I' for Inactive)
REMARK    1  A    between atoms: N_1  and  C_2
REMARK    2  A    between atoms: C_2  and  C_3
REMARK    3  A    between atoms: C_6  and  C_7
REMARK    4  A    between atoms: C_7  and  N_8
REMARK    5  A    between atoms: C_13  and  C_14
REMARK                            x       y       z     vdW  Elec       q    Type
REMARK                         _______ _______ _______ _____ _____    ______ ____
ROOT
ATOM      1  N   UNL     1      44.566   5.195  11.055  0.00  0.00    +0.000 N 
ATOM      2  N   UNL     1      44.537   6.545  11.057  0.00  0.00    +0.000 NA
ATOM      3  N   UNL     1      45.212   6.959  12.121  0.00  0.00    +0.000 NA
ATOM      4  C   UNL     1      45.698   5.858  12.774  0.00  0.00    +0.000 A 
ATOM      5  C   UNL     1      46.469   5.765  13.942  0.00  0.00    +0.000 A 
ATOM      6  C   UNL     1      46.843   4.492  14.397  0.00  0.00    +0.000 A 
ATOM      7  C   UNL     1      46.455   3.346  13.678  0.00  0.00    +0.000 A 
ATOM      8  C   UNL     1      45.680   3.425  12.513  0.00  0.00    +0.000 A 
ATOM      9  C   UNL     1      45.315   4.706  12.096  0.00  0.00    +0.000 A 
ENDROOT
BRANCH   6  10
ATOM     10  C   UNL     1      47.645   4.283  15.637  0.00  0.00    +0.000 C 
ATOM     11  N   UNL     1      47.632   5.249  16.604  0.00  0.00    +0.000 N 
ATOM     12  O   UNL     1      48.308   3.265  15.803  0.00  0.00    +0.000 OA
ATOM     13  H   UNL     1      47.116   6.113  16.566  0.00  0.00    +0.000 HD
ATOM     14  H   UNL     1      48.177   5.063  17.435  0.00  0.00    +0.000 HD
ENDBRANCH   6  10
BRANCH   1  15
ATOM     15  C   UNL     1      43.883   4.460  10.009  0.00  0.00    +0.000 C 
BRANCH  15  19
ATOM     16  C   UNL     1      46.655   2.337   7.556  0.00  0.00    +0.000 A 
ATOM     17  C   UNL     1      45.822   1.610   8.401  0.00  0.00    +0.000 A 
ATOM     18  C   UNL     1      44.905   2.291   9.200  0.00  0.00    +0.000 A 
ATOM     19  C   UNL     1      44.835   3.685   9.141  0.00  0.00    +0.000 A 
ATOM     20  C   UNL     1      45.714   4.328   8.274  0.00  0.00    +0.000 A 
ATOM     21  N   UNL     1      46.609   3.690   7.486  0.00  0.00    +0.000 NA
BRANCH  16  22
ATOM     22  C   UNL     1      47.636   1.626   6.649  0.00  0.00    +0.000 C 
BRANCH  22  23
ATOM     23  N   UNL     1      48.719   2.507   6.196  0.00  0.00    +0.000 NA
ATOM     24  H   UNL     1      49.547   2.315   6.757  0.00  0.00    +0.000 HD
ATOM     25  H   UNL     1      48.448   3.466   6.423  0.00  0.00    +0.000 HD
ENDBRANCH  22  23
ENDBRANCH  16  22
ENDBRANCH  15  19
ENDBRANCH   1  15
TORSDOF 5
ENDMDL
MODEL 5
REMARK VINA RESULT:    -6.919      1.585      2.047
REMARK INTER + INTRA:          -9.174
REMARK INTER:                  -8.819
REMARK INTRA:                  -0.355
REMARK UNBOUND:                -0.435
REMARK  Name = 
REMARK  5 active torsions:
REMARK  status: ('A' for Active; 'I' for Inactive)
REMARK    1  A    between atoms: N_1  and  C_2
REMARK    2  A    between atoms: C_2  and  C_3
REMARK    3  A    between atoms: C_6  and  C_7
REMARK    4  A    between atoms: C_7  and  N_8
REMARK    5  A    between atoms: C_13  and  C_14
REMARK                            x       y       z     vdW  Elec       q    Type
REMARK                         _______ _______ _______ _____ _____    ______ ____
ROOT
ATOM      1  N   UNL     1      43.920   4.879  10.984  0.00  0.00    +0.000 N 
ATOM      2  N   UNL     1      42.984   5.822  10.744  0.00  0.00    +0.000 NA
ATOM      3  N   UNL     1      43.362   6.930  11.367  0.00  0.00    +0.000 NA
ATOM      4  C   UNL     1      44.565   6.688  11.976  0.00  0.00    +0.000 A 
ATOM      5  C   UNL     1      45.373   7.533  12.752  0.00  0.00    +0.000 A 
ATOM      6  C   UNL     1      46.580   7.025  13.256  0.00  0.00    +0.000 A 
ATOM      7  C   UNL     1      46.960   5.700  12.971  0.00  0.00    +0.000 A 
ATOM      8  C   UNL     1      46.158   4.845  12.203  0.00  0.00    +0.000 A 
ATOM      9  C   UNL     1      44.960   5.378  11.727  0.00  0.00    +0.000 A 
ENDROOT
BRANCH   6  10
ATOM     10  C   UNL     1      47.500   7.834  14.107  0.00  0.00    +0.000 C 
ATOM     11  N   UNL     1      47.170   9.129  14.393  0.00  0.00    +0.000 N 
ATOM     12  O   UNL     1      48.539   7.358  14.553  0.00  0.00    +0.000 OA
ATOM     13  H   UNL     1      46.340   9.607  14.083  0.00  0.00    +0.000 HD
ATOM     14  H   UNL     1      47.814   9.638  14.985  0.00  0.00    +0.000 HD
ENDBRANCH   6  10
BRANCH   1  15
ATOM     15  C   UNL     1      43.756   3.545  10.439  0.00  0.00    +0.000 C 
BRANCH  15  19
ATOM     16  C   UNL     1      46.680   2.755   7.434  0.00  0.00    +0.000 A 
ATOM     17  C   UNL     1      46.183   1.687   8.175  0.00  0.00    +0.000 A 
ATOM     18  C   UNL     1      45.219   1.931   9.153  0.00  0.00    +0.000 A 
ATOM     19  C   UNL     1      44.770   3.235   9.373  0.00  0.00    +0.000 A 
ATOM     20  C   UNL     1      45.331   4.240   8.591  0.00  0.00    +0.000 A 
ATOM     21  N   UNL     1      46.263   4.029   7.634  0.00  0.00    +0.000 NA
BRANCH  16  22
ATOM     22  C   UNL     1      47.700   2.520   6.341  0.00  0.00    +0.000 C 
BRANCH  22  23
ATOM     23  N   UNL     1      47.236   2.995   5.032  0.00  0.00    +0.000 NA
ATOM     24  H   UNL     1      46.218   3.009   5.036  0.00  0.00    +0.000 HD
ATOM     25  H   UNL     1      47.499   2.292   4.340  0.00  0.00    +0.000 HD
ENDBRANCH  22  23
ENDBRANCH  16  22
ENDBRANCH  15  19
ENDBRANCH   1  15
TORSDOF 5
ENDMDL
MODEL 6
REMARK VINA RESULT:    -6.695      1.971      2.397
REMARK INTER + INTRA:          -8.892
REMARK INTER:                  -8.358
REMARK INTRA:                  -0.533
REMARK UNBOUND:                -0.435
REMARK  Name = 
REMARK  5 active torsions:
REMARK  status: ('A' for Active; 'I' for Inactive)
REMARK    1  A    between atoms: N_1  and  C_2
REMARK    2  A    between atoms: C_2  and  C_3
REMARK    3  A    between atoms: C_6  and  C_7
REMARK    4  A    between atoms: C_7  and  N_8
REMARK    5  A    between atoms: C_13  and  C_14
REMARK                            x       y       z     vdW  Elec       q    Type
REMARK                         _______ _______ _______ _____ _____    ______ ____
ROOT
ATOM      1  N   UNL     1      45.340   4.889  12.610  0.00  0.00    +0.000 N 
ATOM      2  N   UNL     1      45.415   3.856  13.476  0.00  0.00    +0.000 NA
ATOM      3  N   UNL     1      46.440   4.086  14.286  0.00  0.00    +0.000 NA
ATOM      4  C   UNL     1      46.991   5.292  13.945  0.00  0.00    +0.000 A 
ATOM      5  C   UNL     1      48.086   5.976  14.496  0.00  0.00    +0.000 A 
ATOM      6  C   UNL     1      48.440   7.219  13.952  0.00  0.00    +0.000 A 
ATOM      7  C   UNL     1      47.695   7.759  12.887  0.00  0.00    +0.000 A 
ATOM      8  C   UNL     1      46.605   7.084  12.323  0.00  0.00    +0.000 A 
ATOM      9  C   UNL     1      46.288   5.844  12.880  0.00  0.00    +0.000 A 
ENDROOT
BRANCH   6  10
ATOM     10  C   UNL     1      49.597   8.017  14.453  0.00  0.00    +0.000 C 
ATOM     11  N   UNL     1      50.209   8.898  13.606  0.00  0.00    +0.000 N 
ATOM     12  O   UNL     1      50.002   7.897  15.604  0.00  0.00    +0.000 OA
ATOM     13  H   UNL     1      49.948   9.073  12.650  0.00  0.00    +0.000 HD
ATOM     14  H   UNL     1      50.981   9.429  13.988  0.00  0.00    +0.000 HD
ENDBRANCH   6  10
BRANCH   1  15
ATOM     15  C   UNL     1      44.316   4.897  11.583  0.00  0.00    +0.000 C 
BRANCH  15  19
ATOM     16  C   UNL     1      45.786   3.308   7.907  0.00  0.00    +0.000 A 
ATOM     17  C   UNL     1      45.102   2.459   8.771  0.00  0.00    +0.000 A 
ATOM     18  C   UNL     1      44.607   2.968   9.971  0.00  0.00    +0.000 A 
ATOM     19  C   UNL     1      44.804   4.316  10.286  0.00  0.00    +0.000 A 
ATOM     20  C   UNL     1      45.508   5.085   9.365  0.00  0.00    +0.000 A 
ATOM     21  N   UNL     1      45.993   4.616   8.193  0.00  0.00    +0.000 NA
BRANCH  16  22
ATOM     22  C   UNL     1      46.303   2.794   6.580  0.00  0.00    +0.000 C 
BRANCH  22  23
ATOM     23  N   UNL     1      46.922   3.853   5.774  0.00  0.00    +0.000 NA
ATOM     24  H   UNL     1      47.033   3.511   4.821  0.00  0.00    +0.000 HD
ATOM     25  H   UNL     1      47.870   3.994   6.129  0.00  0.00    +0.000 HD
ENDBRANCH  22  23
ENDBRANCH  16  22
ENDBRANCH  15  19
ENDBRANCH   1  15
TORSDOF 5
ENDMDL
MODEL 7
REMARK VINA RESULT:    -6.144      3.896      6.639
REMARK INTER + INTRA:          -8.195
REMARK INTER:                  -7.664
REMARK INTRA:                  -0.531
REMARK UNBOUND:                -0.435
REMARK  Name = 
REMARK  5 active torsions:
REMARK  status: ('A' for Active; 'I' for Inactive)
REMARK    1  A    between atoms: N_1  and  C_2
REMARK    2  A    between atoms: C_2  and  C_3
REMARK    3  A    between atoms: C_6  and  C_7
REMARK    4  A    between atoms: C_7  and  N_8
REMARK    5  A    between atoms: C_13  and  C_14
REMARK                            x       y       z     vdW  Elec       q    Type
REMARK                         _______ _______ _______ _____ _____    ______ ____
ROOT
ATOM      1  N   UNL     1      47.456   6.366  13.768  0.00  0.00    +0.000 N 
ATOM      2  N   UNL     1      47.942   5.521  14.702  0.00  0.00    +0.000 NA
ATOM      3  N   UNL     1      47.381   4.337  14.503  0.00  0.00    +0.000 NA
ATOM      4  C   UNL     1      46.560   4.432  13.412  0.00  0.00    +0.000 A 
ATOM      5  C   UNL     1      45.750   3.462  12.801  0.00  0.00    +0.000 A 
ATOM      6  C   UNL     1      45.003   3.830  11.671  0.00  0.00    +0.000 A 
ATOM      7  C   UNL     1      45.086   5.142  11.170  0.00  0.00    +0.000 A 
ATOM      8  C   UNL     1      45.885   6.122  11.775  0.00  0.00    +0.000 A 
ATOM      9  C   UNL     1      46.605   5.725  12.903  0.00  0.00    +0.000 A 
ENDROOT
BRANCH   6  10
ATOM     10  C   UNL     1      44.098   2.880  10.960  0.00  0.00    +0.000 C 
ATOM     11  N   UNL     1      44.569   2.211   9.866  0.00  0.00    +0.000 N 
ATOM     12  O   UNL     1      42.949   2.690  11.342  0.00  0.00    +0.000 OA
ATOM     13  H   UNL     1      45.496   2.293   9.480  0.00  0.00    +0.000 HD
ATOM     14  H   UNL     1      43.929   1.567   9.421  0.00  0.00    +0.000 HD
ENDBRANCH   6  10
BRANCH   1  15
ATOM     15  C   UNL     1      47.882   7.752  13.756  0.00  0.00    +0.000 C 
BRANCH  15  19
ATOM     16  C   UNL     1      51.753   8.221  12.024  0.00  0.00    +0.000 A 
ATOM     17  C   UNL     1      50.701   7.823  11.204  0.00  0.00    +0.000 A 
ATOM     18  C   UNL     1      49.429   7.677  11.756  0.00  0.00    +0.000 A 
ATOM     19  C   UNL     1      49.230   7.930  13.116  0.00  0.00    +0.000 A 
ATOM     20  C   UNL     1      50.342   8.313  13.859  0.00  0.00    +0.000 A 
ATOM     21  N   UNL     1      51.585   8.467  13.346  0.00  0.00    +0.000 NA
BRANCH  16  22
ATOM     22  C   UNL     1      53.138   8.425  11.449  0.00  0.00    +0.000 C 
BRANCH  22  23
ATOM     23  N   UNL     1      53.758   7.164  11.024  0.00  0.00    +0.000 NA
ATOM     24  H   UNL     1      53.890   6.577  11.846  0.00  0.00    +0.000 HD
ATOM     25  H   UNL     1      54.698   7.383  10.688  0.00  0.00    +0.000 HD
ENDBRANCH  22  23
ENDBRANCH  16  22
ENDBRANCH  15  19
ENDBRANCH   1  15
TORSDOF 5
ENDMDL
MODEL 8
REMARK VINA RESULT:    -6.141      4.688      7.354
REMARK INTER + INTRA:          -8.191
REMARK INTER:                  -7.614
REMARK INTRA:                  -0.578
REMARK UNBOUND:                -0.435
REMARK  Name = 
REMARK  5 active torsions:
REMARK  status: ('A' for Active; 'I' for Inactive)
REMARK    1  A    between atoms: N_1  and  C_2
REMARK    2  A    between atoms: C_2  and  C_3
REMARK    3  A    between atoms: C_6  and  C_7
REMARK    4  A    between atoms: C_7  and  N_8
REMARK    5  A    between atoms: C_13  and  C_14
REMARK                            x       y       z     vdW  Elec       q    Type
REMARK                         _______ _______ _______ _____ _____    ______ ____
ROOT
ATOM      1  N   UNL     1      47.068   4.726  15.172  0.00  0.00    +0.000 N 
ATOM      2  N   UNL     1      46.246   4.096  14.306  0.00  0.00    +0.000 NA
ATOM      3  N   UNL     1      46.343   4.716  13.138  0.00  0.00    +0.000 NA
ATOM      4  C   UNL     1      47.261   5.725  13.265  0.00  0.00    +0.000 A 
ATOM      5  C   UNL     1      47.715   6.660  12.323  0.00  0.00    +0.000 A 
ATOM      6  C   UNL     1      48.682   7.595  12.721  0.00  0.00    +0.000 A 
ATOM      7  C   UNL     1      49.182   7.572  14.037  0.00  0.00    +0.000 A 
ATOM      8  C   UNL     1      48.732   6.648  14.989  0.00  0.00    +0.000 A 
ATOM      9  C   UNL     1      47.762   5.741  14.562  0.00  0.00    +0.000 A 
ENDROOT
BRANCH   6  10
ATOM     10  C   UNL     1      49.216   8.643  11.803  0.00  0.00    +0.000 C 
ATOM     11  N   UNL     1      50.501   8.534  11.351  0.00  0.00    +0.000 N 
ATOM     12  O   UNL     1      48.523   9.590  11.447  0.00  0.00    +0.000 OA
ATOM     13  H   UNL     1      51.144   7.793  11.578  0.00  0.00    +0.000 HD
ATOM     14  H   UNL     1      50.820   9.257  10.719  0.00  0.00    +0.000 HD
ENDBRANCH   6  10
BRANCH   1  15
ATOM     15  C   UNL     1      47.152   4.272  16.547  0.00  0.00    +0.000 C 
BRANCH  15  19
ATOM     16  C   UNL     1      50.806   2.191  17.266  0.00  0.00    +0.000 A 
ATOM     17  C   UNL     1      50.644   3.459  17.816  0.00  0.00    +0.000 A 
ATOM     18  C   UNL     1      49.450   4.145  17.597  0.00  0.00    +0.000 A 
ATOM     19  C   UNL     1      48.440   3.554  16.834  0.00  0.00    +0.000 A 
ATOM     20  C   UNL     1      48.696   2.287  16.316  0.00  0.00    +0.000 A 
ATOM     21  N   UNL     1      49.843   1.599  16.518  0.00  0.00    +0.000 NA
BRANCH  16  22
ATOM     22  C   UNL     1      52.075   1.404  17.515  0.00  0.00    +0.000 C 
BRANCH  22  23
ATOM     23  N   UNL     1      51.811   0.094  18.122  0.00  0.00    +0.000 NA
ATOM     24  H   UNL     1      52.539  -0.096  18.807  0.00  0.00    +0.000 HD
ATOM     25  H   UNL     1      51.928  -0.610  17.391  0.00  0.00    +0.000 HD
ENDBRANCH  22  23
ENDBRANCH  16  22
ENDBRANCH  15  19
ENDBRANCH   1  15
TORSDOF 5
ENDMDL
MODEL 9
REMARK VINA RESULT:    -5.802      2.255      3.180
REMARK INTER + INTRA:          -7.763
REMARK INTER:                  -7.424
REMARK INTRA:                  -0.339
REMARK UNBOUND:                -0.435
REMARK  Name = 
REMARK  5 active torsions:
REMARK  status: ('A' for Active; 'I' for Inactive)
REMARK    1  A    between atoms: N_1  and  C_2
REMARK    2  A    between atoms: C_2  and  C_3
REMARK    3  A    between atoms: C_6  and  C_7
REMARK    4  A    between atoms: C_7  and  N_8
REMARK    5  A    between atoms: C_13  and  C_14
REMARK                            x       y       z     vdW  Elec       q    Type
REMARK                         _______ _______ _______ _____ _____    ______ ____
ROOT
ATOM      1  N   UNL     1      45.048   6.692  11.884  0.00  0.00    +0.000 N 
ATOM      2  N   UNL     1      44.500   7.872  11.520  0.00  0.00    +0.000 NA
ATOM      3  N   UNL     1      45.348   8.831  11.866  0.00  0.00    +0.000 NA
ATOM      4  C   UNL     1      46.453   8.244  12.422  0.00  0.00    +0.000 A 
ATOM      5  C   UNL     1      47.621   8.822  12.941  0.00  0.00    +0.000 A 
ATOM      6  C   UNL     1      48.617   7.976  13.451  0.00  0.00    +0.000 A 
ATOM      7  C   UNL     1      48.435   6.580  13.424  0.00  0.00    +0.000 A 
ATOM      8  C   UNL     1      47.271   5.990  12.914  0.00  0.00    +0.000 A 
ATOM      9  C   UNL     1      46.296   6.862  12.426  0.00  0.00    +0.000 A 
ENDROOT
BRANCH   6  10
ATOM     10  C   UNL     1      49.886   8.491  14.042  0.00  0.00    +0.000 C 
ATOM     11  N   UNL     1      49.856   9.053  15.287  0.00  0.00    +0.000 N 
ATOM     12  O   UNL     1      50.948   8.414  13.434  0.00  0.00    +0.000 OA
ATOM     13  H   UNL     1      49.039   9.156  15.867  0.00  0.00    +0.000 HD
ATOM     14  H   UNL     1      50.740   9.378  15.657  0.00  0.00    +0.000 HD
ENDBRANCH   6  10
BRANCH   1  15
ATOM     15  C   UNL     1      44.325   5.457  11.646  0.00  0.00    +0.000 C 
BRANCH  15  19
ATOM     16  C   UNL     1      45.675   3.557   8.073  0.00  0.00    +0.000 A 
ATOM     17  C   UNL     1      44.860   2.837   8.941  0.00  0.00    +0.000 A 
ATOM     18  C   UNL     1      44.403   3.451  10.107  0.00  0.00    +0.000 A 
ATOM     19  C   UNL     1      44.769   4.770  10.385  0.00  0.00    +0.000 A 
ATOM     20  C   UNL     1      45.595   5.407   9.463  0.00  0.00    +0.000 A 
ATOM     21  N   UNL     1      46.046   4.835   8.323  0.00  0.00    +0.000 NA
BRANCH  16  22
ATOM     22  C   UNL     1      46.157   2.932   6.781  0.00  0.00    +0.000 C 
BRANCH  22  23
ATOM     23  N   UNL     1      46.944   3.867   5.967  0.00  0.00    +0.000 NA
ATOM     24  H   UNL     1      47.020   4.748   6.472  0.00  0.00    +0.000 HD
ATOM     25  H   UNL     1      46.400   4.076   5.128  0.00  0.00    +0.000 HD
ENDBRANCH  22  23
ENDBRANCH  16  22
ENDBRANCH  15  19
ENDBRANCH   1  15
TORSDOF 5
ENDMDL
