MODEL 1
REMARK VINA RESULT:    -7.248      0.000      0.000
REMARK INTER + INTRA:         -11.413
REMARK INTER:                 -10.214
REMARK INTRA:                  -1.199
REMARK UNBOUND:                -1.199
REMARK  Name = 
REMARK  8 active torsions:
REMARK  status: ('A' for Active; 'I' for Inactive)
REMARK    1  A    between atoms: C_1  and  O_2
REMARK    2  A    between atoms: O_2  and  C_3
REMARK    3  A    between atoms: C_8  and  C_9
REMARK    4  A    between atoms: N_11  and  C_12
REMARK    5  A    between atoms: C_12  and  C_13
REMARK    6  A    between atoms: C_16  and  C_17
REMARK    7  A    between atoms: C_17  and  N_18
REMARK    8  A    between atoms: C_19  and  C_21
REMARK                            x       y       z     vdW  Elec       q    Type
REMARK                         _______ _______ _______ _____ _____    ______ ____
ROOT
ATOM      1  C   UNL     1      50.165   7.432  15.348  0.00  0.00    +0.000 A 
ATOM      2  C   UNL     1      48.965   6.709  15.332  0.00  0.00    +0.000 A 
ATOM      3  C   UNL     1      48.076   6.821  14.253  0.00  0.00    +0.000 A 
ATOM      4  C   UNL     1      48.379   7.642  13.159  0.00  0.00    +0.000 A 
ATOM      5  C   UNL     1      49.574   8.375  13.185  0.00  0.00    +0.000 A 
ATOM      6  C   UNL     1      50.463   8.262  14.260  0.00  0.00    +0.000 A 
ENDROOT
BRANCH   1   7
ATOM      7  C   UNL     1      51.131   7.292  16.499  0.00  0.00    +0.000 C 
BRANCH   7  10
ATOM      8  C   UNL     1      51.137   5.132  17.681  0.00  0.00    +0.000 C 
ATOM      9  O   UNL     1      50.371   5.552  18.542  0.00  0.00    +0.000 OA
ATOM     10  N   UNL     1      51.580   5.931  16.652  0.00  0.00    +0.000 N 
ATOM     11  H   UNL     1      52.217   5.536  15.970  0.00  0.00    +0.000 HD
BRANCH   8  17
ATOM     12  C   UNL     1      50.837   2.600  17.248  0.00  0.00    +0.000 A 
ATOM     13  C   UNL     1      51.336   1.301  17.436  0.00  0.00    +0.000 A 
ATOM     14  C   UNL     1      52.585   1.088  18.024  0.00  0.00    +0.000 A 
ATOM     15  C   UNL     1      53.359   2.170  18.421  0.00  0.00    +0.000 A 
ATOM     16  C   UNL     1      52.865   3.466  18.267  0.00  0.00    +0.000 A 
ATOM     17  C   UNL     1      51.595   3.699  17.704  0.00  0.00    +0.000 A 
BRANCH  12  19
ATOM     18  C   UNL     1      48.461   2.837  17.438  0.00  0.00    +0.000 C 
ATOM     19  O   UNL     1      49.635   2.856  16.633  0.00  0.00    +0.000 OA
ENDBRANCH  12  19
ENDBRANCH   8  17
ENDBRANCH   7  10
ENDBRANCH   1   7
BRANCH   4  20
ATOM     20  C   UNL     1      47.448   7.755  11.976  0.00  0.00    +0.000 C 
BRANCH  20  21
ATOM     21  N   UNL     1      46.756   6.520  11.713  0.00  0.00    +0.000 N 
ATOM     22  C   UNL     1      45.385   6.452  11.689  0.00  0.00    +0.000 C 
ATOM     23  O   UNL     1      44.678   7.439  11.856  0.00  0.00    +0.000 OA
ATOM     24  H   UNL     1      47.289   5.664  11.844  0.00  0.00    +0.000 HD
BRANCH  22  25
ATOM     25  C   UNL     1      44.811   5.134  11.388  0.00  0.00    +0.000 A 
ATOM     26  C   UNL     1      44.041   4.474  12.336  0.00  0.00    +0.000 A 
ATOM     27  S   UNL     1      43.416   2.981  11.792  0.00  0.00    +0.000 S 
ATOM     28  C   UNL     1      44.198   3.137  10.289  0.00  0.00    +0.000 A 
ATOM     29  N   UNL     1      44.103   2.165   9.342  0.00  0.00    +0.000 NA
ATOM     30  C   UNL     1      44.769   2.407   8.261  0.00  0.00    +0.000 A 
ATOM     31  N   UNL     1      45.517   3.532   8.038  0.00  0.00    +0.000 N 
ATOM     32  C   UNL     1      45.615   4.552   8.950  0.00  0.00    +0.000 A 
ATOM     33  O   UNL     1      46.250   5.573   8.700  0.00  0.00    +0.000 OA
ATOM     34  C   UNL     1      44.901   4.325  10.192  0.00  0.00    +0.000 A 
ATOM     35  H   UNL     1      46.007   3.668   7.166  0.00  0.00    +0.000 HD
ENDBRANCH  22  25
ENDBRANCH  20  21
ENDBRANCH   4  20
TORSDOF 7
ENDMDL
MODEL 2
REMARK VINA RESULT:    -7.194      3.000      9.597
REMARK INTER + INTRA:         -11.337
REMARK INTER:                 -10.349
REMARK INTRA:                  -0.987
REMARK UNBOUND:                -1.199
REMARK  Name = 
REMARK  8 active torsions:
REMARK  status: ('A' for Active; 'I' for Inactive)
REMARK    1  A    between atoms: C_1  and  O_2
REMARK    2  A    between atoms: O_2  and  C_3
REMARK    3  A    between atoms: C_8  and  C_9
REMARK    4  A    between atoms: N_11  and  C_12
REMARK    5  A    between atoms: C_12  and  C_13
REMARK    6  A    between atoms: C_16  and  C_17
REMARK    7  A    between atoms: C_17  and  N_18
REMARK    8  A    between atoms: C_19  and  C_21
REMARK                            x       y       z     vdW  Elec       q    Type
REMARK                         _______ _______ _______ _____ _____    ______ ____
ROOT
ATOM      1  C   UNL     1      47.475   5.750  14.452  0.00  0.00    +0.000 A 
ATOM      2  C   UNL     1      46.878   4.506  14.695  0.00  0.00    +0.000 A 
ATOM      3  C   UNL     1      47.173   3.786  15.861  0.00  0.00    +0.000 A 
ATOM      4  C   UNL     1      48.055   4.304  16.818  0.00  0.00    +0.000 A 
ATOM      5  C   UNL     1      48.663   5.542  16.564  0.00  0.00    +0.000 A 
ATOM      6  C   UNL     1      48.367   6.263  15.402  0.00  0.00    +0.000 A 
ENDROOT
BRANCH   1   7
ATOM      7  C   UNL     1      47.139   6.534  13.208  0.00  0.00    +0.000 C 
BRANCH   7  10
ATOM      8  C   UNL     1      45.653   6.018  11.313  0.00  0.00    +0.000 C 
ATOM      9  O   UNL     1      45.022   7.058  11.469  0.00  0.00    +0.000 OA
ATOM     10  N   UNL     1      46.696   5.672  12.141  0.00  0.00    +0.000 N 
ATOM     11  H   UNL     1      47.181   4.798  11.972  0.00  0.00    +0.000 HD
BRANCH   8  17
ATOM     12  C   UNL     1      44.318   4.101  10.203  0.00  0.00    +0.000 A 
ATOM     13  C   UNL     1      44.193   3.223   9.113  0.00  0.00    +0.000 A 
ATOM     14  C   UNL     1      45.017   3.346   7.993  0.00  0.00    +0.000 A 
ATOM     15  C   UNL     1      45.969   4.356   7.937  0.00  0.00    +0.000 A 
ATOM     16  C   UNL     1      46.124   5.219   9.022  0.00  0.00    +0.000 A 
ATOM     17  C   UNL     1      45.323   5.091  10.175  0.00  0.00    +0.000 A 
BRANCH  12  19
ATOM     18  C   UNL     1      43.537   2.863  12.099  0.00  0.00    +0.000 C 
ATOM     19  O   UNL     1      43.499   4.044  11.304  0.00  0.00    +0.000 OA
ENDBRANCH  12  19
ENDBRANCH   8  17
ENDBRANCH   7  10
ENDBRANCH   1   7
BRANCH   4  20
ATOM     20  C   UNL     1      48.365   3.556  18.093  0.00  0.00    +0.000 C 
BRANCH  20  21
ATOM     21  N   UNL     1      49.765   3.240  18.208  0.00  0.00    +0.000 N 
ATOM     22  C   UNL     1      50.368   2.322  17.385  0.00  0.00    +0.000 C 
ATOM     23  O   UNL     1      49.760   1.746  16.490  0.00  0.00    +0.000 OA
ATOM     24  H   UNL     1      50.214   3.483  19.087  0.00  0.00    +0.000 HD
BRANCH  22  25
ATOM     25  C   UNL     1      51.806   2.113  17.598  0.00  0.00    +0.000 A 
ATOM     26  C   UNL     1      52.312   0.826  17.731  0.00  0.00    +0.000 A 
ATOM     27  S   UNL     1      54.008   0.775  17.920  0.00  0.00    +0.000 S 
ATOM     28  C   UNL     1      54.121   2.473  17.886  0.00  0.00    +0.000 A 
ATOM     29  N   UNL     1      55.318   3.102  18.033  0.00  0.00    +0.000 NA
ATOM     30  C   UNL     1      55.248   4.392  18.012  0.00  0.00    +0.000 A 
ATOM     31  N   UNL     1      54.093   5.110  17.854  0.00  0.00    +0.000 N 
ATOM     32  C   UNL     1      52.869   4.519  17.670  0.00  0.00    +0.000 A 
ATOM     33  O   UNL     1      51.859   5.190  17.476  0.00  0.00    +0.000 OA
ATOM     34  C   UNL     1      52.886   3.069  17.703  0.00  0.00    +0.000 A 
ATOM     35  H   UNL     1      54.105   6.120  17.835  0.00  0.00    +0.000 HD
ENDBRANCH  22  25
ENDBRANCH  20  21
ENDBRANCH   4  20
TORSDOF 7
ENDMDL
MODEL 3
REMARK VINA RESULT:    -6.964      3.186      8.783
REMARK INTER + INTRA:         -11.013
REMARK INTER:                 -10.936
REMARK INTRA:                  -0.077
REMARK UNBOUND:                -1.199
REMARK  Name = 
REMARK  8 active torsions:
REMARK  status: ('A' for Active; 'I' for Inactive)
REMARK    1  A    between atoms: C_1  and  O_2
REMARK    2  A    between atoms: O_2  and  C_3
REMARK    3  A    between atoms: C_8  and  C_9
REMARK    4  A    between atoms: N_11  and  C_12
REMARK    5  A    between atoms: C_12  and  C_13
REMARK    6  A    between atoms: C_16  and  C_17
REMARK    7  A    between atoms: C_17  and  N_18
REMARK    8  A    between atoms: C_19  and  C_21
REMARK                            x       y       z     vdW  Elec       q    Type
REMARK                         _______ _______ _______ _____ _____    ______ ____
ROOT
ATOM      1  C   UNL     1      44.639   5.882  11.183  0.00  0.00    +0.000 A 
ATOM      2  C   UNL     1      45.715   5.218  11.787  0.00  0.00    +0.000 A 
ATOM      3  C   UNL     1      46.625   5.916  12.594  0.00  0.00    +0.000 A 
ATOM      4  C   UNL     1      46.465   7.288  12.830  0.00  0.00    +0.000 A 
ATOM      5  C   UNL     1      45.395   7.951  12.212  0.00  0.00    +0.000 A 
ATOM      6  C   UNL     1      44.485   7.255  11.408  0.00  0.00    +0.000 A 
ENDROOT
BRANCH   1   7
ATOM      7  C   UNL     1      43.648   5.124  10.334  0.00  0.00    +0.000 C 
BRANCH   7  10
ATOM      8  C   UNL     1      45.365   4.442   8.705  0.00  0.00    +0.000 C 
ATOM      9  O   UNL     1      45.786   5.589   8.604  0.00  0.00    +0.000 OA
ATOM     10  N   UNL     1      44.299   4.130   9.518  0.00  0.00    +0.000 N 
ATOM     11  H   UNL     1      43.987   3.167   9.562  0.00  0.00    +0.000 HD
BRANCH   8  17
ATOM     12  C   UNL     1      45.992   1.959   8.342  0.00  0.00    +0.000 A 
ATOM     13  C   UNL     1      46.756   1.025   7.623  0.00  0.00    +0.000 A 
ATOM     14  C   UNL     1      47.514   1.416   6.517  0.00  0.00    +0.000 A 
ATOM     15  C   UNL     1      47.510   2.742   6.104  0.00  0.00    +0.000 A 
ATOM     16  C   UNL     1      46.777   3.686   6.824  0.00  0.00    +0.000 A 
ATOM     17  C   UNL     1      46.032   3.317   7.960  0.00  0.00    +0.000 A 
BRANCH  12  19
ATOM     18  C   UNL     1      43.906   1.080   9.125  0.00  0.00    +0.000 C 
ATOM     19  O   UNL     1      45.197   1.611   9.407  0.00  0.00    +0.000 OA
ENDBRANCH  12  19
ENDBRANCH   8  17
ENDBRANCH   7  10
ENDBRANCH   1   7
BRANCH   4  20
ATOM     20  C   UNL     1      47.418   8.052  13.717  0.00  0.00    +0.000 C 
BRANCH  20  21
ATOM     21  N   UNL     1      47.744   7.322  14.915  0.00  0.00    +0.000 N 
ATOM     22  C   UNL     1      49.012   6.854  15.153  0.00  0.00    +0.000 C 
ATOM     23  O   UNL     1      49.941   7.059  14.380  0.00  0.00    +0.000 OA
ATOM     24  H   UNL     1      46.964   6.910  15.421  0.00  0.00    +0.000 HD
BRANCH  22  25
ATOM     25  C   UNL     1      49.209   6.146  16.424  0.00  0.00    +0.000 A 
ATOM     26  C   UNL     1      50.167   6.587  17.328  0.00  0.00    +0.000 A 
ATOM     27  S   UNL     1      50.219   5.673  18.770  0.00  0.00    +0.000 S 
ATOM     28  C   UNL     1      49.003   4.620  18.213  0.00  0.00    +0.000 A 
ATOM     29  N   UNL     1      48.585   3.567  18.966  0.00  0.00    +0.000 NA
ATOM     30  C   UNL     1      47.675   2.840  18.407  0.00  0.00    +0.000 A 
ATOM     31  N   UNL     1      47.141   3.071  17.168  0.00  0.00    +0.000 N 
ATOM     32  C   UNL     1      47.508   4.138  16.388  0.00  0.00    +0.000 A 
ATOM     33  O   UNL     1      46.973   4.350  15.303  0.00  0.00    +0.000 OA
ATOM     34  C   UNL     1      48.542   4.979  16.959  0.00  0.00    +0.000 A 
ATOM     35  H   UNL     1      46.423   2.471  16.789  0.00  0.00    +0.000 HD
ENDBRANCH  22  25
ENDBRANCH  20  21
ENDBRANCH   4  20
TORSDOF 7
ENDMDL
MODEL 4
REMARK VINA RESULT:    -6.889      2.988      9.043
REMARK INTER + INTRA:         -10.907
REMARK INTER:                  -9.810
REMARK INTRA:                  -1.097
REMARK UNBOUND:                -1.199
REMARK  Name = 
REMARK  8 active torsions:
REMARK  status: ('A' for Active; 'I' for Inactive)
REMARK    1  A    between atoms: C_1  and  O_2
REMARK    2  A    between atoms: O_2  and  C_3
REMARK    3  A    between atoms: C_8  and  C_9
REMARK    4  A    between atoms: N_11  and  C_12
REMARK    5  A    between atoms: C_12  and  C_13
REMARK    6  A    between atoms: C_16  and  C_17
REMARK    7  A    between atoms: C_17  and  N_18
REMARK    8  A    between atoms: C_19  and  C_21
REMARK                            x       y       z     vdW  Elec       q    Type
REMARK                         _______ _______ _______ _____ _____    ______ ____
ROOT
ATOM      1  C   UNL     1      48.033   7.346  13.842  0.00  0.00    +0.000 A 
ATOM      2  C   UNL     1      47.960   6.064  14.405  0.00  0.00    +0.000 A 
ATOM      3  C   UNL     1      48.265   5.859  15.758  0.00  0.00    +0.000 A 
ATOM      4  C   UNL     1      48.629   6.932  16.580  0.00  0.00    +0.000 A 
ATOM      5  C   UNL     1      48.716   8.211  16.010  0.00  0.00    +0.000 A 
ATOM      6  C   UNL     1      48.410   8.418  14.660  0.00  0.00    +0.000 A 
ENDROOT
BRANCH   1   7
ATOM      7  C   UNL     1      47.683   7.569  12.391  0.00  0.00    +0.000 C 
BRANCH   7  10
ATOM      8  C   UNL     1      45.802   6.422  11.290  0.00  0.00    +0.000 C 
ATOM      9  O   UNL     1      45.103   7.428  11.340  0.00  0.00    +0.000 OA
ATOM     10  N   UNL     1      47.077   6.399  11.806  0.00  0.00    +0.000 N 
ATOM     11  H   UNL     1      47.612   5.540  11.743  0.00  0.00    +0.000 HD
BRANCH   8  17
ATOM     12  C   UNL     1      44.602   4.131  11.274  0.00  0.00    +0.000 A 
ATOM     13  C   UNL     1      44.287   2.966  10.555  0.00  0.00    +0.000 A 
ATOM     14  C   UNL     1      44.607   2.848   9.201  0.00  0.00    +0.000 A 
ATOM     15  C   UNL     1      45.235   3.896   8.541  0.00  0.00    +0.000 A 
ATOM     16  C   UNL     1      45.580   5.048   9.247  0.00  0.00    +0.000 A 
ATOM     17  C   UNL     1      45.294   5.174  10.621  0.00  0.00    +0.000 A 
BRANCH  12  19
ATOM     18  C   UNL     1      42.983   4.854  12.884  0.00  0.00    +0.000 C 
ATOM     19  O   UNL     1      44.266   4.307  12.594  0.00  0.00    +0.000 OA
ENDBRANCH  12  19
ENDBRANCH   8  17
ENDBRANCH   7  10
ENDBRANCH   1   7
BRANCH   4  20
ATOM     20  C   UNL     1      48.935   6.736  18.046  0.00  0.00    +0.000 C 
BRANCH  20  21
ATOM     21  N   UNL     1      49.911   5.698  18.260  0.00  0.00    +0.000 N 
ATOM     22  C   UNL     1      51.246   5.901  18.014  0.00  0.00    +0.000 C 
ATOM     23  O   UNL     1      51.685   6.980  17.632  0.00  0.00    +0.000 OA
ATOM     24  H   UNL     1      49.557   4.746  18.306  0.00  0.00    +0.000 HD
BRANCH  22  25
ATOM     25  C   UNL     1      52.133   4.765  18.296  0.00  0.00    +0.000 A 
ATOM     26  C   UNL     1      53.354   4.972  18.925  0.00  0.00    +0.000 A 
ATOM     27  S   UNL     1      54.225   3.533  19.217  0.00  0.00    +0.000 S 
ATOM     28  C   UNL     1      53.027   2.587  18.462  0.00  0.00    +0.000 A 
ATOM     29  N   UNL     1      53.168   1.240  18.339  0.00  0.00    +0.000 NA
ATOM     30  C   UNL     1      52.194   0.656  17.723  0.00  0.00    +0.000 A 
ATOM     31  N   UNL     1      51.091   1.294  17.223  0.00  0.00    +0.000 N 
ATOM     32  C   UNL     1      50.891   2.645  17.353  0.00  0.00    +0.000 A 
ATOM     33  O   UNL     1      49.866   3.181  16.942  0.00  0.00    +0.000 OA
ATOM     34  C   UNL     1      51.964   3.355  18.021  0.00  0.00    +0.000 A 
ATOM     35  H   UNL     1      50.357   0.779  16.760  0.00  0.00    +0.000 HD
ENDBRANCH  22  25
ENDBRANCH  20  21
ENDBRANCH   4  20
TORSDOF 7
ENDMDL
MODEL 5
REMARK VINA RESULT:    -6.776      3.163      9.308
REMARK INTER + INTRA:         -10.747
REMARK INTER:                  -9.925
REMARK INTRA:                  -0.822
REMARK UNBOUND:                -1.199
REMARK  Name = 
REMARK  8 active torsions:
REMARK  status: ('A' for Active; 'I' for Inactive)
REMARK    1  A    between atoms: C_1  and  O_2
REMARK    2  A    between atoms: O_2  and  C_3
REMARK    3  A    between atoms: C_8  and  C_9
REMARK    4  A    between atoms: N_11  and  C_12
REMARK    5  A    between atoms: C_12  and  C_13
REMARK    6  A    between atoms: C_16  and  C_17
REMARK    7  A    between atoms: C_17  and  N_18
REMARK    8  A    between atoms: C_19  and  C_21
REMARK                            x       y       z     vdW  Elec       q    Type
REMARK                         _______ _______ _______ _____ _____    ______ ____
ROOT
ATOM      1  C   UNL     1      45.610   5.131  11.878  0.00  0.00    +0.000 A 
ATOM      2  C   UNL     1      46.115   4.459  12.999  0.00  0.00    +0.000 A 
ATOM      3  C   UNL     1      46.891   5.136  13.950  0.00  0.00    +0.000 A 
ATOM      4  C   UNL     1      47.161   6.503  13.810  0.00  0.00    +0.000 A 
ATOM      5  C   UNL     1      46.667   7.169  12.679  0.00  0.00    +0.000 A 
ATOM      6  C   UNL     1      45.890   6.495  11.730  0.00  0.00    +0.000 A 
ENDROOT
BRANCH   1   7
ATOM      7  C   UNL     1      44.755   4.406  10.867  0.00  0.00    +0.000 C 
BRANCH   7  10
ATOM      8  C   UNL     1      45.330   2.884   9.018  0.00  0.00    +0.000 C 
ATOM      9  O   UNL     1      44.564   2.021   9.433  0.00  0.00    +0.000 OA
ATOM     10  N   UNL     1      45.501   4.079   9.679  0.00  0.00    +0.000 N 
ATOM     11  H   UNL     1      46.152   4.756   9.296  0.00  0.00    +0.000 HD
BRANCH   8  17
ATOM     12  C   UNL     1      46.708   1.464   7.352  0.00  0.00    +0.000 A 
ATOM     13  C   UNL     1      47.488   1.438   6.185  0.00  0.00    +0.000 A 
ATOM     14  C   UNL     1      47.623   2.573   5.384  0.00  0.00    +0.000 A 
ATOM     15  C   UNL     1      46.970   3.749   5.729  0.00  0.00    +0.000 A 
ATOM     16  C   UNL     1      46.214   3.800   6.900  0.00  0.00    +0.000 A 
ATOM     17  C   UNL     1      46.091   2.674   7.737  0.00  0.00    +0.000 A 
BRANCH  12  19
ATOM     18  C   UNL     1      46.533  -0.919   7.516  0.00  0.00    +0.000 C 
ATOM     19  O   UNL     1      46.511   0.359   8.144  0.00  0.00    +0.000 OA
ENDBRANCH  12  19
ENDBRANCH   8  17
ENDBRANCH   7  10
ENDBRANCH   1   7
BRANCH   4  20
ATOM     20  C   UNL     1      47.972   7.257  14.837  0.00  0.00    +0.000 C 
BRANCH  20  21
ATOM     21  N   UNL     1      49.017   6.443  15.403  0.00  0.00    +0.000 N 
ATOM     22  C   UNL     1      49.306   6.468  16.744  0.00  0.00    +0.000 C 
ATOM     23  O   UNL     1      48.672   7.155  17.537  0.00  0.00    +0.000 OA
ATOM     24  H   UNL     1      49.717   6.090  14.755  0.00  0.00    +0.000 HD
BRANCH  22  25
ATOM     25  C   UNL     1      50.381   5.573  17.189  0.00  0.00    +0.000 A 
ATOM     26  C   UNL     1      51.568   6.098  17.684  0.00  0.00    +0.000 A 
ATOM     27  S   UNL     1      52.680   4.910  18.199  0.00  0.00    +0.000 S 
ATOM     28  C   UNL     1      51.638   3.649  17.727  0.00  0.00    +0.000 A 
ATOM     29  N   UNL     1      52.003   2.346  17.865  0.00  0.00    +0.000 NA
ATOM     30  C   UNL     1      51.124   1.499  17.442  0.00  0.00    +0.000 A 
ATOM     31  N   UNL     1      49.914   1.834  16.897  0.00  0.00    +0.000 N 
ATOM     32  C   UNL     1      49.490   3.132  16.769  0.00  0.00    +0.000 A 
ATOM     33  O   UNL     1      48.377   3.400  16.326  0.00  0.00    +0.000 OA
ATOM     34  C   UNL     1      50.447   4.128  17.212  0.00  0.00    +0.000 A 
ATOM     35  H   UNL     1      49.264   1.123  16.594  0.00  0.00    +0.000 HD
ENDBRANCH  22  25
ENDBRANCH  20  21
ENDBRANCH   4  20
TORSDOF 7
ENDMDL
MODEL 6
REMARK VINA RESULT:    -6.518      5.216      8.739
REMARK INTER + INTRA:         -10.384
REMARK INTER:                  -9.541
REMARK INTRA:                  -0.843
REMARK UNBOUND:                -1.199
REMARK  Name = 
REMARK  8 active torsions:
REMARK  status: ('A' for Active; 'I' for Inactive)
REMARK    1  A    between atoms: C_1  and  O_2
REMARK    2  A    between atoms: O_2  and  C_3
REMARK    3  A    between atoms: C_8  and  C_9
REMARK    4  A    between atoms: N_11  and  C_12
REMARK    5  A    between atoms: C_12  and  C_13
REMARK    6  A    between atoms: C_16  and  C_17
REMARK    7  A    between atoms: C_17  and  N_18
REMARK    8  A    between atoms: C_19  and  C_21
REMARK                            x       y       z     vdW  Elec       q    Type
REMARK                         _______ _______ _______ _____ _____    ______ ____
ROOT
ATOM      1  C   UNL     1      44.552   4.821  11.920  0.00  0.00    +0.000 A 
ATOM      2  C   UNL     1      45.677   5.118  12.701  0.00  0.00    +0.000 A 
ATOM      3  C   UNL     1      46.026   6.447  12.978  0.00  0.00    +0.000 A 
ATOM      4  C   UNL     1      45.245   7.506  12.497  0.00  0.00    +0.000 A 
ATOM      5  C   UNL     1      44.128   7.206  11.704  0.00  0.00    +0.000 A 
ATOM      6  C   UNL     1      43.778   5.879  11.429  0.00  0.00    +0.000 A 
ENDROOT
BRANCH   1   7
ATOM      7  C   UNL     1      44.165   3.389  11.643  0.00  0.00    +0.000 C 
BRANCH   7  10
ATOM      8  C   UNL     1      44.742   2.931   9.292  0.00  0.00    +0.000 C 
ATOM      9  O   UNL     1      43.748   3.524   8.888  0.00  0.00    +0.000 OA
ATOM     10  N   UNL     1      45.009   2.797  10.636  0.00  0.00    +0.000 N 
ATOM     11  H   UNL     1      45.842   2.292  10.918  0.00  0.00    +0.000 HD
BRANCH   8  17
ATOM     12  C   UNL     1      46.427   3.089   7.337  0.00  0.00    +0.000 A 
ATOM     13  C   UNL     1      47.235   2.404   6.414  0.00  0.00    +0.000 A 
ATOM     14  C   UNL     1      47.392   1.019   6.484  0.00  0.00    +0.000 A 
ATOM     15  C   UNL     1      46.755   0.297   7.485  0.00  0.00    +0.000 A 
ATOM     16  C   UNL     1      45.928   0.958   8.393  0.00  0.00    +0.000 A 
ATOM     17  C   UNL     1      45.732   2.351   8.319  0.00  0.00    +0.000 A 
BRANCH  12  19
ATOM     18  C   UNL     1      46.707   5.171   8.487  0.00  0.00    +0.000 C 
ATOM     19  O   UNL     1      46.281   4.454   7.332  0.00  0.00    +0.000 OA
ENDBRANCH  12  19
ENDBRANCH   8  17
ENDBRANCH   7  10
ENDBRANCH   1   7
BRANCH   4  20
ATOM     20  C   UNL     1      45.589   8.944  12.808  0.00  0.00    +0.000 C 
BRANCH  20  21
ATOM     21  N   UNL     1      46.833   9.344  12.203  0.00  0.00    +0.000 N 
ATOM     22  C   UNL     1      47.973   9.523  12.947  0.00  0.00    +0.000 C 
ATOM     23  O   UNL     1      48.004   9.320  14.156  0.00  0.00    +0.000 OA
ATOM     24  H   UNL     1      46.772   9.775  11.284  0.00  0.00    +0.000 HD
BRANCH  22  25
ATOM     25  C   UNL     1      49.175   9.911  12.199  0.00  0.00    +0.000 A 
ATOM     26  C   UNL     1      49.442  11.252  11.953  0.00  0.00    +0.000 A 
ATOM     27  S   UNL     1      50.907  11.516  11.117  0.00  0.00    +0.000 S 
ATOM     28  C   UNL     1      51.209   9.844  11.004  0.00  0.00    +0.000 A 
ATOM     29  N   UNL     1      52.311   9.370  10.363  0.00  0.00    +0.000 NA
ATOM     30  C   UNL     1      52.398   8.081  10.333  0.00  0.00    +0.000 A 
ATOM     31  N   UNL     1      51.487   7.224  10.890  0.00  0.00    +0.000 N 
ATOM     32  C   UNL     1      50.380   7.657  11.574  0.00  0.00    +0.000 A 
ATOM     33  O   UNL     1      49.610   6.864  12.109  0.00  0.00    +0.000 OA
ATOM     34  C   UNL     1      50.223   9.097  11.622  0.00  0.00    +0.000 A 
ATOM     35  H   UNL     1      51.617   6.224  10.843  0.00  0.00    +0.000 HD
ENDBRANCH  22  25
ENDBRANCH  20  21
ENDBRANCH   4  20
TORSDOF 7
ENDMDL
MODEL 7
REMARK VINA RESULT:    -6.308      4.103      9.500
REMARK INTER + INTRA:         -10.087
REMARK INTER:                  -9.257
REMARK INTRA:                  -0.830
REMARK UNBOUND:                -1.199
REMARK  Name = 
REMARK  8 active torsions:
REMARK  status: ('A' for Active; 'I' for Inactive)
REMARK    1  A    between atoms: C_1  and  O_2
REMARK    2  A    between atoms: O_2  and  C_3
REMARK    3  A    between atoms: C_8  and  C_9
REMARK    4  A    between atoms: N_11  and  C_12
REMARK    5  A    between atoms: C_12  and  C_13
REMARK    6  A    between atoms: C_16  and  C_17
REMARK    7  A    between atoms: C_17  and  N_18
REMARK    8  A    between atoms: C_19  and  C_21
REMARK                            x       y       z     vdW  Elec       q    Type
REMARK                         _______ _______ _______ _____ _____    ______ ____
ROOT
ATOM      1  C   UNL     1      45.391   5.860  12.001  0.00  0.00    +0.000 A 
ATOM      2  C   UNL     1      46.660   5.544  12.505  0.00  0.00    +0.000 A 
ATOM      3  C   UNL     1      47.441   6.519  13.140  0.00  0.00    +0.000 A 
ATOM      4  C   UNL     1      46.962   7.826  13.302  0.00  0.00    +0.000 A 
ATOM      5  C   UNL     1      45.699   8.142  12.782  0.00  0.00    +0.000 A 
ATOM      6  C   UNL     1      44.916   7.169  12.151  0.00  0.00    +0.000 A 
ENDROOT
BRANCH   1   7
ATOM      7  C   UNL     1      44.542   4.803  11.338  0.00  0.00    +0.000 C 
BRANCH   7  10
ATOM      8  C   UNL     1      44.931   4.043   9.028  0.00  0.00    +0.000 C 
ATOM      9  O   UNL     1      43.931   4.626   8.622  0.00  0.00    +0.000 OA
ATOM     10  N   UNL     1      45.291   4.060  10.356  0.00  0.00    +0.000 N 
ATOM     11  H   UNL     1      46.124   3.557  10.641  0.00  0.00    +0.000 HD
BRANCH   8  17
ATOM     12  C   UNL     1      46.120   1.930   8.127  0.00  0.00    +0.000 A 
ATOM     13  C   UNL     1      47.067   1.394   7.239  0.00  0.00    +0.000 A 
ATOM     14  C   UNL     1      47.684   2.195   6.276  0.00  0.00    +0.000 A 
ATOM     15  C   UNL     1      47.356   3.541   6.178  0.00  0.00    +0.000 A 
ATOM     16  C   UNL     1      46.438   4.095   7.070  0.00  0.00    +0.000 A 
ATOM     17  C   UNL     1      45.828   3.310   8.068  0.00  0.00    +0.000 A 
BRANCH  12  19
ATOM     18  C   UNL     1      44.037   1.089   8.958  0.00  0.00    +0.000 C 
ATOM     19  O   UNL     1      45.455   1.169   9.058  0.00  0.00    +0.000 OA
ENDBRANCH  12  19
ENDBRANCH   8  17
ENDBRANCH   7  10
ENDBRANCH   1   7
BRANCH   4  20
ATOM     20  C   UNL     1      47.777   8.884  14.007  0.00  0.00    +0.000 C 
BRANCH  20  21
ATOM     21  N   UNL     1      47.538   8.893  15.427  0.00  0.00    +0.000 N 
ATOM     22  C   UNL     1      48.397   9.512  16.300  0.00  0.00    +0.000 C 
ATOM     23  O   UNL     1      49.394  10.116  15.919  0.00  0.00    +0.000 OA
ATOM     24  H   UNL     1      46.896   8.190  15.783  0.00  0.00    +0.000 HD
BRANCH  22  25
ATOM     25  C   UNL     1      48.020   9.464  17.718  0.00  0.00    +0.000 A 
ATOM     26  C   UNL     1      47.688  10.632  18.392  0.00  0.00    +0.000 A 
ATOM     27  S   UNL     1      47.227  10.377  20.016  0.00  0.00    +0.000 S 
ATOM     28  C   UNL     1      47.509   8.703  19.893  0.00  0.00    +0.000 A 
ATOM     29  N   UNL     1      47.335   7.879  20.962  0.00  0.00    +0.000 NA
ATOM     30  C   UNL     1      47.611   6.639  20.729  0.00  0.00    +0.000 A 
ATOM     31  N   UNL     1      48.040   6.145  19.526  0.00  0.00    +0.000 N 
ATOM     32  C   UNL     1      48.198   6.932  18.414  0.00  0.00    +0.000 A 
ATOM     33  O   UNL     1      48.532   6.451  17.334  0.00  0.00    +0.000 OA
ATOM     34  C   UNL     1      47.920   8.340  18.623  0.00  0.00    +0.000 A 
ATOM     35  H   UNL     1      48.229   5.161  19.404  0.00  0.00    +0.000 HD
ENDBRANCH  22  25
ENDBRANCH  20  21
ENDBRANCH   4  20
TORSDOF 7
ENDMDL
MODEL 8
REMARK VINA RESULT:    -6.023      4.226      9.120
REMARK INTER + INTRA:          -9.686
REMARK INTER:                  -8.652
REMARK INTRA:                  -1.034
REMARK UNBOUND:                -1.199
REMARK  Name = 
REMARK  8 active torsions:
REMARK  status: ('A' for Active; 'I' for Inactive)
REMARK    1  A    between atoms: C_1  and  O_2
REMARK    2  A    between atoms: O_2  and  C_3
REMARK    3  A    between atoms: C_8  and  C_9
REMARK    4  A    between atoms: N_11  and  C_12
REMARK    5  A    between atoms: C_12  and  C_13
REMARK    6  A    between atoms: C_16  and  C_17
REMARK    7  A    between atoms: C_17  and  N_18
REMARK    8  A    between atoms: C_19  and  C_21
REMARK                            x       y       z     vdW  Elec       q    Type
REMARK                         _______ _______ _______ _____ _____    ______ ____
ROOT
ATOM      1  C   UNL     1      45.514   4.596  12.006  0.00  0.00    +0.000 A 
ATOM      2  C   UNL     1      46.069   3.692  12.922  0.00  0.00    +0.000 A 
ATOM      3  C   UNL     1      46.857   4.147  13.989  0.00  0.00    +0.000 A 
ATOM      4  C   UNL     1      47.090   5.516  14.173  0.00  0.00    +0.000 A 
ATOM      5  C   UNL     1      46.545   6.416  13.246  0.00  0.00    +0.000 A 
ATOM      6  C   UNL     1      45.757   5.964  12.183  0.00  0.00    +0.000 A 
ENDROOT
BRANCH   1   7
ATOM      7  C   UNL     1      44.647   4.107  10.873  0.00  0.00    +0.000 C 
BRANCH   7  10
ATOM      8  C   UNL     1      45.303   2.674   8.979  0.00  0.00    +0.000 C 
ATOM      9  O   UNL     1      44.562   1.771   9.350  0.00  0.00    +0.000 OA
ATOM     10  N   UNL     1      45.422   3.850   9.685  0.00  0.00    +0.000 N 
ATOM     11  H   UNL     1      46.054   4.563   9.337  0.00  0.00    +0.000 HD
BRANCH   8  17
ATOM     12  C   UNL     1      46.824   1.394   7.325  0.00  0.00    +0.000 A 
ATOM     13  C   UNL     1      47.612   1.442   6.163  0.00  0.00    +0.000 A 
ATOM     14  C   UNL     1      47.642   2.585   5.361  0.00  0.00    +0.000 A 
ATOM     15  C   UNL     1      46.875   3.692   5.701  0.00  0.00    +0.000 A 
ATOM     16  C   UNL     1      46.109   3.670   6.866  0.00  0.00    +0.000 A 
ATOM     17  C   UNL     1      46.090   2.538   7.704  0.00  0.00    +0.000 A 
BRANCH  12  19
ATOM     18  C   UNL     1      46.542  -0.980   7.473  0.00  0.00    +0.000 C 
ATOM     19  O   UNL     1      46.730   0.276   8.117  0.00  0.00    +0.000 OA
ENDBRANCH  12  19
ENDBRANCH   8  17
ENDBRANCH   7  10
ENDBRANCH   1   7
BRANCH   4  20
ATOM     20  C   UNL     1      47.913   6.027  15.331  0.00  0.00    +0.000 C 
BRANCH  20  21
ATOM     21  N   UNL     1      49.131   6.658  14.892  0.00  0.00    +0.000 N 
ATOM     22  C   UNL     1      49.356   8.000  15.073  0.00  0.00    +0.000 C 
ATOM     23  O   UNL     1      48.552   8.726  15.647  0.00  0.00    +0.000 OA
ATOM     24  H   UNL     1      49.673   6.158  14.191  0.00  0.00    +0.000 HD
BRANCH  22  25
ATOM     25  C   UNL     1      50.649   8.506  14.597  0.00  0.00    +0.000 A 
ATOM     26  C   UNL     1      51.554   9.063  15.492  0.00  0.00    +0.000 A 
ATOM     27  S   UNL     1      53.021   9.550  14.767  0.00  0.00    +0.000 S 
ATOM     28  C   UNL     1      52.477   9.087  13.222  0.00  0.00    +0.000 A 
ATOM     29  N   UNL     1      53.254   9.267  12.120  0.00  0.00    +0.000 NA
ATOM     30  C   UNL     1      52.703   8.892  11.012  0.00  0.00    +0.000 A 
ATOM     31  N   UNL     1      51.450   8.351  10.907  0.00  0.00    +0.000 N 
ATOM     32  C   UNL     1      50.645   8.121  11.993  0.00  0.00    +0.000 A 
ATOM     33  O   UNL     1      49.548   7.584  11.873  0.00  0.00    +0.000 OA
ATOM     34  C   UNL     1      51.207   8.540  13.263  0.00  0.00    +0.000 A 
ATOM     35  H   UNL     1      51.079   8.067  10.012  0.00  0.00    +0.000 HD
ENDBRANCH  22  25
ENDBRANCH  20  21
ENDBRANCH   4  20
TORSDOF 7
ENDMDL
MODEL 9
REMARK VINA RESULT:    -5.888      4.384      6.766
REMARK INTER + INTRA:          -9.496
REMARK INTER:                  -8.809
REMARK INTRA:                  -0.687
REMARK UNBOUND:                -1.199
REMARK  Name = 
REMARK  8 active torsions:
REMARK  status: ('A' for Active; 'I' for Inactive)
REMARK    1  A    between atoms: C_1  and  O_2
REMARK    2  A    between atoms: O_2  and  C_3
REMARK    3  A    between atoms: C_8  and  C_9
REMARK    4  A    between atoms: N_11  and  C_12
REMARK    5  A    between atoms: C_12  and  C_13
REMARK    6  A    between atoms: C_16  and  C_17
REMARK    7  A    between atoms: C_17  and  N_18
REMARK    8  A    between atoms: C_19  and  C_21
REMARK                            x       y       z     vdW  Elec       q    Type
REMARK                         _______ _______ _______ _____ _____    ______ ____
ROOT
ATOM      1  C   UNL     1      50.499   8.600  12.320  0.00  0.00    +0.000 A 
ATOM      2  C   UNL     1      49.518   9.230  11.543  0.00  0.00    +0.000 A 
ATOM      3  C   UNL     1      48.156   9.036  11.814  0.00  0.00    +0.000 A 
ATOM      4  C   UNL     1      47.748   8.224  12.880  0.00  0.00    +0.000 A 
ATOM      5  C   UNL     1      48.733   7.583  13.646  0.00  0.00    +0.000 A 
ATOM      6  C   UNL     1      50.093   7.778  13.378  0.00  0.00    +0.000 A 
ENDROOT
BRANCH   1   7
ATOM      7  C   UNL     1      51.965   8.829  12.041  0.00  0.00    +0.000 C 
BRANCH   7  10
ATOM      8  C   UNL     1      52.984   8.071   9.931  0.00  0.00    +0.000 C 
ATOM      9  O   UNL     1      53.522   7.117  10.484  0.00  0.00    +0.000 OA
ATOM     10  N   UNL     1      52.219   8.976  10.630  0.00  0.00    +0.000 N 
ATOM     11  H   UNL     1      51.802   9.751  10.126  0.00  0.00    +0.000 HD
BRANCH   8  17
ATOM     12  C   UNL     1      53.495   7.258   7.529  0.00  0.00    +0.000 A 
ATOM     13  C   UNL     1      53.697   7.602   6.183  0.00  0.00    +0.000 A 
ATOM     14  C   UNL     1      53.487   8.908   5.734  0.00  0.00    +0.000 A 
ATOM     15  C   UNL     1      53.060   9.887   6.622  0.00  0.00    +0.000 A 
ATOM     16  C   UNL     1      52.882   9.568   7.968  0.00  0.00    +0.000 A 
ATOM     17  C   UNL     1      53.118   8.264   8.445  0.00  0.00    +0.000 A 
BRANCH  12  19
ATOM     18  C   UNL     1      53.340   4.904   7.120  0.00  0.00    +0.000 C 
ATOM     19  O   UNL     1      53.645   5.978   8.003  0.00  0.00    +0.000 OA
ENDBRANCH  12  19
ENDBRANCH   8  17
ENDBRANCH   7  10
ENDBRANCH   1   7
BRANCH   4  20
ATOM     20  C   UNL     1      46.288   8.023  13.205  0.00  0.00    +0.000 C 
BRANCH  20  21
ATOM     21  N   UNL     1      45.817   6.723  12.801  0.00  0.00    +0.000 N 
ATOM     22  C   UNL     1      44.923   6.567  11.772  0.00  0.00    +0.000 C 
ATOM     23  O   UNL     1      44.502   7.516  11.120  0.00  0.00    +0.000 OA
ATOM     24  H   UNL     1      45.927   5.971  13.477  0.00  0.00    +0.000 HD
BRANCH  22  25
ATOM     25  C   UNL     1      44.545   5.184  11.451  0.00  0.00    +0.000 A 
ATOM     26  C   UNL     1      43.774   4.447  12.341  0.00  0.00    +0.000 A 
ATOM     27  S   UNL     1      43.391   2.881  11.779  0.00  0.00    +0.000 S 
ATOM     28  C   UNL     1      44.289   3.112  10.351  0.00  0.00    +0.000 A 
ATOM     29  N   UNL     1      44.404   2.123   9.424  0.00  0.00    +0.000 NA
ATOM     30  C   UNL     1      45.136   2.430   8.405  0.00  0.00    +0.000 A 
ATOM     31  N   UNL     1      45.759   3.636   8.225  0.00  0.00    +0.000 N 
ATOM     32  C   UNL     1      45.644   4.673   9.115  0.00  0.00    +0.000 A 
ATOM     33  O   UNL     1      46.171   5.761   8.900  0.00  0.00    +0.000 OA
ATOM     34  C   UNL     1      44.848   4.376  10.291  0.00  0.00    +0.000 A 
ATOM     35  H   UNL     1      46.310   3.820   7.399  0.00  0.00    +0.000 HD
ENDBRANCH  22  25
ENDBRANCH  20  21
ENDBRANCH   4  20
TORSDOF 7
ENDMDL
