MODEL 1
REMARK VINA RESULT:    -8.161      0.000      0.000
REMARK INTER + INTRA:         -13.789
REMARK INTER:                 -12.454
REMARK INTRA:                  -1.335
REMARK UNBOUND:                -1.335
REMARK  Name = 
REMARK  10 active torsions:
REMARK  status: ('A' for Active; 'I' for Inactive)
REMARK    1  A    between atoms: C_1  and  C_2
REMARK    2  A    between atoms: C_2  and  O_3
REMARK    3  A    between atoms: O_3  and  C_4
REMARK    4  A    between atoms: C_4  and  C_6
REMARK    5  A    between atoms: C_9  and  C_10
REMARK    6  A    between atoms: C_10  and  O_11
REMARK    7  A    between atoms: O_11  and  C_12
REMARK    8  A    between atoms: C_15  and  C_16
REMARK    9  A    between atoms: C_16  and  N_17
REMARK   10  A    between atoms: C_18  and  C_20
REMARK                            x       y       z     vdW  Elec       q    Type
REMARK                         _______ _______ _______ _____ _____    ______ ____
ROOT
ATOM      1  C   UNL     1      44.635   5.275  12.684  0.00  0.00    +0.000 A 
ATOM      2  C   UNL     1      44.989   6.562  12.325  0.00  0.00    +0.000 A 
ATOM      3  C   UNL     1      46.221   7.051  12.749  0.00  0.00    +0.000 A 
ATOM      4  C   UNL     1      47.048   6.252  13.544  0.00  0.00    +0.000 A 
ATOM      5  C   UNL     1      46.586   4.979  13.865  0.00  0.00    +0.000 A 
ATOM      6  N   UNL     1      45.399   4.473  13.456  0.00  0.00    +0.000 NA
ENDROOT
BRANCH   1   7
ATOM      7  O   UNL     1      43.432   4.811  12.196  0.00  0.00    +0.000 OA
BRANCH   7   8
ATOM      8  C   UNL     1      43.288   5.084  10.803  0.00  0.00    +0.000 C 
BRANCH   8  12
ATOM      9  C   UNL     1      45.832   2.461   8.494  0.00  0.00    +0.000 A 
ATOM     10  C   UNL     1      44.926   1.926   9.415  0.00  0.00    +0.000 A 
ATOM     11  C   UNL     1      44.118   2.777  10.174  0.00  0.00    +0.000 A 
ATOM     12  C   UNL     1      44.208   4.170  10.026  0.00  0.00    +0.000 A 
ATOM     13  C   UNL     1      45.119   4.699   9.105  0.00  0.00    +0.000 A 
ATOM     14  C   UNL     1      45.925   3.852   8.344  0.00  0.00    +0.000 A 
BRANCH   9  15
ATOM     15  C   UNL     1      46.732   1.530   7.764  0.00  0.00    +0.000 C 
ATOM     16  O   UNL     1      46.599   0.317   7.754  0.00  0.00    +0.000 OA
BRANCH  15  17
ATOM     17  O   UNL     1      47.769   2.228   7.239  0.00  0.00    +0.000 OA
BRANCH  17  19
ATOM     18  C   UNL     1      46.935   2.901   5.109  0.00  0.00    +0.000 C 
ATOM     19  C   UNL     1      47.976   2.063   5.832  0.00  0.00    +0.000 C 
ENDBRANCH  17  19
ENDBRANCH  15  17
ENDBRANCH   9  15
ENDBRANCH   8  12
ENDBRANCH   7   8
ENDBRANCH   1   7
BRANCH   4  20
ATOM     20  C   UNL     1      48.400   6.718  13.993  0.00  0.00    +0.000 C 
BRANCH  20  21
ATOM     21  N   UNL     1      48.394   7.060  15.395  0.00  0.00    +0.000 N 
ATOM     22  C   UNL     1      49.504   6.864  16.178  0.00  0.00    +0.000 C 
ATOM     23  O   UNL     1      50.556   6.436  15.710  0.00  0.00    +0.000 OA
ATOM     24  H   UNL     1      47.489   7.185  15.841  0.00  0.00    +0.000 HD
BRANCH  22  25
ATOM     25  C   UNL     1      49.393   7.250  17.589  0.00  0.00    +0.000 A 
ATOM     26  C   UNL     1      50.197   8.268  18.086  0.00  0.00    +0.000 A 
ATOM     27  S   UNL     1      49.900   8.639  19.723  0.00  0.00    +0.000 S 
ATOM     28  C   UNL     1      48.725   7.414  19.845  0.00  0.00    +0.000 A 
ATOM     29  N   UNL     1      48.079   7.177  21.018  0.00  0.00    +0.000 NA
ATOM     30  C   UNL     1      47.235   6.199  20.977  0.00  0.00    +0.000 A 
ATOM     31  N   UNL     1      46.976   5.442  19.866  0.00  0.00    +0.000 N 
ATOM     32  C   UNL     1      47.582   5.662  18.652  0.00  0.00    +0.000 A 
ATOM     33  O   UNL     1      47.298   4.990  17.666  0.00  0.00    +0.000 OA
ATOM     34  C   UNL     1      48.549   6.743  18.647  0.00  0.00    +0.000 A 
ATOM     35  H   UNL     1      46.299   4.693  19.900  0.00  0.00    +0.000 HD
ENDBRANCH  22  25
ENDBRANCH  20  21
ENDBRANCH   4  20
TORSDOF 9
ENDMDL
MODEL 2
REMARK VINA RESULT:    -7.604      1.816      2.285
REMARK INTER + INTRA:         -12.940
REMARK INTER:                 -12.095
REMARK INTRA:                  -0.845
REMARK UNBOUND:                -1.335
REMARK  Name = 
REMARK  10 active torsions:
REMARK  status: ('A' for Active; 'I' for Inactive)
REMARK    1  A    between atoms: C_1  and  C_2
REMARK    2  A    between atoms: C_2  and  O_3
REMARK    3  A    between atoms: O_3  and  C_4
REMARK    4  A    between atoms: C_4  and  C_6
REMARK    5  A    between atoms: C_9  and  C_10
REMARK    6  A    between atoms: C_10  and  O_11
REMARK    7  A    between atoms: O_11  and  C_12
REMARK    8  A    between atoms: C_15  and  C_16
REMARK    9  A    between atoms: C_16  and  N_17
REMARK   10  A    between atoms: C_18  and  C_20
REMARK                            x       y       z     vdW  Elec       q    Type
REMARK                         _______ _______ _______ _____ _____    ______ ____
ROOT
ATOM      1  C   UNL     1      44.172   7.042  11.654  0.00  0.00    +0.000 A 
ATOM      2  C   UNL     1      44.555   8.321  11.296  0.00  0.00    +0.000 A 
ATOM      3  C   UNL     1      45.653   8.886  11.939  0.00  0.00    +0.000 A 
ATOM      4  C   UNL     1      46.313   8.170  12.942  0.00  0.00    +0.000 A 
ATOM      5  C   UNL     1      45.831   6.899  13.240  0.00  0.00    +0.000 A 
ATOM      6  N   UNL     1      44.776   6.319  12.621  0.00  0.00    +0.000 NA
ENDROOT
BRANCH   1   7
ATOM      7  O   UNL     1      43.116   6.499  10.952  0.00  0.00    +0.000 OA
BRANCH   7   8
ATOM      8  C   UNL     1      42.883   5.140  11.317  0.00  0.00    +0.000 C 
BRANCH   8  12
ATOM      9  C   UNL     1      45.491   2.618   8.966  0.00  0.00    +0.000 A 
ATOM     10  C   UNL     1      45.333   3.968   8.633  0.00  0.00    +0.000 A 
ATOM     11  C   UNL     1      44.475   4.775   9.383  0.00  0.00    +0.000 A 
ATOM     12  C   UNL     1      43.761   4.247  10.470  0.00  0.00    +0.000 A 
ATOM     13  C   UNL     1      43.922   2.896  10.797  0.00  0.00    +0.000 A 
ATOM     14  C   UNL     1      44.780   2.087  10.052  0.00  0.00    +0.000 A 
BRANCH   9  15
ATOM     15  C   UNL     1      46.348   1.770   8.097  0.00  0.00    +0.000 C 
ATOM     16  O   UNL     1      46.269   0.554   8.035  0.00  0.00    +0.000 OA
BRANCH  15  17
ATOM     17  O   UNL     1      47.291   2.544   7.505  0.00  0.00    +0.000 OA
BRANCH  17  19
ATOM     18  C   UNL     1      46.985   2.896   5.168  0.00  0.00    +0.000 C 
ATOM     19  C   UNL     1      47.737   2.100   6.219  0.00  0.00    +0.000 C 
ENDBRANCH  17  19
ENDBRANCH  15  17
ENDBRANCH   9  15
ENDBRANCH   8  12
ENDBRANCH   7   8
ENDBRANCH   1   7
BRANCH   4  20
ATOM     20  C   UNL     1      47.523   8.720  13.637  0.00  0.00    +0.000 C 
BRANCH  20  21
ATOM     21  N   UNL     1      47.810   7.982  14.843  0.00  0.00    +0.000 N 
ATOM     22  C   UNL     1      48.722   6.957  14.847  0.00  0.00    +0.000 C 
ATOM     23  O   UNL     1      49.360   6.657  13.841  0.00  0.00    +0.000 OA
ATOM     24  H   UNL     1      47.139   8.052  15.604  0.00  0.00    +0.000 HD
BRANCH  22  25
ATOM     25  C   UNL     1      48.943   6.275  16.128  0.00  0.00    +0.000 A 
ATOM     26  C   UNL     1      49.844   6.809  17.040  0.00  0.00    +0.000 A 
ATOM     27  S   UNL     1      49.937   5.936  18.502  0.00  0.00    +0.000 S 
ATOM     28  C   UNL     1      48.819   4.780  17.947  0.00  0.00    +0.000 A 
ATOM     29  N   UNL     1      48.462   3.721  18.723  0.00  0.00    +0.000 NA
ATOM     30  C   UNL     1      47.630   2.905  18.166  0.00  0.00    +0.000 A 
ATOM     31  N   UNL     1      47.117   3.057  16.905  0.00  0.00    +0.000 N 
ATOM     32  C   UNL     1      47.424   4.125  16.096  0.00  0.00    +0.000 A 
ATOM     33  O   UNL     1      46.916   4.252  14.986  0.00  0.00    +0.000 OA
ATOM     34  C   UNL     1      48.367   5.066  16.670  0.00  0.00    +0.000 A 
ATOM     35  H   UNL     1      46.463   2.384  16.531  0.00  0.00    +0.000 HD
ENDBRANCH  22  25
ENDBRANCH  20  21
ENDBRANCH   4  20
TORSDOF 9
ENDMDL
MODEL 3
REMARK VINA RESULT:    -7.369      2.182      2.701
REMARK INTER + INTRA:         -12.581
REMARK INTER:                 -11.251
REMARK INTRA:                  -1.330
REMARK UNBOUND:                -1.335
REMARK  Name = 
REMARK  10 active torsions:
REMARK  status: ('A' for Active; 'I' for Inactive)
REMARK    1  A    between atoms: C_1  and  C_2
REMARK    2  A    between atoms: C_2  and  O_3
REMARK    3  A    between atoms: O_3  and  C_4
REMARK    4  A    between atoms: C_4  and  C_6
REMARK    5  A    between atoms: C_9  and  C_10
REMARK    6  A    between atoms: C_10  and  O_11
REMARK    7  A    between atoms: O_11  and  C_12
REMARK    8  A    between atoms: C_15  and  C_16
REMARK    9  A    between atoms: C_16  and  N_17
REMARK   10  A    between atoms: C_18  and  C_20
REMARK                            x       y       z     vdW  Elec       q    Type
REMARK                         _______ _______ _______ _____ _____    ______ ____
ROOT
ATOM      1  C   UNL     1      44.789   5.987  13.055  0.00  0.00    +0.000 A 
ATOM      2  C   UNL     1      45.873   5.183  13.356  0.00  0.00    +0.000 A 
ATOM      3  C   UNL     1      47.149   5.731  13.257  0.00  0.00    +0.000 A 
ATOM      4  C   UNL     1      47.305   7.053  12.830  0.00  0.00    +0.000 A 
ATOM      5  C   UNL     1      46.148   7.767  12.532  0.00  0.00    +0.000 A 
ATOM      6  N   UNL     1      44.895   7.265  12.633  0.00  0.00    +0.000 NA
ENDROOT
BRANCH   1   7
ATOM      7  O   UNL     1      43.542   5.422  13.222  0.00  0.00    +0.000 OA
BRANCH   7   8
ATOM      8  C   UNL     1      42.809   5.392  11.999  0.00  0.00    +0.000 C 
BRANCH   8  12
ATOM      9  C   UNL     1      44.977   2.851   9.255  0.00  0.00    +0.000 A 
ATOM     10  C   UNL     1      44.949   4.235   9.055  0.00  0.00    +0.000 A 
ATOM     11  C   UNL     1      44.231   5.051   9.932  0.00  0.00    +0.000 A 
ATOM     12  C   UNL     1      43.531   4.497  11.016  0.00  0.00    +0.000 A 
ATOM     13  C   UNL     1      43.561   3.112  11.209  0.00  0.00    +0.000 A 
ATOM     14  C   UNL     1      44.279   2.294  10.336  0.00  0.00    +0.000 A 
BRANCH   9  15
ATOM     15  C   UNL     1      45.682   2.005   8.255  0.00  0.00    +0.000 C 
ATOM     16  O   UNL     1      45.990   0.839   8.441  0.00  0.00    +0.000 OA
BRANCH  15  17
ATOM     17  O   UNL     1      46.029   2.767   7.189  0.00  0.00    +0.000 OA
BRANCH  17  19
ATOM     18  C   UNL     1      47.797   2.136   5.721  0.00  0.00    +0.000 C 
ATOM     19  C   UNL     1      47.435   2.920   6.970  0.00  0.00    +0.000 C 
ENDBRANCH  17  19
ENDBRANCH  15  17
ENDBRANCH   9  15
ENDBRANCH   8  12
ENDBRANCH   7   8
ENDBRANCH   1   7
BRANCH   4  20
ATOM     20  C   UNL     1      48.655   7.699  12.745  0.00  0.00    +0.000 C 
BRANCH  20  21
ATOM     21  N   UNL     1      49.570   7.123  13.701  0.00  0.00    +0.000 N 
ATOM     22  C   UNL     1      50.228   7.908  14.614  0.00  0.00    +0.000 C 
ATOM     23  O   UNL     1      50.032   9.119  14.685  0.00  0.00    +0.000 OA
ATOM     24  H   UNL     1      49.918   6.188  13.509  0.00  0.00    +0.000 HD
BRANCH  22  25
ATOM     25  C   UNL     1      51.131   7.222  15.546  0.00  0.00    +0.000 A 
ATOM     26  C   UNL     1      52.489   7.509  15.518  0.00  0.00    +0.000 A 
ATOM     27  S   UNL     1      53.389   6.678  16.704  0.00  0.00    +0.000 S 
ATOM     28  C   UNL     1      52.005   5.861  17.262  0.00  0.00    +0.000 A 
ATOM     29  N   UNL     1      52.085   4.959  18.277  0.00  0.00    +0.000 NA
ATOM     30  C   UNL     1      50.964   4.391  18.578  0.00  0.00    +0.000 A 
ATOM     31  N   UNL     1      49.770   4.649  17.958  0.00  0.00    +0.000 N 
ATOM     32  C   UNL     1      49.634   5.572  16.949  0.00  0.00    +0.000 A 
ATOM     33  O   UNL     1      48.542   5.808  16.443  0.00  0.00    +0.000 OA
ATOM     34  C   UNL     1      50.868   6.231  16.564  0.00  0.00    +0.000 A 
ATOM     35  H   UNL     1      48.927   4.173  18.247  0.00  0.00    +0.000 HD
ENDBRANCH  22  25
ENDBRANCH  20  21
ENDBRANCH   4  20
TORSDOF 9
ENDMDL
MODEL 4
REMARK VINA RESULT:    -7.308      4.164      4.842
REMARK INTER + INTRA:         -12.489
REMARK INTER:                 -11.146
REMARK INTRA:                  -1.343
REMARK UNBOUND:                -1.335
REMARK  Name = 
REMARK  10 active torsions:
REMARK  status: ('A' for Active; 'I' for Inactive)
REMARK    1  A    between atoms: C_1  and  C_2
REMARK    2  A    between atoms: C_2  and  O_3
REMARK    3  A    between atoms: O_3  and  C_4
REMARK    4  A    between atoms: C_4  and  C_6
REMARK    5  A    between atoms: C_9  and  C_10
REMARK    6  A    between atoms: C_10  and  O_11
REMARK    7  A    between atoms: O_11  and  C_12
REMARK    8  A    between atoms: C_15  and  C_16
REMARK    9  A    between atoms: C_16  and  N_17
REMARK   10  A    between atoms: C_18  and  C_20
REMARK                            x       y       z     vdW  Elec       q    Type
REMARK                         _______ _______ _______ _____ _____    ______ ____
ROOT
ATOM      1  C   UNL     1      47.117   4.572  15.160  0.00  0.00    +0.000 A 
ATOM      2  C   UNL     1      47.195   3.912  16.372  0.00  0.00    +0.000 A 
ATOM      3  C   UNL     1      48.113   4.366  17.315  0.00  0.00    +0.000 A 
ATOM      4  C   UNL     1      48.947   5.445  17.006  0.00  0.00    +0.000 A 
ATOM      5  C   UNL     1      48.800   6.024  15.748  0.00  0.00    +0.000 A 
ATOM      6  N   UNL     1      47.907   5.612  14.819  0.00  0.00    +0.000 NA
ENDROOT
BRANCH   1   7
ATOM      7  O   UNL     1      46.155   4.125  14.279  0.00  0.00    +0.000 OA
BRANCH   7   8
ATOM      8  C   UNL     1      45.537   5.204  13.581  0.00  0.00    +0.000 C 
BRANCH   8  12
ATOM      9  C   UNL     1      45.308   4.124   9.402  0.00  0.00    +0.000 A 
ATOM     10  C   UNL     1      45.686   5.419   9.772  0.00  0.00    +0.000 A 
ATOM     11  C   UNL     1      45.740   5.771  11.122  0.00  0.00    +0.000 A 
ATOM     12  C   UNL     1      45.415   4.837  12.119  0.00  0.00    +0.000 A 
ATOM     13  C   UNL     1      45.035   3.545  11.743  0.00  0.00    +0.000 A 
ATOM     14  C   UNL     1      44.982   3.189  10.395  0.00  0.00    +0.000 A 
BRANCH   9  15
ATOM     15  C   UNL     1      45.182   3.810   7.954  0.00  0.00    +0.000 C 
ATOM     16  O   UNL     1      44.217   3.252   7.456  0.00  0.00    +0.000 OA
BRANCH  15  17
ATOM     17  O   UNL     1      46.342   4.121   7.325  0.00  0.00    +0.000 OA
BRANCH  17  19
ATOM     18  C   UNL     1      47.143   2.856   5.470  0.00  0.00    +0.000 C 
ATOM     19  C   UNL     1      47.176   3.010   6.981  0.00  0.00    +0.000 C 
ENDBRANCH  17  19
ENDBRANCH  15  17
ENDBRANCH   9  15
ENDBRANCH   8  12
ENDBRANCH   7   8
ENDBRANCH   1   7
BRANCH   4  20
ATOM     20  C   UNL     1      49.924   5.996  18.000  0.00  0.00    +0.000 C 
BRANCH  20  21
ATOM     21  N   UNL     1      50.924   5.014  18.346  0.00  0.00    +0.000 N 
ATOM     22  C   UNL     1      52.107   4.934  17.656  0.00  0.00    +0.000 C 
ATOM     23  O   UNL     1      52.381   5.719  16.752  0.00  0.00    +0.000 OA
ATOM     24  H   UNL     1      50.626   4.225  18.914  0.00  0.00    +0.000 HD
BRANCH  22  25
ATOM     25  C   UNL     1      53.057   3.903  18.092  0.00  0.00    +0.000 A 
ATOM     26  C   UNL     1      54.306   4.280  18.567  0.00  0.00    +0.000 A 
ATOM     27  S   UNL     1      55.263   2.971  19.094  0.00  0.00    +0.000 S 
ATOM     28  C   UNL     1      54.065   1.847  18.653  0.00  0.00    +0.000 A 
ATOM     29  N   UNL     1      54.262   0.511  18.822  0.00  0.00    +0.000 NA
ATOM     30  C   UNL     1      53.284  -0.230  18.417  0.00  0.00    +0.000 A 
ATOM     31  N   UNL     1      52.125   0.246  17.862  0.00  0.00    +0.000 N 
ATOM     32  C   UNL     1      51.869   1.586  17.699  0.00  0.00    +0.000 A 
ATOM     33  O   UNL     1      50.804   1.981  17.235  0.00  0.00    +0.000 OA
ATOM     34  C   UNL     1      52.943   2.463  18.127  0.00  0.00    +0.000 A 
ATOM     35  H   UNL     1      51.396  -0.389  17.571  0.00  0.00    +0.000 HD
ENDBRANCH  22  25
ENDBRANCH  20  21
ENDBRANCH   4  20
TORSDOF 9
ENDMDL
MODEL 5
REMARK VINA RESULT:    -6.928      4.067      4.988
REMARK INTER + INTRA:         -11.908
REMARK INTER:                 -10.885
REMARK INTRA:                  -1.024
REMARK UNBOUND:                -1.335
REMARK  Name = 
REMARK  10 active torsions:
REMARK  status: ('A' for Active; 'I' for Inactive)
REMARK    1  A    between atoms: C_1  and  C_2
REMARK    2  A    between atoms: C_2  and  O_3
REMARK    3  A    between atoms: O_3  and  C_4
REMARK    4  A    between atoms: C_4  and  C_6
REMARK    5  A    between atoms: C_9  and  C_10
REMARK    6  A    between atoms: C_10  and  O_11
REMARK    7  A    between atoms: O_11  and  C_12
REMARK    8  A    between atoms: C_15  and  C_16
REMARK    9  A    between atoms: C_16  and  N_17
REMARK   10  A    between atoms: C_18  and  C_20
REMARK                            x       y       z     vdW  Elec       q    Type
REMARK                         _______ _______ _______ _____ _____    ______ ____
ROOT
ATOM      1  C   UNL     1      47.529   5.634  14.645  0.00  0.00    +0.000 A 
ATOM      2  C   UNL     1      46.897   4.416  14.817  0.00  0.00    +0.000 A 
ATOM      3  C   UNL     1      47.193   3.674  15.956  0.00  0.00    +0.000 A 
ATOM      4  C   UNL     1      48.134   4.155  16.872  0.00  0.00    +0.000 A 
ATOM      5  C   UNL     1      48.726   5.383  16.592  0.00  0.00    +0.000 A 
ATOM      6  N   UNL     1      48.447   6.132  15.500  0.00  0.00    +0.000 NA
ENDROOT
BRANCH   1   7
ATOM      7  O   UNL     1      47.163   6.362  13.532  0.00  0.00    +0.000 OA
BRANCH   7   8
ATOM      8  C   UNL     1      45.778   6.205  13.231  0.00  0.00    +0.000 C 
BRANCH   8  12
ATOM      9  C   UNL     1      45.276   4.313   9.377  0.00  0.00    +0.000 A 
ATOM     10  C   UNL     1      44.791   3.691  10.533  0.00  0.00    +0.000 A 
ATOM     11  C   UNL     1      44.972   4.295  11.778  0.00  0.00    +0.000 A 
ATOM     12  C   UNL     1      45.641   5.525  11.888  0.00  0.00    +0.000 A 
ATOM     13  C   UNL     1      46.126   6.141  10.729  0.00  0.00    +0.000 A 
ATOM     14  C   UNL     1      45.945   5.541   9.483  0.00  0.00    +0.000 A 
BRANCH   9  15
ATOM     15  C   UNL     1      45.138   3.601   8.079  0.00  0.00    +0.000 C 
ATOM     16  O   UNL     1      44.427   2.624   7.907  0.00  0.00    +0.000 OA
BRANCH  15  17
ATOM     17  O   UNL     1      46.010   4.128   7.184  0.00  0.00    +0.000 OA
BRANCH  17  19
ATOM     18  C   UNL     1      47.667   2.419   7.060  0.00  0.00    +0.000 C 
ATOM     19  C   UNL     1      46.615   3.192   6.285  0.00  0.00    +0.000 C 
ENDBRANCH  17  19
ENDBRANCH  15  17
ENDBRANCH   9  15
ENDBRANCH   8  12
ENDBRANCH   7   8
ENDBRANCH   1   7
BRANCH   4  20
ATOM     20  C   UNL     1      48.458   3.411  18.133  0.00  0.00    +0.000 C 
BRANCH  20  21
ATOM     21  N   UNL     1      49.879   3.187  18.254  0.00  0.00    +0.000 N 
ATOM     22  C   UNL     1      50.527   2.291  17.441  0.00  0.00    +0.000 C 
ATOM     23  O   UNL     1      49.937   1.682  16.552  0.00  0.00    +0.000 OA
ATOM     24  H   UNL     1      50.328   3.491  19.114  0.00  0.00    +0.000 HD
BRANCH  22  25
ATOM     25  C   UNL     1      51.973   2.143  17.643  0.00  0.00    +0.000 A 
ATOM     26  C   UNL     1      52.522   0.872  17.748  0.00  0.00    +0.000 A 
ATOM     27  S   UNL     1      54.220   0.871  17.914  0.00  0.00    +0.000 S 
ATOM     28  C   UNL     1      54.277   2.571  17.908  0.00  0.00    +0.000 A 
ATOM     29  N   UNL     1      55.458   3.232  18.040  0.00  0.00    +0.000 NA
ATOM     30  C   UNL     1      55.352   4.520  18.050  0.00  0.00    +0.000 A 
ATOM     31  N   UNL     1      54.172   5.205  17.934  0.00  0.00    +0.000 N 
ATOM     32  C   UNL     1      52.958   4.581  17.769  0.00  0.00    +0.000 A 
ATOM     33  O   UNL     1      51.924   5.226  17.628  0.00  0.00    +0.000 OA
ATOM     34  C   UNL     1      53.020   3.132  17.764  0.00  0.00    +0.000 A 
ATOM     35  H   UNL     1      54.160   6.215  17.943  0.00  0.00    +0.000 HD
ENDBRANCH  22  25
ENDBRANCH  20  21
ENDBRANCH   4  20
TORSDOF 9
ENDMDL
MODEL 6
REMARK VINA RESULT:    -6.698      3.293      3.971
REMARK INTER + INTRA:         -11.557
REMARK INTER:                 -10.316
REMARK INTRA:                  -1.241
REMARK UNBOUND:                -1.335
REMARK  Name = 
REMARK  10 active torsions:
REMARK  status: ('A' for Active; 'I' for Inactive)
REMARK    1  A    between atoms: C_1  and  C_2
REMARK    2  A    between atoms: C_2  and  O_3
REMARK    3  A    between atoms: O_3  and  C_4
REMARK    4  A    between atoms: C_4  and  C_6
REMARK    5  A    between atoms: C_9  and  C_10
REMARK    6  A    between atoms: C_10  and  O_11
REMARK    7  A    between atoms: O_11  and  C_12
REMARK    8  A    between atoms: C_15  and  C_16
REMARK    9  A    between atoms: C_16  and  N_17
REMARK   10  A    between atoms: C_18  and  C_20
REMARK                            x       y       z     vdW  Elec       q    Type
REMARK                         _______ _______ _______ _____ _____    ______ ____
ROOT
ATOM      1  C   UNL     1      47.249   7.621  13.593  0.00  0.00    +0.000 A 
ATOM      2  C   UNL     1      47.785   6.443  14.078  0.00  0.00    +0.000 A 
ATOM      3  C   UNL     1      48.701   6.515  15.124  0.00  0.00    +0.000 A 
ATOM      4  C   UNL     1      49.077   7.762  15.631  0.00  0.00    +0.000 A 
ATOM      5  C   UNL     1      48.492   8.886  15.056  0.00  0.00    +0.000 A 
ATOM      6  N   UNL     1      47.589   8.845  14.048  0.00  0.00    +0.000 NA
ENDROOT
BRANCH   1   7
ATOM      7  O   UNL     1      46.304   7.500  12.596  0.00  0.00    +0.000 OA
BRANCH   7   8
ATOM      8  C   UNL     1      45.334   6.501  12.908  0.00  0.00    +0.000 C 
BRANCH   8  12
ATOM      9  C   UNL     1      45.100   3.633   9.683  0.00  0.00    +0.000 A 
ATOM     10  C   UNL     1      44.776   3.248  10.988  0.00  0.00    +0.000 A 
ATOM     11  C   UNL     1      44.872   4.172  12.031  0.00  0.00    +0.000 A 
ATOM     12  C   UNL     1      45.294   5.488  11.786  0.00  0.00    +0.000 A 
ATOM     13  C   UNL     1      45.618   5.866  10.479  0.00  0.00    +0.000 A 
ATOM     14  C   UNL     1      45.521   4.947   9.434  0.00  0.00    +0.000 A 
BRANCH   9  15
ATOM     15  C   UNL     1      45.065   2.602   8.612  0.00  0.00    +0.000 C 
ATOM     16  O   UNL     1      44.737   1.440   8.791  0.00  0.00    +0.000 OA
BRANCH  15  17
ATOM     17  O   UNL     1      45.571   3.126   7.469  0.00  0.00    +0.000 OA
BRANCH  17  19
ATOM     18  C   UNL     1      46.984   2.637   5.613  0.00  0.00    +0.000 C 
ATOM     19  C   UNL     1      46.896   2.704   7.127  0.00  0.00    +0.000 C 
ENDBRANCH  17  19
ENDBRANCH  15  17
ENDBRANCH   9  15
ENDBRANCH   8  12
ENDBRANCH   7   8
ENDBRANCH   1   7
BRANCH   4  20
ATOM     20  C   UNL     1      50.030   7.890  16.782  0.00  0.00    +0.000 C 
BRANCH  20  21
ATOM     21  N   UNL     1      50.820   6.693  16.939  0.00  0.00    +0.000 N 
ATOM     22  C   UNL     1      51.256   6.288  18.176  0.00  0.00    +0.000 C 
ATOM     23  O   UNL     1      50.955   6.900  19.198  0.00  0.00    +0.000 OA
ATOM     24  H   UNL     1      51.269   6.317  16.108  0.00  0.00    +0.000 HD
BRANCH  22  25
ATOM     25  C   UNL     1      52.048   5.054  18.225  0.00  0.00    +0.000 A 
ATOM     26  C   UNL     1      53.364   5.102  18.666  0.00  0.00    +0.000 A 
ATOM     27  S   UNL     1      54.124   3.577  18.726  0.00  0.00    +0.000 S 
ATOM     28  C   UNL     1      52.739   2.802  18.112  0.00  0.00    +0.000 A 
ATOM     29  N   UNL     1      52.726   1.459  17.894  0.00  0.00    +0.000 NA
ATOM     30  C   UNL     1      51.623   1.008  17.396  0.00  0.00    +0.000 A 
ATOM     31  N   UNL     1      50.529   1.779  17.103  0.00  0.00    +0.000 N 
ATOM     32  C   UNL     1      50.484   3.133  17.333  0.00  0.00    +0.000 A 
ATOM     33  O   UNL     1      49.474   3.788  17.096  0.00  0.00    +0.000 OA
ATOM     34  C   UNL     1      51.705   3.693  17.880  0.00  0.00    +0.000 A 
ATOM     35  H   UNL     1      49.693   1.361  16.720  0.00  0.00    +0.000 HD
ENDBRANCH  22  25
ENDBRANCH  20  21
ENDBRANCH   4  20
TORSDOF 9
ENDMDL
MODEL 7
REMARK VINA RESULT:    -6.555      2.745      4.142
REMARK INTER + INTRA:         -11.339
REMARK INTER:                  -9.601
REMARK INTRA:                  -1.738
REMARK UNBOUND:                -1.335
REMARK  Name = 
REMARK  10 active torsions:
REMARK  status: ('A' for Active; 'I' for Inactive)
REMARK    1  A    between atoms: C_1  and  C_2
REMARK    2  A    between atoms: C_2  and  O_3
REMARK    3  A    between atoms: O_3  and  C_4
REMARK    4  A    between atoms: C_4  and  C_6
REMARK    5  A    between atoms: C_9  and  C_10
REMARK    6  A    between atoms: C_10  and  O_11
REMARK    7  A    between atoms: O_11  and  C_12
REMARK    8  A    between atoms: C_15  and  C_16
REMARK    9  A    between atoms: C_16  and  N_17
REMARK   10  A    between atoms: C_18  and  C_20
REMARK                            x       y       z     vdW  Elec       q    Type
REMARK                         _______ _______ _______ _____ _____    ______ ____
ROOT
ATOM      1  C   UNL     1      47.717   8.994  12.211  0.00  0.00    +0.000 A 
ATOM      2  C   UNL     1      48.576   8.052  11.677  0.00  0.00    +0.000 A 
ATOM      3  C   UNL     1      49.733   7.737  12.383  0.00  0.00    +0.000 A 
ATOM      4  C   UNL     1      50.012   8.396  13.584  0.00  0.00    +0.000 A 
ATOM      5  C   UNL     1      49.091   9.343  14.021  0.00  0.00    +0.000 A 
ATOM      6  N   UNL     1      47.951   9.658  13.362  0.00  0.00    +0.000 NA
ENDROOT
BRANCH   1   7
ATOM      7  O   UNL     1      46.555   9.234  11.507  0.00  0.00    +0.000 OA
BRANCH   7   8
ATOM      8  C   UNL     1      45.397   9.011  12.309  0.00  0.00    +0.000 C 
BRANCH   8  12
ATOM      9  C   UNL     1      44.083   4.907  11.969  0.00  0.00    +0.000 A 
ATOM     10  C   UNL     1      45.149   5.234  12.813  0.00  0.00    +0.000 A 
ATOM     11  C   UNL     1      45.584   6.558  12.906  0.00  0.00    +0.000 A 
ATOM     12  C   UNL     1      44.964   7.570  12.156  0.00  0.00    +0.000 A 
ATOM     13  C   UNL     1      43.900   7.236  11.312  0.00  0.00    +0.000 A 
ATOM     14  C   UNL     1      43.461   5.915  11.219  0.00  0.00    +0.000 A 
BRANCH   9  15
ATOM     15  C   UNL     1      43.700   3.477  11.833  0.00  0.00    +0.000 C 
ATOM     16  O   UNL     1      43.715   2.674  12.753  0.00  0.00    +0.000 OA
BRANCH  15  17
ATOM     17  O   UNL     1      43.466   3.197  10.528  0.00  0.00    +0.000 OA
BRANCH  17  19
ATOM     18  C   UNL     1      44.747   3.609   8.560  0.00  0.00    +0.000 C 
ATOM     19  C   UNL     1      44.594   2.723   9.784  0.00  0.00    +0.000 C 
ENDBRANCH  17  19
ENDBRANCH  15  17
ENDBRANCH   9  15
ENDBRANCH   8  12
ENDBRANCH   7   8
ENDBRANCH   1   7
BRANCH   4  20
ATOM     20  C   UNL     1      51.226   8.064  14.401  0.00  0.00    +0.000 C 
BRANCH  20  21
ATOM     21  N   UNL     1      50.937   7.030  15.365  0.00  0.00    +0.000 N 
ATOM     22  C   UNL     1      50.586   7.341  16.655  0.00  0.00    +0.000 C 
ATOM     23  O   UNL     1      50.459   8.505  17.026  0.00  0.00    +0.000 OA
ATOM     24  H   UNL     1      51.260   6.090  15.152  0.00  0.00    +0.000 HD
BRANCH  22  25
ATOM     25  C   UNL     1      50.308   6.214  17.553  0.00  0.00    +0.000 A 
ATOM     26  C   UNL     1      51.063   6.058  18.708  0.00  0.00    +0.000 A 
ATOM     27  S   UNL     1      50.572   4.741  19.675  0.00  0.00    +0.000 S 
ATOM     28  C   UNL     1      49.369   4.298  18.557  0.00  0.00    +0.000 A 
ATOM     29  N   UNL     1      48.578   3.212  18.772  0.00  0.00    +0.000 NA
ATOM     30  C   UNL     1      47.728   2.973  17.829  0.00  0.00    +0.000 A 
ATOM     31  N   UNL     1      47.595   3.726  16.692  0.00  0.00    +0.000 N 
ATOM     32  C   UNL     1      48.350   4.847  16.444  0.00  0.00    +0.000 A 
ATOM     33  O   UNL     1      48.178   5.522  15.434  0.00  0.00    +0.000 OA
ATOM     34  C   UNL     1      49.330   5.153  17.469  0.00  0.00    +0.000 A 
ATOM     35  H   UNL     1      46.905   3.487  15.995  0.00  0.00    +0.000 HD
ENDBRANCH  22  25
ENDBRANCH  20  21
ENDBRANCH   4  20
TORSDOF 9
ENDMDL
MODEL 8
REMARK VINA RESULT:    -6.497      5.081      8.486
REMARK INTER + INTRA:         -11.250
REMARK INTER:                 -10.249
REMARK INTRA:                  -1.001
REMARK UNBOUND:                -1.335
REMARK  Name = 
REMARK  10 active torsions:
REMARK  status: ('A' for Active; 'I' for Inactive)
REMARK    1  A    between atoms: C_1  and  C_2
REMARK    2  A    between atoms: C_2  and  O_3
REMARK    3  A    between atoms: O_3  and  C_4
REMARK    4  A    between atoms: C_4  and  C_6
REMARK    5  A    between atoms: C_9  and  C_10
REMARK    6  A    between atoms: C_10  and  O_11
REMARK    7  A    between atoms: O_11  and  C_12
REMARK    8  A    between atoms: C_15  and  C_16
REMARK    9  A    between atoms: C_16  and  N_17
REMARK   10  A    between atoms: C_18  and  C_20
REMARK                            x       y       z     vdW  Elec       q    Type
REMARK                         _______ _______ _______ _____ _____    ______ ____
ROOT
ATOM      1  C   UNL     1      50.424   8.756  11.299  0.00  0.00    +0.000 A 
ATOM      2  C   UNL     1      49.545   9.819  11.399  0.00  0.00    +0.000 A 
ATOM      3  C   UNL     1      48.294   9.591  11.966  0.00  0.00    +0.000 A 
ATOM      4  C   UNL     1      47.948   8.303  12.385  0.00  0.00    +0.000 A 
ATOM      5  C   UNL     1      48.899   7.301  12.218  0.00  0.00    +0.000 A 
ATOM      6  N   UNL     1      50.127   7.497  11.684  0.00  0.00    +0.000 NA
ENDROOT
BRANCH   1   7
ATOM      7  O   UNL     1      51.672   9.039  10.785  0.00  0.00    +0.000 OA
BRANCH   7   8
ATOM      8  C   UNL     1      52.631   8.050  11.155  0.00  0.00    +0.000 C 
BRANCH   8  12
ATOM      9  C   UNL     1      53.559   5.613   7.707  0.00  0.00    +0.000 A 
ATOM     10  C   UNL     1      52.811   6.786   7.556  0.00  0.00    +0.000 A 
ATOM     11  C   UNL     1      52.496   7.561   8.674  0.00  0.00    +0.000 A 
ATOM     12  C   UNL     1      52.920   7.174   9.956  0.00  0.00    +0.000 A 
ATOM     13  C   UNL     1      53.665   5.999  10.101  0.00  0.00    +0.000 A 
ATOM     14  C   UNL     1      53.984   5.224   8.986  0.00  0.00    +0.000 A 
BRANCH   9  15
ATOM     15  C   UNL     1      53.806   4.771   6.507  0.00  0.00    +0.000 C 
ATOM     16  O   UNL     1      53.917   5.211   5.374  0.00  0.00    +0.000 OA
BRANCH  15  17
ATOM     17  O   UNL     1      53.755   3.463   6.859  0.00  0.00    +0.000 OA
BRANCH  17  19
ATOM     18  C   UNL     1      54.436   1.447   5.784  0.00  0.00    +0.000 C 
ATOM     19  C   UNL     1      54.910   2.687   6.523  0.00  0.00    +0.000 C 
ENDBRANCH  17  19
ENDBRANCH  15  17
ENDBRANCH   9  15
ENDBRANCH   8  12
ENDBRANCH   7   8
ENDBRANCH   1   7
BRANCH   4  20
ATOM     20  C   UNL     1      46.628   8.014  13.035  0.00  0.00    +0.000 C 
BRANCH  20  21
ATOM     21  N   UNL     1      46.144   6.704  12.672  0.00  0.00    +0.000 N 
ATOM     22  C   UNL     1      45.053   6.553  11.853  0.00  0.00    +0.000 C 
ATOM     23  O   UNL     1      44.476   7.520  11.362  0.00  0.00    +0.000 OA
ATOM     24  H   UNL     1      46.448   5.919  13.242  0.00  0.00    +0.000 HD
BRANCH  22  25
ATOM     25  C   UNL     1      44.647   5.178  11.541  0.00  0.00    +0.000 A 
ATOM     26  C   UNL     1      43.912   4.454  12.470  0.00  0.00    +0.000 A 
ATOM     27  S   UNL     1      43.464   2.900  11.929  0.00  0.00    +0.000 S 
ATOM     28  C   UNL     1      44.284   3.117  10.455  0.00  0.00    +0.000 A 
ATOM     29  N   UNL     1      44.314   2.130   9.518  0.00  0.00    +0.000 NA
ATOM     30  C   UNL     1      44.998   2.417   8.460  0.00  0.00    +0.000 A 
ATOM     31  N   UNL     1      45.648   3.604   8.252  0.00  0.00    +0.000 N 
ATOM     32  C   UNL     1      45.622   4.640   9.155  0.00  0.00    +0.000 A 
ATOM     33  O   UNL     1      46.182   5.706   8.920  0.00  0.00    +0.000 OA
ATOM     34  C   UNL     1      44.877   4.365  10.368  0.00  0.00    +0.000 A 
ATOM     35  H   UNL     1      46.161   3.767   7.397  0.00  0.00    +0.000 HD
ENDBRANCH  22  25
ENDBRANCH  20  21
ENDBRANCH   4  20
TORSDOF 9
ENDMDL
MODEL 9
REMARK VINA RESULT:    -6.176      5.048      9.683
REMARK INTER + INTRA:         -10.761
REMARK INTER:                  -9.709
REMARK INTRA:                  -1.052
REMARK UNBOUND:                -1.335
REMARK  Name = 
REMARK  10 active torsions:
REMARK  status: ('A' for Active; 'I' for Inactive)
REMARK    1  A    between atoms: C_1  and  C_2
REMARK    2  A    between atoms: C_2  and  O_3
REMARK    3  A    between atoms: O_3  and  C_4
REMARK    4  A    between atoms: C_4  and  C_6
REMARK    5  A    between atoms: C_9  and  C_10
REMARK    6  A    between atoms: C_10  and  O_11
REMARK    7  A    between atoms: O_11  and  C_12
REMARK    8  A    between atoms: C_15  and  C_16
REMARK    9  A    between atoms: C_16  and  N_17
REMARK   10  A    between atoms: C_18  and  C_20
REMARK                            x       y       z     vdW  Elec       q    Type
REMARK                         _______ _______ _______ _____ _____    ______ ____
ROOT
ATOM      1  C   UNL     1      49.290   5.508  17.266  0.00  0.00    +0.000 A 
ATOM      2  C   UNL     1      48.268   4.957  16.514  0.00  0.00    +0.000 A 
ATOM      3  C   UNL     1      47.964   5.538  15.286  0.00  0.00    +0.000 A 
ATOM      4  C   UNL     1      48.668   6.669  14.861  0.00  0.00    +0.000 A 
ATOM      5  C   UNL     1      49.663   7.155  15.704  0.00  0.00    +0.000 A 
ATOM      6  N   UNL     1      49.989   6.602  16.896  0.00  0.00    +0.000 NA
ENDROOT
BRANCH   1   7
ATOM      7  O   UNL     1      49.595   4.867  18.448  0.00  0.00    +0.000 OA
BRANCH   7   8
ATOM      8  C   UNL     1      50.965   5.041  18.804  0.00  0.00    +0.000 C 
BRANCH   8  12
ATOM      9  C   UNL     1      53.128   1.387  17.998  0.00  0.00    +0.000 A 
ATOM     10  C   UNL     1      51.854   1.581  17.456  0.00  0.00    +0.000 A 
ATOM     11  C   UNL     1      51.149   2.755  17.733  0.00  0.00    +0.000 A 
ATOM     12  C   UNL     1      51.705   3.746  18.558  0.00  0.00    +0.000 A 
ATOM     13  C   UNL     1      52.979   3.545  19.100  0.00  0.00    +0.000 A 
ATOM     14  C   UNL     1      53.687   2.375  18.822  0.00  0.00    +0.000 A 
BRANCH   9  15
ATOM     15  C   UNL     1      53.814   0.092  17.748  0.00  0.00    +0.000 C 
ATOM     16  O   UNL     1      54.204  -0.275  16.651  0.00  0.00    +0.000 OA
BRANCH  15  17
ATOM     17  O   UNL     1      53.814  -0.643  18.887  0.00  0.00    +0.000 OA
BRANCH  17  19
ATOM     18  C   UNL     1      53.151  -2.790  19.684  0.00  0.00    +0.000 C 
ATOM     19  C   UNL     1      54.057  -2.044  18.720  0.00  0.00    +0.000 C 
ENDBRANCH  17  19
ENDBRANCH  15  17
ENDBRANCH   9  15
ENDBRANCH   8  12
ENDBRANCH   7   8
ENDBRANCH   1   7
BRANCH   4  20
ATOM     20  C   UNL     1      48.404   7.307  13.530  0.00  0.00    +0.000 C 
BRANCH  20  21
ATOM     21  N   UNL     1      47.682   6.412  12.658  0.00  0.00    +0.000 N 
ATOM     22  C   UNL     1      46.397   6.691  12.263  0.00  0.00    +0.000 C 
ATOM     23  O   UNL     1      45.830   7.728  12.596  0.00  0.00    +0.000 OA
ATOM     24  H   UNL     1      48.033   5.463  12.569  0.00  0.00    +0.000 HD
BRANCH  22  25
ATOM     25  C   UNL     1      45.756   5.718  11.371  0.00  0.00    +0.000 A 
ATOM     26  C   UNL     1      45.933   5.827   9.998  0.00  0.00    +0.000 A 
ATOM     27  S   UNL     1      45.178   4.583   9.109  0.00  0.00    +0.000 S 
ATOM     28  C   UNL     1      44.539   3.885  10.522  0.00  0.00    +0.000 A 
ATOM     29  N   UNL     1      43.755   2.774  10.462  0.00  0.00    +0.000 NA
ATOM     30  C   UNL     1      43.312   2.369  11.606  0.00  0.00    +0.000 A 
ATOM     31  N   UNL     1      43.588   2.972  12.805  0.00  0.00    +0.000 N 
ATOM     32  C   UNL     1      44.397   4.078  12.919  0.00  0.00    +0.000 A 
ATOM     33  O   UNL     1      44.655   4.570  14.012  0.00  0.00    +0.000 OA
ATOM     34  C   UNL     1      44.911   4.581  11.659  0.00  0.00    +0.000 A 
ATOM     35  H   UNL     1      43.213   2.600  13.666  0.00  0.00    +0.000 HD
ENDBRANCH  22  25
ENDBRANCH  20  21
ENDBRANCH   4  20
TORSDOF 9
ENDMDL
