MODEL 1
REMARK VINA RESULT:    -8.861      0.000      0.000
REMARK INTER + INTRA:         -12.402
REMARK INTER:                 -11.969
REMARK INTRA:                  -0.433
REMARK UNBOUND:                -0.433
REMARK  Name = 
REMARK  7 active torsions:
REMARK  status: ('A' for Active; 'I' for Inactive)
REMARK    1  A    between atoms: C_1  and  C_2
REMARK    2  A    between atoms: C_4  and  C_5
REMARK    3  A    between atoms: C_10  and  N_11
REMARK    4  A    between atoms: N_11  and  C_12
REMARK    5  A    between atoms: C_12  and  C_13
REMARK    6  A    between atoms: C_17  and  C_18
REMARK    7  A    between atoms: C_22  and  C_23
REMARK                            x       y       z     vdW  Elec       q    Type
REMARK                         _______ _______ _______ _____ _____    ______ ____
ROOT
ATOM      1  C   UNL     1      45.147   5.630  11.956  0.00  0.00    +0.000 A 
ATOM      2  C   UNL     1      45.369   6.881  11.368  0.00  0.00    +0.000 A 
ATOM      3  C   UNL     1      46.356   7.728  11.867  0.00  0.00    +0.000 A 
ATOM      4  C   UNL     1      47.119   7.340  12.971  0.00  0.00    +0.000 A 
ATOM      5  C   UNL     1      46.906   6.106  13.610  0.00  0.00    +0.000 A 
ATOM      6  C   UNL     1      45.915   5.259  13.075  0.00  0.00    +0.000 A 
ENDROOT
BRANCH   5   7
ATOM      7  C   UNL     1      47.667   5.732  14.819  0.00  0.00    +0.000 A 
ATOM      8  C   UNL     1      48.605   6.596  15.392  0.00  0.00    +0.000 A 
ATOM      9  N   UNL     1      49.324   6.339  16.512  0.00  0.00    +0.000 NA
ATOM     10  C   UNL     1      49.100   5.155  17.120  0.00  0.00    +0.000 A 
ATOM     11  C   UNL     1      48.201   4.210  16.653  0.00  0.00    +0.000 A 
ATOM     12  C   UNL     1      47.487   4.511  15.481  0.00  0.00    +0.000 A 
BRANCH  11  13
ATOM     13  C   UNL     1      47.995   2.923  17.386  0.00  0.00    +0.000 C 
ATOM     14  F   UNL     1      46.684   2.616  17.599  0.00  0.00    +0.000 F 
ATOM     15  F   UNL     1      48.521   1.857  16.723  0.00  0.00    +0.000 F 
ATOM     16  F   UNL     1      48.580   2.922  18.616  0.00  0.00    +0.000 F 
ENDBRANCH  11  13
ENDBRANCH   5   7
BRANCH   1  17
ATOM     17  C   UNL     1      44.091   4.699  11.398  0.00  0.00    +0.000 C 
BRANCH  17  18
ATOM     18  N   UNL     1      43.935   4.915   9.961  0.00  0.00    +0.000 N 
ATOM     19  H   UNL     1      44.025   5.896   9.720  0.00  0.00    +0.000 HD
BRANCH  18  26
ATOM     20  C   UNL     1      43.891   2.005  10.220  0.00  0.00    +0.000 C 
ATOM     21  C   UNL     1      44.822   2.743   9.302  0.00  0.00    +0.000 A 
ATOM     22  C   UNL     1      45.749   2.006   8.544  0.00  0.00    +0.000 A 
ATOM     23  C   UNL     1      46.638   2.652   7.684  0.00  0.00    +0.000 A 
ATOM     24  C   UNL     1      46.550   4.029   7.623  0.00  0.00    +0.000 A 
ATOM     25  N   UNL     1      45.669   4.772   8.344  0.00  0.00    +0.000 NA
ATOM     26  C   UNL     1      44.807   4.140   9.173  0.00  0.00    +0.000 A 
BRANCH  23  27
ATOM     27  C   UNL     1      47.608   1.842   6.907  0.00  0.00    +0.000 C 
ATOM     28  N   UNL     1      48.562   2.481   6.163  0.00  0.00    +0.000 N 
ATOM     29  O   UNL     1      47.568   0.618   6.924  0.00  0.00    +0.000 OA
ATOM     30  H   UNL     1      48.709   3.471   6.102  0.00  0.00    +0.000 HD
ATOM     31  H   UNL     1      49.214   1.879   5.665  0.00  0.00    +0.000 HD
ENDBRANCH  23  27
ENDBRANCH  18  26
ENDBRANCH  17  18
ENDBRANCH   1  17
TORSDOF 6
ENDMDL
MODEL 2
REMARK VINA RESULT:    -8.725      3.767      4.567
REMARK INTER + INTRA:         -12.219
REMARK INTER:                 -11.051
REMARK INTRA:                  -1.168
REMARK UNBOUND:                -0.433
REMARK  Name = 
REMARK  7 active torsions:
REMARK  status: ('A' for Active; 'I' for Inactive)
REMARK    1  A    between atoms: C_1  and  C_2
REMARK    2  A    between atoms: C_4  and  C_5
REMARK    3  A    between atoms: C_10  and  N_11
REMARK    4  A    between atoms: N_11  and  C_12
REMARK    5  A    between atoms: C_12  and  C_13
REMARK    6  A    between atoms: C_17  and  C_18
REMARK    7  A    between atoms: C_22  and  C_23
REMARK                            x       y       z     vdW  Elec       q    Type
REMARK                         _______ _______ _______ _____ _____    ______ ____
ROOT
ATOM      1  C   UNL     1      45.636   5.968  11.642  0.00  0.00    +0.000 A 
ATOM      2  C   UNL     1      45.318   5.000  12.601  0.00  0.00    +0.000 A 
ATOM      3  C   UNL     1      46.174   4.767  13.676  0.00  0.00    +0.000 A 
ATOM      4  C   UNL     1      47.365   5.486  13.791  0.00  0.00    +0.000 A 
ATOM      5  C   UNL     1      47.738   6.443  12.832  0.00  0.00    +0.000 A 
ATOM      6  C   UNL     1      46.846   6.676  11.765  0.00  0.00    +0.000 A 
ENDROOT
BRANCH   5   7
ATOM      7  C   UNL     1      49.031   7.150  12.922  0.00  0.00    +0.000 A 
ATOM      8  C   UNL     1      49.579   7.524  14.152  0.00  0.00    +0.000 A 
ATOM      9  N   UNL     1      50.769   8.151  14.321  0.00  0.00    +0.000 NA
ATOM     10  C   UNL     1      51.479   8.420  13.204  0.00  0.00    +0.000 A 
ATOM     11  C   UNL     1      51.047   8.104  11.926  0.00  0.00    +0.000 A 
ATOM     12  C   UNL     1      49.801   7.468  11.795  0.00  0.00    +0.000 A 
BRANCH  11  13
ATOM     13  C   UNL     1      51.892   8.422  10.734  0.00  0.00    +0.000 C 
ATOM     14  F   UNL     1      51.610   9.628  10.167  0.00  0.00    +0.000 F 
ATOM     15  F   UNL     1      53.220   8.456  11.032  0.00  0.00    +0.000 F 
ATOM     16  F   UNL     1      51.757   7.503   9.738  0.00  0.00    +0.000 F 
ENDBRANCH  11  13
ENDBRANCH   5   7
BRANCH   1  17
ATOM     17  C   UNL     1      44.694   6.240  10.488  0.00  0.00    +0.000 C 
BRANCH  17  18
ATOM     18  N   UNL     1      44.041   5.002  10.066  0.00  0.00    +0.000 N 
ATOM     19  H   UNL     1      43.153   5.186   9.613  0.00  0.00    +0.000 HD
BRANCH  18  26
ATOM     20  C   UNL     1      44.022   2.109  10.473  0.00  0.00    +0.000 C 
ATOM     21  C   UNL     1      44.872   2.798   9.445  0.00  0.00    +0.000 A 
ATOM     22  C   UNL     1      45.733   2.021   8.650  0.00  0.00    +0.000 A 
ATOM     23  C   UNL     1      46.547   2.620   7.688  0.00  0.00    +0.000 A 
ATOM     24  C   UNL     1      46.452   3.992   7.566  0.00  0.00    +0.000 A 
ATOM     25  N   UNL     1      45.634   4.773   8.320  0.00  0.00    +0.000 NA
ATOM     26  C   UNL     1      44.845   4.187   9.248  0.00  0.00    +0.000 A 
BRANCH  23  27
ATOM     27  C   UNL     1      47.449   1.770   6.874  0.00  0.00    +0.000 C 
ATOM     28  N   UNL     1      48.536   2.341   6.269  0.00  0.00    +0.000 N 
ATOM     29  O   UNL     1      47.238   0.571   6.739  0.00  0.00    +0.000 OA
ATOM     30  H   UNL     1      48.823   3.300   6.339  0.00  0.00    +0.000 HD
ATOM     31  H   UNL     1      49.132   1.710   5.740  0.00  0.00    +0.000 HD
ENDBRANCH  23  27
ENDBRANCH  18  26
ENDBRANCH  17  18
ENDBRANCH   1  17
TORSDOF 6
ENDMDL
MODEL 3
REMARK VINA RESULT:    -8.145      4.515      8.025
REMARK INTER + INTRA:         -11.435
REMARK INTER:                 -10.395
REMARK INTRA:                  -1.040
REMARK UNBOUND:                -0.433
REMARK  Name = 
REMARK  7 active torsions:
REMARK  status: ('A' for Active; 'I' for Inactive)
REMARK    1  A    between atoms: C_1  and  C_2
REMARK    2  A    between atoms: C_4  and  C_5
REMARK    3  A    between atoms: C_10  and  N_11
REMARK    4  A    between atoms: N_11  and  C_12
REMARK    5  A    between atoms: C_12  and  C_13
REMARK    6  A    between atoms: C_17  and  C_18
REMARK    7  A    between atoms: C_22  and  C_23
REMARK                            x       y       z     vdW  Elec       q    Type
REMARK                         _______ _______ _______ _____ _____    ______ ____
ROOT
ATOM      1  C   UNL     1      48.144   6.994  14.255  0.00  0.00    +0.000 A 
ATOM      2  C   UNL     1      48.425   7.987  13.309  0.00  0.00    +0.000 A 
ATOM      3  C   UNL     1      47.759   8.001  12.085  0.00  0.00    +0.000 A 
ATOM      4  C   UNL     1      46.820   7.011  11.787  0.00  0.00    +0.000 A 
ATOM      5  C   UNL     1      46.533   5.978  12.696  0.00  0.00    +0.000 A 
ATOM      6  C   UNL     1      47.204   5.997  13.936  0.00  0.00    +0.000 A 
ENDROOT
BRANCH   5   7
ATOM      7  C   UNL     1      45.591   4.896  12.349  0.00  0.00    +0.000 A 
ATOM      8  C   UNL     1      44.587   4.485  13.230  0.00  0.00    +0.000 A 
ATOM      9  N   UNL     1      43.670   3.519  12.977  0.00  0.00    +0.000 NA
ATOM     10  C   UNL     1      43.734   2.921  11.769  0.00  0.00    +0.000 A 
ATOM     11  C   UNL     1      44.681   3.233  10.808  0.00  0.00    +0.000 A 
ATOM     12  C   UNL     1      45.622   4.230  11.116  0.00  0.00    +0.000 A 
BRANCH  11  13
ATOM     13  C   UNL     1      44.685   2.537   9.484  0.00  0.00    +0.000 C 
ATOM     14  F   UNL     1      43.995   1.361   9.481  0.00  0.00    +0.000 F 
ATOM     15  F   UNL     1      44.130   3.293   8.497  0.00  0.00    +0.000 F 
ATOM     16  F   UNL     1      45.941   2.231   9.058  0.00  0.00    +0.000 F 
ENDBRANCH  11  13
ENDBRANCH   5   7
BRANCH   1  17
ATOM     17  C   UNL     1      48.849   6.995  15.595  0.00  0.00    +0.000 C 
BRANCH  17  18
ATOM     18  N   UNL     1      48.266   5.983  16.474  0.00  0.00    +0.000 N 
ATOM     19  H   UNL     1      47.418   5.593  16.080  0.00  0.00    +0.000 HD
BRANCH  18  26
ATOM     20  C   UNL     1      47.232   3.285  16.912  0.00  0.00    +0.000 C 
ATOM     21  C   UNL     1      48.679   3.655  17.065  0.00  0.00    +0.000 A 
ATOM     22  C   UNL     1      49.590   2.665  17.471  0.00  0.00    +0.000 A 
ATOM     23  C   UNL     1      50.943   2.966  17.634  0.00  0.00    +0.000 A 
ATOM     24  C   UNL     1      51.322   4.268  17.374  0.00  0.00    +0.000 A 
ATOM     25  N   UNL     1      50.467   5.250  16.983  0.00  0.00    +0.000 NA
ATOM     26  C   UNL     1      49.158   4.951  16.823  0.00  0.00    +0.000 A 
BRANCH  23  27
ATOM     27  C   UNL     1      51.873   1.897  18.073  0.00  0.00    +0.000 C 
ATOM     28  N   UNL     1      51.526   0.589  17.872  0.00  0.00    +0.000 N 
ATOM     29  O   UNL     1      52.942   2.169  18.605  0.00  0.00    +0.000 OA
ATOM     30  H   UNL     1      50.697   0.254  17.418  0.00  0.00    +0.000 HD
ATOM     31  H   UNL     1      52.208  -0.102  18.173  0.00  0.00    +0.000 HD
ENDBRANCH  23  27
ENDBRANCH  18  26
ENDBRANCH  17  18
ENDBRANCH   1  17
TORSDOF 6
ENDMDL
MODEL 4
REMARK VINA RESULT:    -8.061      4.603      8.508
REMARK INTER + INTRA:         -11.322
REMARK INTER:                 -10.215
REMARK INTRA:                  -1.106
REMARK UNBOUND:                -0.433
REMARK  Name = 
REMARK  7 active torsions:
REMARK  status: ('A' for Active; 'I' for Inactive)
REMARK    1  A    between atoms: C_1  and  C_2
REMARK    2  A    between atoms: C_4  and  C_5
REMARK    3  A    between atoms: C_10  and  N_11
REMARK    4  A    between atoms: N_11  and  C_12
REMARK    5  A    between atoms: C_12  and  C_13
REMARK    6  A    between atoms: C_17  and  C_18
REMARK    7  A    between atoms: C_22  and  C_23
REMARK                            x       y       z     vdW  Elec       q    Type
REMARK                         _______ _______ _______ _____ _____    ______ ____
ROOT
ATOM      1  C   UNL     1      46.770   7.976  13.107  0.00  0.00    +0.000 A 
ATOM      2  C   UNL     1      46.034   9.140  12.858  0.00  0.00    +0.000 A 
ATOM      3  C   UNL     1      44.938   9.110  11.998  0.00  0.00    +0.000 A 
ATOM      4  C   UNL     1      44.579   7.919  11.363  0.00  0.00    +0.000 A 
ATOM      5  C   UNL     1      45.311   6.735  11.560  0.00  0.00    +0.000 A 
ATOM      6  C   UNL     1      46.403   6.787  12.450  0.00  0.00    +0.000 A 
ENDROOT
BRANCH   5   7
ATOM      7  C   UNL     1      44.970   5.497  10.832  0.00  0.00    +0.000 A 
ATOM      8  C   UNL     1      43.889   4.696  11.213  0.00  0.00    +0.000 A 
ATOM      9  N   UNL     1      43.496   3.562  10.584  0.00  0.00    +0.000 NA
ATOM     10  C   UNL     1      44.205   3.191   9.497  0.00  0.00    +0.000 A 
ATOM     11  C   UNL     1      45.298   3.894   9.018  0.00  0.00    +0.000 A 
ATOM     12  C   UNL     1      45.681   5.057   9.708  0.00  0.00    +0.000 A 
BRANCH  11  13
ATOM     13  C   UNL     1      46.031   3.431   7.799  0.00  0.00    +0.000 C 
ATOM     14  F   UNL     1      47.027   4.273   7.405  0.00  0.00    +0.000 F 
ATOM     15  F   UNL     1      46.620   2.217   7.976  0.00  0.00    +0.000 F 
ATOM     16  F   UNL     1      45.213   3.294   6.719  0.00  0.00    +0.000 F 
ENDBRANCH  11  13
ENDBRANCH   5   7
BRANCH   1  17
ATOM     17  C   UNL     1      47.945   8.003  14.061  0.00  0.00    +0.000 C 
BRANCH  17  18
ATOM     18  N   UNL     1      48.479   6.656  14.245  0.00  0.00    +0.000 N 
ATOM     19  H   UNL     1      49.415   6.572  13.866  0.00  0.00    +0.000 HD
BRANCH  18  26
ATOM     20  C   UNL     1      47.124   4.151  14.900  0.00  0.00    +0.000 C 
ATOM     21  C   UNL     1      47.787   5.029  15.922  0.00  0.00    +0.000 A 
ATOM     22  C   UNL     1      47.732   4.650  17.275  0.00  0.00    +0.000 A 
ATOM     23  C   UNL     1      48.327   5.440  18.259  0.00  0.00    +0.000 A 
ATOM     24  C   UNL     1      48.962   6.589  17.830  0.00  0.00    +0.000 A 
ATOM     25  N   UNL     1      49.031   6.986  16.532  0.00  0.00    +0.000 NA
ATOM     26  C   UNL     1      48.456   6.214  15.582  0.00  0.00    +0.000 A 
BRANCH  23  27
ATOM     27  C   UNL     1      48.240   5.014  19.677  0.00  0.00    +0.000 C 
ATOM     28  N   UNL     1      48.536   3.719  20.002  0.00  0.00    +0.000 N 
ATOM     29  O   UNL     1      47.913   5.803  20.556  0.00  0.00    +0.000 OA
ATOM     30  H   UNL     1      48.846   3.000  19.373  0.00  0.00    +0.000 HD
ATOM     31  H   UNL     1      48.480   3.484  20.990  0.00  0.00    +0.000 HD
ENDBRANCH  23  27
ENDBRANCH  18  26
ENDBRANCH  17  18
ENDBRANCH   1  17
TORSDOF 6
ENDMDL
MODEL 5
REMARK VINA RESULT:    -7.992      4.699      8.121
REMARK INTER + INTRA:         -11.228
REMARK INTER:                 -10.130
REMARK INTRA:                  -1.098
REMARK UNBOUND:                -0.433
REMARK  Name = 
REMARK  7 active torsions:
REMARK  status: ('A' for Active; 'I' for Inactive)
REMARK    1  A    between atoms: C_1  and  C_2
REMARK    2  A    between atoms: C_4  and  C_5
REMARK    3  A    between atoms: C_10  and  N_11
REMARK    4  A    between atoms: N_11  and  C_12
REMARK    5  A    between atoms: C_12  and  C_13
REMARK    6  A    between atoms: C_17  and  C_18
REMARK    7  A    between atoms: C_22  and  C_23
REMARK                            x       y       z     vdW  Elec       q    Type
REMARK                         _______ _______ _______ _____ _____    ______ ____
ROOT
ATOM      1  C   UNL     1      49.144   7.095  15.221  0.00  0.00    +0.000 A 
ATOM      2  C   UNL     1      49.841   7.849  14.269  0.00  0.00    +0.000 A 
ATOM      3  C   UNL     1      49.478   7.792  12.924  0.00  0.00    +0.000 A 
ATOM      4  C   UNL     1      48.429   6.966  12.517  0.00  0.00    +0.000 A 
ATOM      5  C   UNL     1      47.725   6.169  13.436  0.00  0.00    +0.000 A 
ATOM      6  C   UNL     1      48.097   6.259  14.793  0.00  0.00    +0.000 A 
ENDROOT
BRANCH   5   7
ATOM      7  C   UNL     1      46.664   5.245  12.989  0.00  0.00    +0.000 A 
ATOM      8  C   UNL     1      46.676   3.891  13.335  0.00  0.00    +0.000 A 
ATOM      9  N   UNL     1      45.728   2.986  12.988  0.00  0.00    +0.000 NA
ATOM     10  C   UNL     1      44.688   3.443  12.258  0.00  0.00    +0.000 A 
ATOM     11  C   UNL     1      44.559   4.760  11.849  0.00  0.00    +0.000 A 
ATOM     12  C   UNL     1      45.570   5.662  12.218  0.00  0.00    +0.000 A 
BRANCH  11  13
ATOM     13  C   UNL     1      43.372   5.199  11.052  0.00  0.00    +0.000 C 
ATOM     14  F   UNL     1      43.411   4.807   9.747  0.00  0.00    +0.000 F 
ATOM     15  F   UNL     1      42.202   4.711  11.549  0.00  0.00    +0.000 F 
ATOM     16  F   UNL     1      43.230   6.553  11.028  0.00  0.00    +0.000 F 
ENDBRANCH  11  13
ENDBRANCH   5   7
BRANCH   1  17
ATOM     17  C   UNL     1      49.522   7.177  16.685  0.00  0.00    +0.000 C 
BRANCH  17  18
ATOM     18  N   UNL     1      48.932   6.061  17.423  0.00  0.00    +0.000 N 
ATOM     19  H   UNL     1      48.007   5.835  17.077  0.00  0.00    +0.000 HD
BRANCH  18  26
ATOM     20  C   UNL     1      47.665   3.431  17.296  0.00  0.00    +0.000 C 
ATOM     21  C   UNL     1      49.148   3.634  17.414  0.00  0.00    +0.000 A 
ATOM     22  C   UNL     1      49.979   2.504  17.500  0.00  0.00    +0.000 A 
ATOM     23  C   UNL     1      51.363   2.646  17.619  0.00  0.00    +0.000 A 
ATOM     24  C   UNL     1      51.852   3.937  17.642  0.00  0.00    +0.000 A 
ATOM     25  N   UNL     1      51.077   5.051  17.565  0.00  0.00    +0.000 NA
ATOM     26  C   UNL     1      49.738   4.907  17.445  0.00  0.00    +0.000 A 
BRANCH  23  27
ATOM     27  C   UNL     1      52.208   1.431  17.716  0.00  0.00    +0.000 C 
ATOM     28  N   UNL     1      51.629   0.245  18.078  0.00  0.00    +0.000 N 
ATOM     29  O   UNL     1      53.408   1.474  17.476  0.00  0.00    +0.000 OA
ATOM     30  H   UNL     1      50.656   0.086  18.263  0.00  0.00    +0.000 HD
ATOM     31  H   UNL     1      52.249  -0.561  18.110  0.00  0.00    +0.000 HD
ENDBRANCH  23  27
ENDBRANCH  18  26
ENDBRANCH  17  18
ENDBRANCH   1  17
TORSDOF 6
ENDMDL
MODEL 6
REMARK VINA RESULT:    -7.889      1.652      2.186
REMARK INTER + INTRA:         -11.089
REMARK INTER:                 -10.182
REMARK INTRA:                  -0.906
REMARK UNBOUND:                -0.433
REMARK  Name = 
REMARK  7 active torsions:
REMARK  status: ('A' for Active; 'I' for Inactive)
REMARK    1  A    between atoms: C_1  and  C_2
REMARK    2  A    between atoms: C_4  and  C_5
REMARK    3  A    between atoms: C_10  and  N_11
REMARK    4  A    between atoms: N_11  and  C_12
REMARK    5  A    between atoms: C_12  and  C_13
REMARK    6  A    between atoms: C_17  and  C_18
REMARK    7  A    between atoms: C_22  and  C_23
REMARK                            x       y       z     vdW  Elec       q    Type
REMARK                         _______ _______ _______ _____ _____    ______ ____
ROOT
ATOM      1  C   UNL     1      46.370   6.609  11.783  0.00  0.00    +0.000 A 
ATOM      2  C   UNL     1      47.489   7.326  11.344  0.00  0.00    +0.000 A 
ATOM      3  C   UNL     1      48.655   7.347  12.107  0.00  0.00    +0.000 A 
ATOM      4  C   UNL     1      48.706   6.668  13.326  0.00  0.00    +0.000 A 
ATOM      5  C   UNL     1      47.594   5.962  13.818  0.00  0.00    +0.000 A 
ATOM      6  C   UNL     1      46.433   5.939  13.018  0.00  0.00    +0.000 A 
ENDROOT
BRANCH   5   7
ATOM      7  C   UNL     1      47.631   5.304  15.139  0.00  0.00    +0.000 A 
ATOM      8  C   UNL     1      46.994   4.081  15.367  0.00  0.00    +0.000 A 
ATOM      9  N   UNL     1      47.002   3.401  16.540  0.00  0.00    +0.000 NA
ATOM     10  C   UNL     1      47.694   3.954  17.559  0.00  0.00    +0.000 A 
ATOM     11  C   UNL     1      48.365   5.162  17.464  0.00  0.00    +0.000 A 
ATOM     12  C   UNL     1      48.319   5.841  16.235  0.00  0.00    +0.000 A 
BRANCH  11  13
ATOM     13  C   UNL     1      49.122   5.709  18.632  0.00  0.00    +0.000 C 
ATOM     14  F   UNL     1      50.311   6.283  18.295  0.00  0.00    +0.000 F 
ATOM     15  F   UNL     1      48.425   6.669  19.300  0.00  0.00    +0.000 F 
ATOM     16  F   UNL     1      49.420   4.754  19.556  0.00  0.00    +0.000 F 
ENDBRANCH  11  13
ENDBRANCH   5   7
BRANCH   1  17
ATOM     17  C   UNL     1      45.112   6.565  10.940  0.00  0.00    +0.000 C 
BRANCH  17  18
ATOM     18  N   UNL     1      44.621   5.193  10.836  0.00  0.00    +0.000 N 
ATOM     19  H   UNL     1      43.607   5.161  10.828  0.00  0.00    +0.000 HD
BRANCH  18  26
ATOM     20  C   UNL     1      44.150   2.316  10.632  0.00  0.00    +0.000 C 
ATOM     21  C   UNL     1      44.948   3.100   9.631  0.00  0.00    +0.000 A 
ATOM     22  C   UNL     1      45.531   2.418   8.549  0.00  0.00    +0.000 A 
ATOM     23  C   UNL     1      46.288   3.106   7.599  0.00  0.00    +0.000 A 
ATOM     24  C   UNL     1      46.421   4.468   7.783  0.00  0.00    +0.000 A 
ATOM     25  N   UNL     1      45.874   5.158   8.819  0.00  0.00    +0.000 NA
ATOM     26  C   UNL     1      45.138   4.487   9.734  0.00  0.00    +0.000 A 
BRANCH  23  27
ATOM     27  C   UNL     1      46.896   2.352   6.476  0.00  0.00    +0.000 C 
ATOM     28  N   UNL     1      47.165   3.005   5.305  0.00  0.00    +0.000 N 
ATOM     29  O   UNL     1      47.161   1.161   6.584  0.00  0.00    +0.000 OA
ATOM     30  H   UNL     1      47.023   3.981   5.117  0.00  0.00    +0.000 HD
ATOM     31  H   UNL     1      47.600   2.447   4.574  0.00  0.00    +0.000 HD
ENDBRANCH  23  27
ENDBRANCH  18  26
ENDBRANCH  17  18
ENDBRANCH   1  17
TORSDOF 6
ENDMDL
MODEL 7
REMARK VINA RESULT:    -7.864      4.777      8.324
REMARK INTER + INTRA:         -11.055
REMARK INTER:                 -10.649
REMARK INTRA:                  -0.406
REMARK UNBOUND:                -0.433
REMARK  Name = 
REMARK  7 active torsions:
REMARK  status: ('A' for Active; 'I' for Inactive)
REMARK    1  A    between atoms: C_1  and  C_2
REMARK    2  A    between atoms: C_4  and  C_5
REMARK    3  A    between atoms: C_10  and  N_11
REMARK    4  A    between atoms: N_11  and  C_12
REMARK    5  A    between atoms: C_12  and  C_13
REMARK    6  A    between atoms: C_17  and  C_18
REMARK    7  A    between atoms: C_22  and  C_23
REMARK                            x       y       z     vdW  Elec       q    Type
REMARK                         _______ _______ _______ _____ _____    ______ ____
ROOT
ATOM      1  C   UNL     1      45.390   6.571  11.581  0.00  0.00    +0.000 A 
ATOM      2  C   UNL     1      44.020   6.722  11.829  0.00  0.00    +0.000 A 
ATOM      3  C   UNL     1      43.102   5.833  11.274  0.00  0.00    +0.000 A 
ATOM      4  C   UNL     1      43.543   4.796  10.450  0.00  0.00    +0.000 A 
ATOM      5  C   UNL     1      44.905   4.628  10.149  0.00  0.00    +0.000 A 
ATOM      6  C   UNL     1      45.816   5.528  10.739  0.00  0.00    +0.000 A 
ENDROOT
BRANCH   5   7
ATOM      7  C   UNL     1      45.358   3.572   9.222  0.00  0.00    +0.000 A 
ATOM      8  C   UNL     1      45.222   2.216   9.532  0.00  0.00    +0.000 A 
ATOM      9  N   UNL     1      45.587   1.188   8.726  0.00  0.00    +0.000 NA
ATOM     10  C   UNL     1      46.114   1.514   7.527  0.00  0.00    +0.000 A 
ATOM     11  C   UNL     1      46.305   2.817   7.101  0.00  0.00    +0.000 A 
ATOM     12  C   UNL     1      45.926   3.852   7.972  0.00  0.00    +0.000 A 
BRANCH  11  13
ATOM     13  C   UNL     1      46.884   3.104   5.751  0.00  0.00    +0.000 C 
ATOM     14  F   UNL     1      46.183   2.547   4.725  0.00  0.00    +0.000 F 
ATOM     15  F   UNL     1      46.939   4.437   5.481  0.00  0.00    +0.000 F 
ATOM     16  F   UNL     1      48.159   2.645   5.622  0.00  0.00    +0.000 F 
ENDBRANCH  11  13
ENDBRANCH   5   7
BRANCH   1  17
ATOM     17  C   UNL     1      46.389   7.521  12.205  0.00  0.00    +0.000 C 
BRANCH  17  18
ATOM     18  N   UNL     1      47.644   6.826  12.483  0.00  0.00    +0.000 N 
ATOM     19  H   UNL     1      48.424   7.471  12.530  0.00  0.00    +0.000 HD
BRANCH  18  26
ATOM     20  C   UNL     1      48.890   7.803  14.939  0.00  0.00    +0.000 C 
ATOM     21  C   UNL     1      48.222   6.464  14.823  0.00  0.00    +0.000 A 
ATOM     22  C   UNL     1      48.216   5.613  15.942  0.00  0.00    +0.000 A 
ATOM     23  C   UNL     1      47.613   4.356  15.877  0.00  0.00    +0.000 A 
ATOM     24  C   UNL     1      47.032   4.011  14.672  0.00  0.00    +0.000 A 
ATOM     25  N   UNL     1      47.023   4.807  13.571  0.00  0.00    +0.000 NA
ATOM     26  C   UNL     1      47.605   6.026  13.641  0.00  0.00    +0.000 A 
BRANCH  23  27
ATOM     27  C   UNL     1      47.635   3.482  17.074  0.00  0.00    +0.000 C 
ATOM     28  N   UNL     1      48.830   3.225  17.689  0.00  0.00    +0.000 N 
ATOM     29  O   UNL     1      46.604   2.992  17.519  0.00  0.00    +0.000 OA
ATOM     30  H   UNL     1      49.726   3.597  17.434  0.00  0.00    +0.000 HD
ATOM     31  H   UNL     1      48.786   2.636  18.517  0.00  0.00    +0.000 HD
ENDBRANCH  23  27
ENDBRANCH  18  26
ENDBRANCH  17  18
ENDBRANCH   1  17
TORSDOF 6
ENDMDL
MODEL 8
REMARK VINA RESULT:    -7.755      4.482      8.453
REMARK INTER + INTRA:         -10.908
REMARK INTER:                 -10.066
REMARK INTRA:                  -0.842
REMARK UNBOUND:                -0.433
REMARK  Name = 
REMARK  7 active torsions:
REMARK  status: ('A' for Active; 'I' for Inactive)
REMARK    1  A    between atoms: C_1  and  C_2
REMARK    2  A    between atoms: C_4  and  C_5
REMARK    3  A    between atoms: C_10  and  N_11
REMARK    4  A    between atoms: N_11  and  C_12
REMARK    5  A    between atoms: C_12  and  C_13
REMARK    6  A    between atoms: C_17  and  C_18
REMARK    7  A    between atoms: C_22  and  C_23
REMARK                            x       y       z     vdW  Elec       q    Type
REMARK                         _______ _______ _______ _____ _____    ______ ____
ROOT
ATOM      1  C   UNL     1      46.664   8.133  13.001  0.00  0.00    +0.000 A 
ATOM      2  C   UNL     1      45.907   9.269  12.692  0.00  0.00    +0.000 A 
ATOM      3  C   UNL     1      44.821   9.176  11.823  0.00  0.00    +0.000 A 
ATOM      4  C   UNL     1      44.494   7.951  11.241  0.00  0.00    +0.000 A 
ATOM      5  C   UNL     1      45.248   6.793  11.499  0.00  0.00    +0.000 A 
ATOM      6  C   UNL     1      46.329   6.908  12.397  0.00  0.00    +0.000 A 
ENDROOT
BRANCH   5   7
ATOM      7  C   UNL     1      44.940   5.515  10.826  0.00  0.00    +0.000 A 
ATOM      8  C   UNL     1      43.909   4.682  11.270  0.00  0.00    +0.000 A 
ATOM      9  N   UNL     1      43.547   3.510  10.693  0.00  0.00    +0.000 NA
ATOM     10  C   UNL     1      44.238   3.132   9.597  0.00  0.00    +0.000 A 
ATOM     11  C   UNL     1      45.282   3.865   9.058  0.00  0.00    +0.000 A 
ATOM     12  C   UNL     1      45.634   5.067   9.695  0.00  0.00    +0.000 A 
BRANCH  11  13
ATOM     13  C   UNL     1      45.996   3.391   7.832  0.00  0.00    +0.000 C 
ATOM     14  F   UNL     1      46.996   4.221   7.425  0.00  0.00    +0.000 F 
ATOM     15  F   UNL     1      46.576   2.171   8.007  0.00  0.00    +0.000 F 
ATOM     16  F   UNL     1      45.165   3.258   6.762  0.00  0.00    +0.000 F 
ENDBRANCH  11  13
ENDBRANCH   5   7
BRANCH   1  17
ATOM     17  C   UNL     1      47.828   8.229  13.965  0.00  0.00    +0.000 C 
BRANCH  17  18
ATOM     18  N   UNL     1      48.652   7.025  13.884  0.00  0.00    +0.000 N 
ATOM     19  H   UNL     1      49.542   7.214  13.436  0.00  0.00    +0.000 HD
BRANCH  18  26
ATOM     20  C   UNL     1      50.989   7.744  15.485  0.00  0.00    +0.000 C 
ATOM     21  C   UNL     1      49.988   6.704  15.897  0.00  0.00    +0.000 A 
ATOM     22  C   UNL     1      50.193   6.009  17.102  0.00  0.00    +0.000 A 
ATOM     23  C   UNL     1      49.292   5.028  17.519  0.00  0.00    +0.000 A 
ATOM     24  C   UNL     1      48.210   4.791  16.695  0.00  0.00    +0.000 A 
ATOM     25  N   UNL     1      47.984   5.441  15.523  0.00  0.00    +0.000 NA
ATOM     26  C   UNL     1      48.858   6.394  15.125  0.00  0.00    +0.000 A 
BRANCH  23  27
ATOM     27  C   UNL     1      49.546   4.309  18.792  0.00  0.00    +0.000 C 
ATOM     28  N   UNL     1      48.552   3.540  19.331  0.00  0.00    +0.000 N 
ATOM     29  O   UNL     1      50.627   4.393  19.361  0.00  0.00    +0.000 OA
ATOM     30  H   UNL     1      47.644   3.373  18.936  0.00  0.00    +0.000 HD
ATOM     31  H   UNL     1      48.784   3.053  20.193  0.00  0.00    +0.000 HD
ENDBRANCH  23  27
ENDBRANCH  18  26
ENDBRANCH  17  18
ENDBRANCH   1  17
TORSDOF 6
ENDMDL
MODEL 9
REMARK VINA RESULT:    -7.680      4.716      8.549
REMARK INTER + INTRA:         -10.807
REMARK INTER:                  -9.796
REMARK INTRA:                  -1.011
REMARK UNBOUND:                -0.433
REMARK  Name = 
REMARK  7 active torsions:
REMARK  status: ('A' for Active; 'I' for Inactive)
REMARK    1  A    between atoms: C_1  and  C_2
REMARK    2  A    between atoms: C_4  and  C_5
REMARK    3  A    between atoms: C_10  and  N_11
REMARK    4  A    between atoms: N_11  and  C_12
REMARK    5  A    between atoms: C_12  and  C_13
REMARK    6  A    between atoms: C_17  and  C_18
REMARK    7  A    between atoms: C_22  and  C_23
REMARK                            x       y       z     vdW  Elec       q    Type
REMARK                         _______ _______ _______ _____ _____    ______ ____
ROOT
ATOM      1  C   UNL     1      47.764   7.507  13.409  0.00  0.00    +0.000 A 
ATOM      2  C   UNL     1      47.133   8.746  13.240  0.00  0.00    +0.000 A 
ATOM      3  C   UNL     1      45.830   8.811  12.750  0.00  0.00    +0.000 A 
ATOM      4  C   UNL     1      45.153   7.639  12.406  0.00  0.00    +0.000 A 
ATOM      5  C   UNL     1      45.761   6.378  12.530  0.00  0.00    +0.000 A 
ATOM      6  C   UNL     1      47.072   6.337  13.047  0.00  0.00    +0.000 A 
ENDROOT
BRANCH   5   7
ATOM      7  C   UNL     1      45.065   5.150  12.099  0.00  0.00    +0.000 A 
ATOM      8  C   UNL     1      44.105   4.530  12.903  0.00  0.00    +0.000 A 
ATOM      9  N   UNL     1      43.404   3.418  12.571  0.00  0.00    +0.000 NA
ATOM     10  C   UNL     1      43.656   2.881  11.358  0.00  0.00    +0.000 A 
ATOM     11  C   UNL     1      44.585   3.395  10.469  0.00  0.00    +0.000 A 
ATOM     12  C   UNL     1      45.299   4.540  10.859  0.00  0.00    +0.000 A 
BRANCH  11  13
ATOM     13  C   UNL     1      44.803   2.754   9.135  0.00  0.00    +0.000 C 
ATOM     14  F   UNL     1      46.110   2.714   8.753  0.00  0.00    +0.000 F 
ATOM     15  F   UNL     1      44.369   1.464   9.101  0.00  0.00    +0.000 F 
ATOM     16  F   UNL     1      44.143   3.396   8.133  0.00  0.00    +0.000 F 
ENDBRANCH  11  13
ENDBRANCH   5   7
BRANCH   1  17
ATOM     17  C   UNL     1      49.170   7.436  13.966  0.00  0.00    +0.000 C 
BRANCH  17  18
ATOM     18  N   UNL     1      49.221   8.045  15.293  0.00  0.00    +0.000 N 
ATOM     19  H   UNL     1      48.563   8.811  15.376  0.00  0.00    +0.000 HD
BRANCH  18  26
ATOM     20  C   UNL     1      48.247   9.011  17.873  0.00  0.00    +0.000 C 
ATOM     21  C   UNL     1      48.594   7.576  17.601  0.00  0.00    +0.000 A 
ATOM     22  C   UNL     1      48.477   6.643  18.645  0.00  0.00    +0.000 A 
ATOM     23  C   UNL     1      48.796   5.300  18.439  0.00  0.00    +0.000 A 
ATOM     24  C   UNL     1      49.221   4.953  17.172  0.00  0.00    +0.000 A 
ATOM     25  N   UNL     1      49.349   5.830  16.141  0.00  0.00    +0.000 NA
ATOM     26  C   UNL     1      49.033   7.129  16.345  0.00  0.00    +0.000 A 
BRANCH  23  27
ATOM     27  C   UNL     1      48.669   4.345  19.567  0.00  0.00    +0.000 C 
ATOM     28  N   UNL     1      48.302   3.053  19.308  0.00  0.00    +0.000 N 
ATOM     29  O   UNL     1      48.891   4.696  20.720  0.00  0.00    +0.000 OA
ATOM     30  H   UNL     1      48.131   2.650  18.405  0.00  0.00    +0.000 HD
ATOM     31  H   UNL     1      48.249   2.436  20.114  0.00  0.00    +0.000 HD
ENDBRANCH  23  27
ENDBRANCH  18  26
ENDBRANCH  17  18
ENDBRANCH   1  17
TORSDOF 6
ENDMDL
