MODEL 1
REMARK VINA RESULT:    -8.915      0.000      0.000
REMARK INTER + INTRA:         -12.135
REMARK INTER:                 -11.000
REMARK INTRA:                  -1.135
REMARK UNBOUND:                -1.135
REMARK  Name = 
REMARK  4 active torsions:
REMARK  status: ('A' for Active; 'I' for Inactive)
REMARK    1  A    between atoms: C_2  and  C_4
REMARK    2  A    between atoms: N_8  and  C_9
REMARK    3  A    between atoms: C_9  and  C_10
REMARK    4  A    between atoms: C_15  and  C_16
REMARK                            x       y       z     vdW  Elec       q    Type
REMARK                         _______ _______ _______ _____ _____    ______ ____
ROOT
ATOM      1  C   UNL     1      43.819   4.959  11.368  0.00  0.00    +0.000 C 
ATOM      2  C   UNL     1      42.483   5.199  12.062  0.00  0.00    +0.000 C 
ATOM      3  C   UNL     1      42.948   6.152  11.013  0.00  0.00    +0.000 C 
ENDROOT
BRANCH   1   8
ATOM      4  C   UNL     1      46.500   2.691   7.519  0.00  0.00    +0.000 A 
ATOM      5  C   UNL     1      46.116   4.025   7.635  0.00  0.00    +0.000 A 
ATOM      6  C   UNL     1      45.268   4.403   8.677  0.00  0.00    +0.000 A 
ATOM      7  C   UNL     1      44.813   3.448   9.577  0.00  0.00    +0.000 A 
ATOM      8  N   UNL     1      43.870   3.720  10.573  0.00  0.00    +0.000 N 
ATOM      9  N   UNL     1      45.182   2.151   9.474  0.00  0.00    +0.000 NA
ATOM     10  C   UNL     1      46.006   1.799   8.453  0.00  0.00    +0.000 A 
ATOM     11  H   UNL     1      43.775   2.853  11.099  0.00  0.00    +0.000 HD
BRANCH   4  13
ATOM     12  N   UNL     1      47.547   3.038   5.354  0.00  0.00    +0.000 N 
ATOM     13  C   UNL     1      47.355   2.198   6.416  0.00  0.00    +0.000 C 
ATOM     14  O   UNL     1      47.881   1.098   6.460  0.00  0.00    +0.000 OA
ATOM     15  H   UNL     1      48.184   2.722   4.633  0.00  0.00    +0.000 HD
ATOM     16  H   UNL     1      47.332   4.024   5.388  0.00  0.00    +0.000 HD
ENDBRANCH   4  13
ENDBRANCH   1   8
BRANCH   1  17
ATOM     17  C   UNL     1      45.106   5.233  12.139  0.00  0.00    +0.000 A 
ATOM     18  C   UNL     1      45.586   4.349  13.118  0.00  0.00    +0.000 A 
ATOM     19  C   UNL     1      46.796   4.584  13.765  0.00  0.00    +0.000 A 
ATOM     20  C   UNL     1      47.550   5.711  13.446  0.00  0.00    +0.000 A 
ATOM     21  F   UNL     1      48.708   5.883  14.101  0.00  0.00    +0.000 F 
ATOM     22  C   UNL     1      47.125   6.639  12.482  0.00  0.00    +0.000 A 
ATOM     23  C   UNL     1      45.893   6.368  11.848  0.00  0.00    +0.000 A 
BRANCH  22  24
ATOM     24  C   UNL     1      47.923   7.832  12.117  0.00  0.00    +0.000 A 
ATOM     25  C   UNL     1      49.257   7.747  11.692  0.00  0.00    +0.000 A 
ATOM     26  C   UNL     1      49.974   8.893  11.346  0.00  0.00    +0.000 A 
ATOM     27  C   UNL     1      49.333  10.115  11.418  0.00  0.00    +0.000 A 
ATOM     28  N   UNL     1      48.053  10.261  11.811  0.00  0.00    +0.000 NA
ATOM     29  C   UNL     1      47.392   9.126  12.156  0.00  0.00    +0.000 A 
ENDBRANCH  22  24
ENDBRANCH   1  17
TORSDOF 4
ENDMDL
MODEL 2
REMARK VINA RESULT:    -8.789      1.988      3.706
REMARK INTER + INTRA:         -11.980
REMARK INTER:                 -10.982
REMARK INTRA:                  -0.997
REMARK UNBOUND:                -1.135
REMARK  Name = 
REMARK  4 active torsions:
REMARK  status: ('A' for Active; 'I' for Inactive)
REMARK    1  A    between atoms: C_2  and  C_4
REMARK    2  A    between atoms: N_8  and  C_9
REMARK    3  A    between atoms: C_9  and  C_10
REMARK    4  A    between atoms: C_15  and  C_16
REMARK                            x       y       z     vdW  Elec       q    Type
REMARK                         _______ _______ _______ _____ _____    ______ ____
ROOT
ATOM      1  C   UNL     1      43.905   5.021  11.344  0.00  0.00    +0.000 C 
ATOM      2  C   UNL     1      42.639   5.191  12.176  0.00  0.00    +0.000 C 
ATOM      3  C   UNL     1      42.928   6.151  11.072  0.00  0.00    +0.000 C 
ENDROOT
BRANCH   1   8
ATOM      4  C   UNL     1      46.526   2.726   7.469  0.00  0.00    +0.000 A 
ATOM      5  C   UNL     1      46.135   4.059   7.578  0.00  0.00    +0.000 A 
ATOM      6  C   UNL     1      45.305   4.443   8.631  0.00  0.00    +0.000 A 
ATOM      7  C   UNL     1      44.874   3.496   9.551  0.00  0.00    +0.000 A 
ATOM      8  N   UNL     1      43.950   3.774  10.563  0.00  0.00    +0.000 N 
ATOM      9  N   UNL     1      45.250   2.201   9.456  0.00  0.00    +0.000 NA
ATOM     10  C   UNL     1      46.057   1.842   8.424  0.00  0.00    +0.000 A 
ATOM     11  H   UNL     1      43.871   2.912  11.101  0.00  0.00    +0.000 HD
BRANCH   4  13
ATOM     12  N   UNL     1      47.457   3.019   5.244  0.00  0.00    +0.000 N 
ATOM     13  C   UNL     1      47.362   2.226   6.355  0.00  0.00    +0.000 C 
ATOM     14  O   UNL     1      47.956   1.164   6.431  0.00  0.00    +0.000 OA
ATOM     15  H   UNL     1      48.081   2.703   4.512  0.00  0.00    +0.000 HD
ATOM     16  H   UNL     1      47.183   3.990   5.237  0.00  0.00    +0.000 HD
ENDBRANCH   4  13
ENDBRANCH   1   8
BRANCH   1  17
ATOM     17  C   UNL     1      45.248   5.389  11.969  0.00  0.00    +0.000 A 
ATOM     18  C   UNL     1      46.038   6.433  11.465  0.00  0.00    +0.000 A 
ATOM     19  C   UNL     1      47.230   6.795  12.088  0.00  0.00    +0.000 A 
ATOM     20  C   UNL     1      47.654   6.117  13.228  0.00  0.00    +0.000 A 
ATOM     21  F   UNL     1      48.809   6.512  13.785  0.00  0.00    +0.000 F 
ATOM     22  C   UNL     1      46.915   5.059  13.780  0.00  0.00    +0.000 A 
ATOM     23  C   UNL     1      45.714   4.719  13.121  0.00  0.00    +0.000 A 
BRANCH  22  24
ATOM     24  C   UNL     1      47.342   4.339  15.002  0.00  0.00    +0.000 A 
ATOM     25  C   UNL     1      47.161   4.867  16.289  0.00  0.00    +0.000 A 
ATOM     26  C   UNL     1      47.567   4.155  17.419  0.00  0.00    +0.000 A 
ATOM     27  C   UNL     1      48.139   2.909  17.240  0.00  0.00    +0.000 A 
ATOM     28  N   UNL     1      48.331   2.347  16.031  0.00  0.00    +0.000 NA
ATOM     29  C   UNL     1      47.939   3.076  14.955  0.00  0.00    +0.000 A 
ENDBRANCH  22  24
ENDBRANCH   1  17
TORSDOF 4
ENDMDL
MODEL 3
REMARK VINA RESULT:    -6.954      4.508      8.221
REMARK INTER + INTRA:          -9.715
REMARK INTER:                  -8.624
REMARK INTRA:                  -1.091
REMARK UNBOUND:                -1.135
REMARK  Name = 
REMARK  4 active torsions:
REMARK  status: ('A' for Active; 'I' for Inactive)
REMARK    1  A    between atoms: C_2  and  C_4
REMARK    2  A    between atoms: N_8  and  C_9
REMARK    3  A    between atoms: C_9  and  C_10
REMARK    4  A    between atoms: C_15  and  C_16
REMARK                            x       y       z     vdW  Elec       q    Type
REMARK                         _______ _______ _______ _____ _____    ______ ____
ROOT
ATOM      1  C   UNL     1      49.048   7.943  12.822  0.00  0.00    +0.000 C 
ATOM      2  C   UNL     1      50.052   8.166  11.698  0.00  0.00    +0.000 C 
ATOM      3  C   UNL     1      49.669   9.306  12.578  0.00  0.00    +0.000 C 
ENDROOT
BRANCH   1   8
ATOM      4  C   UNL     1      48.318   6.752  17.842  0.00  0.00    +0.000 A 
ATOM      5  C   UNL     1      48.375   8.013  17.252  0.00  0.00    +0.000 A 
ATOM      6  C   UNL     1      48.730   8.122  15.907  0.00  0.00    +0.000 A 
ATOM      7  C   UNL     1      49.030   6.978  15.178  0.00  0.00    +0.000 A 
ATOM      8  N   UNL     1      49.508   7.010  13.865  0.00  0.00    +0.000 N 
ATOM      9  N   UNL     1      48.975   5.750  15.741  0.00  0.00    +0.000 NA
ATOM     10  C   UNL     1      48.629   5.661  17.051  0.00  0.00    +0.000 A 
ATOM     11  H   UNL     1      49.585   6.034  13.582  0.00  0.00    +0.000 HD
BRANCH   4  13
ATOM     12  N   UNL     1      47.128   5.543  19.582  0.00  0.00    +0.000 N 
ATOM     13  C   UNL     1      47.999   6.552  19.273  0.00  0.00    +0.000 C 
ATOM     14  O   UNL     1      48.504   7.244  20.141  0.00  0.00    +0.000 OA
ATOM     15  H   UNL     1      46.964   5.369  20.566  0.00  0.00    +0.000 HD
ATOM     16  H   UNL     1      46.882   4.812  18.931  0.00  0.00    +0.000 HD
ENDBRANCH   4  13
ENDBRANCH   1   8
BRANCH   1  17
ATOM     17  C   UNL     1      47.575   7.767  12.466  0.00  0.00    +0.000 A 
ATOM     18  C   UNL     1      46.614   8.738  12.789  0.00  0.00    +0.000 A 
ATOM     19  C   UNL     1      45.285   8.590  12.398  0.00  0.00    +0.000 A 
ATOM     20  C   UNL     1      44.893   7.464  11.677  0.00  0.00    +0.000 A 
ATOM     21  F   UNL     1      43.600   7.378  11.327  0.00  0.00    +0.000 F 
ATOM     22  C   UNL     1      45.801   6.453  11.327  0.00  0.00    +0.000 A 
ATOM     23  C   UNL     1      47.138   6.637  11.742  0.00  0.00    +0.000 A 
BRANCH  22  24
ATOM     24  C   UNL     1      45.405   5.259  10.545  0.00  0.00    +0.000 A 
ATOM     25  C   UNL     1      45.686   5.127   9.177  0.00  0.00    +0.000 A 
ATOM     26  C   UNL     1      45.306   3.983   8.475  0.00  0.00    +0.000 A 
ATOM     27  C   UNL     1      44.658   2.975   9.163  0.00  0.00    +0.000 A 
ATOM     28  N   UNL     1      44.367   3.040  10.477  0.00  0.00    +0.000 NA
ATOM     29  C   UNL     1      44.737   4.175  11.123  0.00  0.00    +0.000 A 
ENDBRANCH  22  24
ENDBRANCH   1  17
TORSDOF 4
ENDMDL
MODEL 4
REMARK VINA RESULT:    -6.281      3.633      6.523
REMARK INTER + INTRA:          -8.886
REMARK INTER:                  -7.824
REMARK INTRA:                  -1.061
REMARK UNBOUND:                -1.135
REMARK  Name = 
REMARK  4 active torsions:
REMARK  status: ('A' for Active; 'I' for Inactive)
REMARK    1  A    between atoms: C_2  and  C_4
REMARK    2  A    between atoms: N_8  and  C_9
REMARK    3  A    between atoms: C_9  and  C_10
REMARK    4  A    between atoms: C_15  and  C_16
REMARK                            x       y       z     vdW  Elec       q    Type
REMARK                         _______ _______ _______ _____ _____    ______ ____
ROOT
ATOM      1  C   UNL     1      48.988   8.174  12.689  0.00  0.00    +0.000 C 
ATOM      2  C   UNL     1      50.151   8.933  12.062  0.00  0.00    +0.000 C 
ATOM      3  C   UNL     1      50.084   7.449  11.929  0.00  0.00    +0.000 C 
ENDROOT
BRANCH   1   8
ATOM      4  C   UNL     1      44.340   6.055  11.658  0.00  0.00    +0.000 A 
ATOM      5  C   UNL     1      45.602   5.482  11.516  0.00  0.00    +0.000 A 
ATOM      6  C   UNL     1      46.736   6.273  11.705  0.00  0.00    +0.000 A 
ATOM      7  C   UNL     1      46.595   7.617  12.023  0.00  0.00    +0.000 A 
ATOM      8  N   UNL     1      47.673   8.502  12.111  0.00  0.00    +0.000 N 
ATOM      9  N   UNL     1      45.375   8.182  12.165  0.00  0.00    +0.000 NA
ATOM     10  C   UNL     1      44.280   7.400  11.976  0.00  0.00    +0.000 A 
ATOM     11  H   UNL     1      47.271   9.391  12.406  0.00  0.00    +0.000 HD
BRANCH   4  13
ATOM     12  N   UNL     1      41.915   5.933  11.733  0.00  0.00    +0.000 N 
ATOM     13  C   UNL     1      43.089   5.301  11.426  0.00  0.00    +0.000 C 
ATOM     14  O   UNL     1      43.101   4.172  10.964  0.00  0.00    +0.000 OA
ATOM     15  H   UNL     1      41.060   5.437  11.511  0.00  0.00    +0.000 HD
ATOM     16  H   UNL     1      41.851   6.928  11.887  0.00  0.00    +0.000 HD
ENDBRANCH   4  13
ENDBRANCH   1   8
BRANCH   1  17
ATOM     17  C   UNL     1      48.954   8.005  14.205  0.00  0.00    +0.000 A 
ATOM     18  C   UNL     1      49.066   9.100  15.075  0.00  0.00    +0.000 A 
ATOM     19  C   UNL     1      48.968   8.933  16.454  0.00  0.00    +0.000 A 
ATOM     20  C   UNL     1      48.756   7.664  16.989  0.00  0.00    +0.000 A 
ATOM     21  F   UNL     1      48.668   7.567  18.324  0.00  0.00    +0.000 F 
ATOM     22  C   UNL     1      48.641   6.527  16.176  0.00  0.00    +0.000 A 
ATOM     23  C   UNL     1      48.747   6.734  14.784  0.00  0.00    +0.000 A 
BRANCH  22  24
ATOM     24  C   UNL     1      48.396   5.173  16.727  0.00  0.00    +0.000 A 
ATOM     25  C   UNL     1      49.403   4.418  17.346  0.00  0.00    +0.000 A 
ATOM     26  C   UNL     1      49.132   3.150  17.863  0.00  0.00    +0.000 A 
ATOM     27  C   UNL     1      47.844   2.661  17.762  0.00  0.00    +0.000 A 
ATOM     28  N   UNL     1      46.834   3.341  17.186  0.00  0.00    +0.000 NA
ATOM     29  C   UNL     1      47.138   4.564  16.680  0.00  0.00    +0.000 A 
ENDBRANCH  22  24
ENDBRANCH   1  17
TORSDOF 4
ENDMDL
MODEL 5
REMARK VINA RESULT:    -6.133      5.474      8.483
REMARK INTER + INTRA:          -8.702
REMARK INTER:                  -7.606
REMARK INTRA:                  -1.096
REMARK UNBOUND:                -1.135
REMARK  Name = 
REMARK  4 active torsions:
REMARK  status: ('A' for Active; 'I' for Inactive)
REMARK    1  A    between atoms: C_2  and  C_4
REMARK    2  A    between atoms: N_8  and  C_9
REMARK    3  A    between atoms: C_9  and  C_10
REMARK    4  A    between atoms: C_15  and  C_16
REMARK                            x       y       z     vdW  Elec       q    Type
REMARK                         _______ _______ _______ _____ _____    ______ ____
ROOT
ATOM      1  C   UNL     1      49.012   7.124  17.655  0.00  0.00    +0.000 C 
ATOM      2  C   UNL     1      48.543   8.383  18.376  0.00  0.00    +0.000 C 
ATOM      3  C   UNL     1      47.667   7.176  18.358  0.00  0.00    +0.000 C 
ENDROOT
BRANCH   1   8
ATOM      4  C   UNL     1      51.683   2.651  17.722  0.00  0.00    +0.000 A 
ATOM      5  C   UNL     1      50.302   2.834  17.740  0.00  0.00    +0.000 A 
ATOM      6  C   UNL     1      49.785   4.123  17.869  0.00  0.00    +0.000 A 
ATOM      7  C   UNL     1      50.650   5.204  17.987  0.00  0.00    +0.000 A 
ATOM      8  N   UNL     1      50.216   6.509  18.239  0.00  0.00    +0.000 N 
ATOM      9  N   UNL     1      51.991   5.038  17.969  0.00  0.00    +0.000 NA
ATOM     10  C   UNL     1      52.479   3.776  17.844  0.00  0.00    +0.000 A 
ATOM     11  H   UNL     1      51.058   7.082  18.220  0.00  0.00    +0.000 HD
BRANCH   4  13
ATOM     12  N   UNL     1      51.580   0.253  18.096  0.00  0.00    +0.000 N 
ATOM     13  C   UNL     1      52.312   1.314  17.639  0.00  0.00    +0.000 C 
ATOM     14  O   UNL     1      53.427   1.162  17.167  0.00  0.00    +0.000 OA
ATOM     15  H   UNL     1      51.989  -0.667  17.977  0.00  0.00    +0.000 HD
ATOM     16  H   UNL     1      50.587   0.303  18.266  0.00  0.00    +0.000 HD
ENDBRANCH   4  13
ENDBRANCH   1   8
BRANCH   1  17
ATOM     17  C   UNL     1      49.008   7.108  16.129  0.00  0.00    +0.000 A 
ATOM     18  C   UNL     1      49.976   7.792  15.379  0.00  0.00    +0.000 A 
ATOM     19  C   UNL     1      49.994   7.713  13.988  0.00  0.00    +0.000 A 
ATOM     20  C   UNL     1      49.040   6.947  13.322  0.00  0.00    +0.000 A 
ATOM     21  F   UNL     1      49.109   6.907  11.983  0.00  0.00    +0.000 F 
ATOM     22  C   UNL     1      48.040   6.244  14.012  0.00  0.00    +0.000 A 
ATOM     23  C   UNL     1      48.053   6.349  15.419  0.00  0.00    +0.000 A 
BRANCH  22  24
ATOM     24  C   UNL     1      47.030   5.409  13.321  0.00  0.00    +0.000 A 
ATOM     25  C   UNL     1      46.231   5.901  12.278  0.00  0.00    +0.000 A 
ATOM     26  C   UNL     1      45.296   5.082  11.644  0.00  0.00    +0.000 A 
ATOM     27  C   UNL     1      45.185   3.768  12.058  0.00  0.00    +0.000 A 
ATOM     28  N   UNL     1      45.929   3.237  13.048  0.00  0.00    +0.000 NA
ATOM     29  C   UNL     1      46.816   4.067  13.652  0.00  0.00    +0.000 A 
ENDBRANCH  22  24
ENDBRANCH   1  17
TORSDOF 4
ENDMDL
MODEL 6
REMARK VINA RESULT:    -6.107      3.906      6.028
REMARK INTER + INTRA:          -8.671
REMARK INTER:                  -8.160
REMARK INTRA:                  -0.511
REMARK UNBOUND:                -1.135
REMARK  Name = 
REMARK  4 active torsions:
REMARK  status: ('A' for Active; 'I' for Inactive)
REMARK    1  A    between atoms: C_2  and  C_4
REMARK    2  A    between atoms: N_8  and  C_9
REMARK    3  A    between atoms: C_9  and  C_10
REMARK    4  A    between atoms: C_15  and  C_16
REMARK                            x       y       z     vdW  Elec       q    Type
REMARK                         _______ _______ _______ _____ _____    ______ ____
ROOT
ATOM      1  C   UNL     1      47.984   8.063  13.202  0.00  0.00    +0.000 C 
ATOM      2  C   UNL     1      47.858   9.537  12.834  0.00  0.00    +0.000 C 
ATOM      3  C   UNL     1      48.403   8.573  11.835  0.00  0.00    +0.000 C 
ENDROOT
BRANCH   1   8
ATOM      4  C   UNL     1      44.778   4.460  11.230  0.00  0.00    +0.000 A 
ATOM      5  C   UNL     1      45.506   5.434  10.550  0.00  0.00    +0.000 A 
ATOM      6  C   UNL     1      46.193   6.405  11.279  0.00  0.00    +0.000 A 
ATOM      7  C   UNL     1      46.137   6.394  12.667  0.00  0.00    +0.000 A 
ATOM      8  N   UNL     1      46.697   7.396  13.465  0.00  0.00    +0.000 N 
ATOM      9  N   UNL     1      45.435   5.452  13.336  0.00  0.00    +0.000 NA
ATOM     10  C   UNL     1      44.770   4.514  12.612  0.00  0.00    +0.000 A 
ATOM     11  H   UNL     1      46.544   7.093  14.426  0.00  0.00    +0.000 HD
BRANCH   4  13
ATOM     12  N   UNL     1      44.193   3.276   9.190  0.00  0.00    +0.000 N 
ATOM     13  C   UNL     1      43.980   3.426  10.533  0.00  0.00    +0.000 C 
ATOM     14  O   UNL     1      43.182   2.725  11.133  0.00  0.00    +0.000 OA
ATOM     15  H   UNL     1      43.693   2.524   8.731  0.00  0.00    +0.000 HD
ATOM     16  H   UNL     1      44.996   3.661   8.715  0.00  0.00    +0.000 HD
ENDBRANCH   4  13
ENDBRANCH   1   8
BRANCH   1  17
ATOM     17  C   UNL     1      49.089   7.638  14.164  0.00  0.00    +0.000 A 
ATOM     18  C   UNL     1      50.420   8.044  13.987  0.00  0.00    +0.000 A 
ATOM     19  C   UNL     1      51.404   7.700  14.912  0.00  0.00    +0.000 A 
ATOM     20  C   UNL     1      51.072   6.941  16.031  0.00  0.00    +0.000 A 
ATOM     21  F   UNL     1      52.061   6.642  16.887  0.00  0.00    +0.000 F 
ATOM     22  C   UNL     1      49.762   6.497  16.264  0.00  0.00    +0.000 A 
ATOM     23  C   UNL     1      48.793   6.864  15.306  0.00  0.00    +0.000 A 
BRANCH  22  24
ATOM     24  C   UNL     1      49.387   5.705  17.459  0.00  0.00    +0.000 A 
ATOM     25  C   UNL     1      49.314   4.304  17.442  0.00  0.00    +0.000 A 
ATOM     26  C   UNL     1      48.967   3.591  18.590  0.00  0.00    +0.000 A 
ATOM     27  C   UNL     1      48.712   4.297  19.751  0.00  0.00    +0.000 A 
ATOM     28  N   UNL     1      48.774   5.640  19.831  0.00  0.00    +0.000 NA
ATOM     29  C   UNL     1      49.098   6.301  18.691  0.00  0.00    +0.000 A 
ENDBRANCH  22  24
ENDBRANCH   1  17
TORSDOF 4
ENDMDL
