MODEL 1
REMARK VINA RESULT:    -7.590      0.000      0.000
REMARK INTER + INTRA:         -11.852
REMARK INTER:                 -10.695
REMARK INTRA:                  -1.156
REMARK UNBOUND:                -1.156
REMARK  Name = 
REMARK  7 active torsions:
REMARK  status: ('A' for Active; 'I' for Inactive)
REMARK    1  A    between atoms: C_2  and  C_3
REMARK    2  A    between atoms: C_8  and  C_9
REMARK    3  A    between atoms: N_11  and  C_12
REMARK    4  A    between atoms: C_12  and  C_13
REMARK    5  A    between atoms: C_16  and  C_17
REMARK    6  A    between atoms: C_17  and  N_18
REMARK    7  A    between atoms: C_19  and  C_21
REMARK                            x       y       z     vdW  Elec       q    Type
REMARK                         _______ _______ _______ _____ _____    ______ ____
ROOT
ATOM      1  C   UNL     1      50.287   7.135  15.669  0.00  0.00    +0.000 A 
ATOM      2  C   UNL     1      48.986   6.612  15.637  0.00  0.00    +0.000 A 
ATOM      3  C   UNL     1      48.182   6.764  14.502  0.00  0.00    +0.000 A 
ATOM      4  C   UNL     1      48.668   7.417  13.362  0.00  0.00    +0.000 A 
ATOM      5  C   UNL     1      49.967   7.943  13.395  0.00  0.00    +0.000 A 
ATOM      6  C   UNL     1      50.771   7.797  14.533  0.00  0.00    +0.000 A 
ENDROOT
BRANCH   1   7
ATOM      7  C   UNL     1      51.141   6.986  16.904  0.00  0.00    +0.000 C 
BRANCH   7  10
ATOM      8  C   UNL     1      51.182   4.718  17.870  0.00  0.00    +0.000 C 
ATOM      9  O   UNL     1      50.178   4.924  18.548  0.00  0.00    +0.000 OA
ATOM     10  N   UNL     1      51.714   5.659  17.019  0.00  0.00    +0.000 N 
ATOM     11  H   UNL     1      52.460   5.431  16.376  0.00  0.00    +0.000 HD
BRANCH   8  17
ATOM     12  C   UNL     1      51.315   2.193  17.398  0.00  0.00    +0.000 A 
ATOM     13  C   UNL     1      52.071   1.007  17.462  0.00  0.00    +0.000 A 
ATOM     14  C   UNL     1      53.326   0.992  18.072  0.00  0.00    +0.000 A 
ATOM     15  C   UNL     1      53.838   2.159  18.626  0.00  0.00    +0.000 A 
ATOM     16  C   UNL     1      53.100   3.343  18.559  0.00  0.00    +0.000 A 
ATOM     17  C   UNL     1      51.833   3.377  17.954  0.00  0.00    +0.000 A 
BRANCH  12  19
ATOM     18  N   UNL     1      49.034   2.041  16.180  0.00  0.00    +0.000 NA
ATOM     19  C   UNL     1      50.042   2.130  16.747  0.00  0.00    +0.000 C 
ENDBRANCH  12  19
ENDBRANCH   8  17
ENDBRANCH   7  10
ENDBRANCH   1   7
BRANCH   4  20
ATOM     20  C   UNL     1      47.806   7.576  12.134  0.00  0.00    +0.000 C 
BRANCH  20  21
ATOM     21  N   UNL     1      47.065   6.373  11.842  0.00  0.00    +0.000 N 
ATOM     22  C   UNL     1      45.693   6.372  11.801  0.00  0.00    +0.000 C 
ATOM     23  O   UNL     1      45.037   7.398  11.965  0.00  0.00    +0.000 OA
ATOM     24  H   UNL     1      47.564   5.493  11.927  0.00  0.00    +0.000 HD
BRANCH  22  25
ATOM     25  C   UNL     1      45.043   5.092  11.487  0.00  0.00    +0.000 A 
ATOM     26  C   UNL     1      44.314   4.430  12.467  0.00  0.00    +0.000 A 
ATOM     27  S   UNL     1      43.588   2.986  11.923  0.00  0.00    +0.000 S 
ATOM     28  C   UNL     1      44.264   3.166  10.372  0.00  0.00    +0.000 A 
ATOM     29  N   UNL     1      44.050   2.235   9.403  0.00  0.00    +0.000 NA
ATOM     30  C   UNL     1      44.646   2.482   8.285  0.00  0.00    +0.000 A 
ATOM     31  N   UNL     1      45.432   3.581   8.046  0.00  0.00    +0.000 N 
ATOM     32  C   UNL     1      45.653   4.558   8.984  0.00  0.00    +0.000 A 
ATOM     33  O   UNL     1      46.333   5.547   8.724  0.00  0.00    +0.000 OA
ATOM     34  C   UNL     1      45.017   4.323  10.266  0.00  0.00    +0.000 A 
ATOM     35  H   UNL     1      45.864   3.719   7.145  0.00  0.00    +0.000 HD
ENDBRANCH  22  25
ENDBRANCH  20  21
ENDBRANCH   4  20
TORSDOF 7
ENDMDL
MODEL 2
REMARK VINA RESULT:    -7.427      1.303      1.951
REMARK INTER + INTRA:         -11.623
REMARK INTER:                 -10.518
REMARK INTRA:                  -1.105
REMARK UNBOUND:                -1.156
REMARK  Name = 
REMARK  7 active torsions:
REMARK  status: ('A' for Active; 'I' for Inactive)
REMARK    1  A    between atoms: C_2  and  C_3
REMARK    2  A    between atoms: C_8  and  C_9
REMARK    3  A    between atoms: N_11  and  C_12
REMARK    4  A    between atoms: C_12  and  C_13
REMARK    5  A    between atoms: C_16  and  C_17
REMARK    6  A    between atoms: C_17  and  N_18
REMARK    7  A    between atoms: C_19  and  C_21
REMARK                            x       y       z     vdW  Elec       q    Type
REMARK                         _______ _______ _______ _____ _____    ______ ____
ROOT
ATOM      1  C   UNL     1      50.060   7.088  15.964  0.00  0.00    +0.000 A 
ATOM      2  C   UNL     1      48.839   6.530  15.562  0.00  0.00    +0.000 A 
ATOM      3  C   UNL     1      48.299   6.821  14.304  0.00  0.00    +0.000 A 
ATOM      4  C   UNL     1      48.980   7.656  13.408  0.00  0.00    +0.000 A 
ATOM      5  C   UNL     1      50.199   8.218  13.812  0.00  0.00    +0.000 A 
ATOM      6  C   UNL     1      50.738   7.931  15.072  0.00  0.00    +0.000 A 
ENDROOT
BRANCH   1   7
ATOM      7  C   UNL     1      50.627   6.786  17.330  0.00  0.00    +0.000 C 
BRANCH   7  10
ATOM      8  C   UNL     1      50.922   4.452  18.064  0.00  0.00    +0.000 C 
ATOM      9  O   UNL     1      49.860   4.449  18.682  0.00  0.00    +0.000 OA
ATOM     10  N   UNL     1      51.370   5.542  17.353  0.00  0.00    +0.000 N 
ATOM     11  H   UNL     1      52.177   5.485  16.748  0.00  0.00    +0.000 HD
BRANCH   8  17
ATOM     12  C   UNL     1      51.403   2.014  17.396  0.00  0.00    +0.000 A 
ATOM     13  C   UNL     1      52.310   0.938  17.390  0.00  0.00    +0.000 A 
ATOM     14  C   UNL     1      53.542   1.038  18.037  0.00  0.00    +0.000 A 
ATOM     15  C   UNL     1      53.881   2.212  18.700  0.00  0.00    +0.000 A 
ATOM     16  C   UNL     1      52.992   3.289  18.704  0.00  0.00    +0.000 A 
ATOM     17  C   UNL     1      51.745   3.206  18.061  0.00  0.00    +0.000 A 
BRANCH  12  19
ATOM     18  N   UNL     1      49.144   1.751  16.156  0.00  0.00    +0.000 NA
ATOM     19  C   UNL     1      50.164   1.839  16.701  0.00  0.00    +0.000 C 
ENDBRANCH  12  19
ENDBRANCH   8  17
ENDBRANCH   7  10
ENDBRANCH   1   7
BRANCH   4  20
ATOM     20  C   UNL     1      48.403   7.966  12.049  0.00  0.00    +0.000 C 
BRANCH  20  21
ATOM     21  N   UNL     1      47.674   6.845  11.509  0.00  0.00    +0.000 N 
ATOM     22  C   UNL     1      46.312   6.891  11.345  0.00  0.00    +0.000 C 
ATOM     23  O   UNL     1      45.660   7.899  11.606  0.00  0.00    +0.000 OA
ATOM     24  H   UNL     1      48.148   5.948  11.501  0.00  0.00    +0.000 HD
BRANCH  22  25
ATOM     25  C   UNL     1      45.674   5.694  10.780  0.00  0.00    +0.000 A 
ATOM     26  C   UNL     1      45.775   5.436   9.419  0.00  0.00    +0.000 A 
ATOM     27  S   UNL     1      45.020   3.984   8.938  0.00  0.00    +0.000 S 
ATOM     28  C   UNL     1      44.486   3.673  10.524  0.00  0.00    +0.000 A 
ATOM     29  N   UNL     1      43.742   2.570  10.808  0.00  0.00    +0.000 NA
ATOM     30  C   UNL     1      43.380   2.474  12.043  0.00  0.00    +0.000 A 
ATOM     31  N   UNL     1      43.704   3.378  13.023  0.00  0.00    +0.000 N 
ATOM     32  C   UNL     1      44.475   4.489  12.788  0.00  0.00    +0.000 A 
ATOM     33  O   UNL     1      44.775   5.259  13.697  0.00  0.00    +0.000 OA
ATOM     34  C   UNL     1      44.897   4.654  11.411  0.00  0.00    +0.000 A 
ATOM     35  H   UNL     1      43.396   3.241  13.974  0.00  0.00    +0.000 HD
ENDBRANCH  22  25
ENDBRANCH  20  21
ENDBRANCH   4  20
TORSDOF 7
ENDMDL
MODEL 3
REMARK VINA RESULT:    -7.310      2.903      9.562
REMARK INTER + INTRA:         -11.458
REMARK INTER:                 -10.513
REMARK INTRA:                  -0.945
REMARK UNBOUND:                -1.156
REMARK  Name = 
REMARK  7 active torsions:
REMARK  status: ('A' for Active; 'I' for Inactive)
REMARK    1  A    between atoms: C_2  and  C_3
REMARK    2  A    between atoms: C_8  and  C_9
REMARK    3  A    between atoms: N_11  and  C_12
REMARK    4  A    between atoms: C_12  and  C_13
REMARK    5  A    between atoms: C_16  and  C_17
REMARK    6  A    between atoms: C_17  and  N_18
REMARK    7  A    between atoms: C_19  and  C_21
REMARK                            x       y       z     vdW  Elec       q    Type
REMARK                         _______ _______ _______ _____ _____    ______ ____
ROOT
ATOM      1  C   UNL     1      47.486   5.846  14.478  0.00  0.00    +0.000 A 
ATOM      2  C   UNL     1      46.853   4.614  14.696  0.00  0.00    +0.000 A 
ATOM      3  C   UNL     1      47.133   3.857  15.839  0.00  0.00    +0.000 A 
ATOM      4  C   UNL     1      48.032   4.326  16.806  0.00  0.00    +0.000 A 
ATOM      5  C   UNL     1      48.668   5.556  16.587  0.00  0.00    +0.000 A 
ATOM      6  C   UNL     1      48.393   6.312  15.440  0.00  0.00    +0.000 A 
ENDROOT
BRANCH   1   7
ATOM      7  C   UNL     1      47.195   6.647  13.233  0.00  0.00    +0.000 C 
BRANCH   7  10
ATOM      8  C   UNL     1      45.586   5.643  11.658  0.00  0.00    +0.000 C 
ATOM      9  O   UNL     1      44.633   6.228  12.165  0.00  0.00    +0.000 OA
ATOM     10  N   UNL     1      46.881   5.802  12.097  0.00  0.00    +0.000 N 
ATOM     11  H   UNL     1      47.664   5.416  11.590  0.00  0.00    +0.000 HD
BRANCH   8  17
ATOM     12  C   UNL     1      44.533   3.585  10.530  0.00  0.00    +0.000 A 
ATOM     13  C   UNL     1      44.290   2.872   9.340  0.00  0.00    +0.000 A 
ATOM     14  C   UNL     1      44.833   3.298   8.128  0.00  0.00    +0.000 A 
ATOM     15  C   UNL     1      45.627   4.439   8.090  0.00  0.00    +0.000 A 
ATOM     16  C   UNL     1      45.865   5.159   9.263  0.00  0.00    +0.000 A 
ATOM     17  C   UNL     1      45.330   4.743  10.494  0.00  0.00    +0.000 A 
BRANCH  12  19
ATOM     18  N   UNL     1      43.499   2.687  12.728  0.00  0.00    +0.000 NA
ATOM     19  C   UNL     1      43.931   3.090  11.731  0.00  0.00    +0.000 C 
ENDBRANCH  12  19
ENDBRANCH   8  17
ENDBRANCH   7  10
ENDBRANCH   1   7
BRANCH   4  20
ATOM     20  C   UNL     1      48.330   3.516  18.043  0.00  0.00    +0.000 C 
BRANCH  20  21
ATOM     21  N   UNL     1      49.739   3.240  18.175  0.00  0.00    +0.000 N 
ATOM     22  C   UNL     1      50.367   2.326  17.367  0.00  0.00    +0.000 C 
ATOM     23  O   UNL     1      49.772   1.736  16.468  0.00  0.00    +0.000 OA
ATOM     24  H   UNL     1      50.187   3.539  19.036  0.00  0.00    +0.000 HD
BRANCH  22  25
ATOM     25  C   UNL     1      51.807   2.131  17.586  0.00  0.00    +0.000 A 
ATOM     26  C   UNL     1      52.315   0.846  17.726  0.00  0.00    +0.000 A 
ATOM     27  S   UNL     1      54.008   0.796  17.925  0.00  0.00    +0.000 S 
ATOM     28  C   UNL     1      54.118   2.493  17.884  0.00  0.00    +0.000 A 
ATOM     29  N   UNL     1      55.316   3.120  18.029  0.00  0.00    +0.000 NA
ATOM     30  C   UNL     1      55.250   4.409  18.007  0.00  0.00    +0.000 A 
ATOM     31  N   UNL     1      54.093   5.128  17.847  0.00  0.00    +0.000 N 
ATOM     32  C   UNL     1      52.867   4.538  17.670  0.00  0.00    +0.000 A 
ATOM     33  O   UNL     1      51.855   5.212  17.493  0.00  0.00    +0.000 OA
ATOM     34  C   UNL     1      52.881   3.088  17.700  0.00  0.00    +0.000 A 
ATOM     35  H   UNL     1      54.110   6.136  17.831  0.00  0.00    +0.000 HD
ENDBRANCH  22  25
ENDBRANCH  20  21
ENDBRANCH   4  20
TORSDOF 7
ENDMDL
MODEL 4
REMARK VINA RESULT:    -6.929      2.751      9.083
REMARK INTER + INTRA:         -10.921
REMARK INTER:                  -9.838
REMARK INTRA:                  -1.083
REMARK UNBOUND:                -1.156
REMARK  Name = 
REMARK  7 active torsions:
REMARK  status: ('A' for Active; 'I' for Inactive)
REMARK    1  A    between atoms: C_2  and  C_3
REMARK    2  A    between atoms: C_8  and  C_9
REMARK    3  A    between atoms: N_11  and  C_12
REMARK    4  A    between atoms: C_12  and  C_13
REMARK    5  A    between atoms: C_16  and  C_17
REMARK    6  A    between atoms: C_17  and  N_18
REMARK    7  A    between atoms: C_19  and  C_21
REMARK                            x       y       z     vdW  Elec       q    Type
REMARK                         _______ _______ _______ _____ _____    ______ ____
ROOT
ATOM      1  C   UNL     1      47.029   7.575  13.406  0.00  0.00    +0.000 A 
ATOM      2  C   UNL     1      47.485   8.855  13.748  0.00  0.00    +0.000 A 
ATOM      3  C   UNL     1      48.596   9.021  14.583  0.00  0.00    +0.000 A 
ATOM      4  C   UNL     1      49.294   7.910  15.074  0.00  0.00    +0.000 A 
ATOM      5  C   UNL     1      48.835   6.629  14.736  0.00  0.00    +0.000 A 
ATOM      6  C   UNL     1      47.721   6.462  13.905  0.00  0.00    +0.000 A 
ENDROOT
BRANCH   1   7
ATOM      7  C   UNL     1      45.819   7.405  12.521  0.00  0.00    +0.000 C 
BRANCH   7  10
ATOM      8  C   UNL     1      44.856   5.697  11.028  0.00  0.00    +0.000 C 
ATOM      9  O   UNL     1      43.711   6.105  11.201  0.00  0.00    +0.000 OA
ATOM     10  N   UNL     1      45.955   6.283  11.613  0.00  0.00    +0.000 N 
ATOM     11  H   UNL     1      46.896   6.017  11.360  0.00  0.00    +0.000 HD
BRANCH   8  17
ATOM     12  C   UNL     1      44.612   3.223  10.363  0.00  0.00    +0.000 A 
ATOM     13  C   UNL     1      44.790   2.231   9.380  0.00  0.00    +0.000 A 
ATOM     14  C   UNL     1      45.412   2.529   8.168  0.00  0.00    +0.000 A 
ATOM     15  C   UNL     1      45.866   3.820   7.923  0.00  0.00    +0.000 A 
ATOM     16  C   UNL     1      45.686   4.814   8.888  0.00  0.00    +0.000 A 
ATOM     17  C   UNL     1      45.066   4.532  10.117  0.00  0.00    +0.000 A 
BRANCH  12  19
ATOM     18  N   UNL     1      43.376   2.565  12.541  0.00  0.00    +0.000 NA
ATOM     19  C   UNL     1      43.956   2.842  11.576  0.00  0.00    +0.000 C 
ENDBRANCH  12  19
ENDBRANCH   8  17
ENDBRANCH   7  10
ENDBRANCH   1   7
BRANCH   4  20
ATOM     20  C   UNL     1      50.496   8.085  15.969  0.00  0.00    +0.000 C 
BRANCH  20  21
ATOM     21  N   UNL     1      51.158   6.830  16.228  0.00  0.00    +0.000 N 
ATOM     22  C   UNL     1      51.703   6.550  17.456  0.00  0.00    +0.000 C 
ATOM     23  O   UNL     1      51.613   7.331  18.400  0.00  0.00    +0.000 OA
ATOM     24  H   UNL     1      51.435   6.281  15.420  0.00  0.00    +0.000 HD
BRANCH  22  25
ATOM     25  C   UNL     1      52.347   5.238  17.608  0.00  0.00    +0.000 A 
ATOM     26  C   UNL     1      53.720   5.163  17.808  0.00  0.00    +0.000 A 
ATOM     27  S   UNL     1      54.297   3.571  18.012  0.00  0.00    +0.000 S 
ATOM     28  C   UNL     1      52.741   2.920  17.789  0.00  0.00    +0.000 A 
ATOM     29  N   UNL     1      52.534   1.576  17.819  0.00  0.00    +0.000 NA
ATOM     30  C   UNL     1      51.312   1.219  17.606  0.00  0.00    +0.000 A 
ATOM     31  N   UNL     1      50.275   2.087  17.374  0.00  0.00    +0.000 N 
ATOM     32  C   UNL     1      50.432   3.450  17.363  0.00  0.00    +0.000 A 
ATOM     33  O   UNL     1      49.475   4.201  17.187  0.00  0.00    +0.000 OA
ATOM     34  C   UNL     1      51.791   3.907  17.582  0.00  0.00    +0.000 A 
ATOM     35  H   UNL     1      49.339   1.744  17.222  0.00  0.00    +0.000 HD
ENDBRANCH  22  25
ENDBRANCH  20  21
ENDBRANCH   4  20
TORSDOF 7
ENDMDL
MODEL 5
REMARK VINA RESULT:    -6.874      3.252      8.695
REMARK INTER + INTRA:         -10.842
REMARK INTER:                 -10.554
REMARK INTRA:                  -0.289
REMARK UNBOUND:                -1.156
REMARK  Name = 
REMARK  7 active torsions:
REMARK  status: ('A' for Active; 'I' for Inactive)
REMARK    1  A    between atoms: C_2  and  C_3
REMARK    2  A    between atoms: C_8  and  C_9
REMARK    3  A    between atoms: N_11  and  C_12
REMARK    4  A    between atoms: C_12  and  C_13
REMARK    5  A    between atoms: C_16  and  C_17
REMARK    6  A    between atoms: C_17  and  N_18
REMARK    7  A    between atoms: C_19  and  C_21
REMARK                            x       y       z     vdW  Elec       q    Type
REMARK                         _______ _______ _______ _____ _____    ______ ____
ROOT
ATOM      1  C   UNL     1      44.882   6.438  11.225  0.00  0.00    +0.000 A 
ATOM      2  C   UNL     1      45.826   5.708  11.961  0.00  0.00    +0.000 A 
ATOM      3  C   UNL     1      46.705   6.353  12.838  0.00  0.00    +0.000 A 
ATOM      4  C   UNL     1      46.642   7.741  13.022  0.00  0.00    +0.000 A 
ATOM      5  C   UNL     1      45.701   8.472  12.284  0.00  0.00    +0.000 A 
ATOM      6  C   UNL     1      44.825   7.828  11.401  0.00  0.00    +0.000 A 
ENDROOT
BRANCH   1   7
ATOM      7  C   UNL     1      43.951   5.738  10.266  0.00  0.00    +0.000 C 
BRANCH   7  10
ATOM      8  C   UNL     1      45.550   4.529   8.831  0.00  0.00    +0.000 C 
ATOM      9  O   UNL     1      46.071   5.568   8.434  0.00  0.00    +0.000 OA
ATOM     10  N   UNL     1      44.521   4.511   9.745  0.00  0.00    +0.000 N 
ATOM     11  H   UNL     1      44.192   3.649  10.156  0.00  0.00    +0.000 HD
BRANCH   8  17
ATOM     12  C   UNL     1      45.562   1.963   8.652  0.00  0.00    +0.000 A 
ATOM     13  C   UNL     1      46.088   0.815   8.028  0.00  0.00    +0.000 A 
ATOM     14  C   UNL     1      47.115   0.917   7.091  0.00  0.00    +0.000 A 
ATOM     15  C   UNL     1      47.632   2.167   6.766  0.00  0.00    +0.000 A 
ATOM     16  C   UNL     1      47.110   3.313   7.371  0.00  0.00    +0.000 A 
ATOM     17  C   UNL     1      46.078   3.229   8.321  0.00  0.00    +0.000 A 
BRANCH  12  19
ATOM     18  N   UNL     1      43.679   1.645  10.402  0.00  0.00    +0.000 NA
ATOM     19  C   UNL     1      44.502   1.776   9.594  0.00  0.00    +0.000 C 
ENDBRANCH  12  19
ENDBRANCH   8  17
ENDBRANCH   7  10
ENDBRANCH   1   7
BRANCH   4  20
ATOM     20  C   UNL     1      47.584   8.438  13.973  0.00  0.00    +0.000 C 
BRANCH  20  21
ATOM     21  N   UNL     1      47.896   7.615  15.115  0.00  0.00    +0.000 N 
ATOM     22  C   UNL     1      49.108   6.982  15.228  0.00  0.00    +0.000 C 
ATOM     23  O   UNL     1      49.995   7.120  14.389  0.00  0.00    +0.000 OA
ATOM     24  H   UNL     1      47.118   7.312  15.691  0.00  0.00    +0.000 HD
BRANCH  22  25
ATOM     25  C   UNL     1      49.321   6.174  16.438  0.00  0.00    +0.000 A 
ATOM     26  C   UNL     1      50.338   6.511  17.321  0.00  0.00    +0.000 A 
ATOM     27  S   UNL     1      50.416   5.501  18.694  0.00  0.00    +0.000 S 
ATOM     28  C   UNL     1      49.125   4.546  18.132  0.00  0.00    +0.000 A 
ATOM     29  N   UNL     1      48.692   3.469  18.841  0.00  0.00    +0.000 NA
ATOM     30  C   UNL     1      47.726   2.817  18.284  0.00  0.00    +0.000 A 
ATOM     31  N   UNL     1      47.150   3.150  17.084  0.00  0.00    +0.000 N 
ATOM     32  C   UNL     1      47.536   4.243  16.350  0.00  0.00    +0.000 A 
ATOM     33  O   UNL     1      46.974   4.533  15.296  0.00  0.00    +0.000 OA
ATOM     34  C   UNL     1      48.629   5.004  16.923  0.00  0.00    +0.000 A 
ATOM     35  H   UNL     1      46.392   2.602  16.707  0.00  0.00    +0.000 HD
ENDBRANCH  22  25
ENDBRANCH  20  21
ENDBRANCH   4  20
TORSDOF 7
ENDMDL
MODEL 6
REMARK VINA RESULT:    -6.787      5.736      8.928
REMARK INTER + INTRA:         -10.720
REMARK INTER:                  -9.668
REMARK INTRA:                  -1.052
REMARK UNBOUND:                -1.156
REMARK  Name = 
REMARK  7 active torsions:
REMARK  status: ('A' for Active; 'I' for Inactive)
REMARK    1  A    between atoms: C_2  and  C_3
REMARK    2  A    between atoms: C_8  and  C_9
REMARK    3  A    between atoms: N_11  and  C_12
REMARK    4  A    between atoms: C_12  and  C_13
REMARK    5  A    between atoms: C_16  and  C_17
REMARK    6  A    between atoms: C_17  and  N_18
REMARK    7  A    between atoms: C_19  and  C_21
REMARK                            x       y       z     vdW  Elec       q    Type
REMARK                         _______ _______ _______ _____ _____    ______ ____
ROOT
ATOM      1  C   UNL     1      48.297   8.124  12.188  0.00  0.00    +0.000 A 
ATOM      2  C   UNL     1      49.443   7.355  11.940  0.00  0.00    +0.000 A 
ATOM      3  C   UNL     1      50.611   7.949  11.449  0.00  0.00    +0.000 A 
ATOM      4  C   UNL     1      50.670   9.330  11.220  0.00  0.00    +0.000 A 
ATOM      5  C   UNL     1      49.524  10.098  11.464  0.00  0.00    +0.000 A 
ATOM      6  C   UNL     1      48.352   9.504  11.950  0.00  0.00    +0.000 A 
ENDROOT
BRANCH   1   7
ATOM      7  C   UNL     1      47.035   7.473  12.698  0.00  0.00    +0.000 C 
BRANCH   7  10
ATOM      8  C   UNL     1      45.519   6.220  11.211  0.00  0.00    +0.000 C 
ATOM      9  O   UNL     1      44.734   7.160  11.121  0.00  0.00    +0.000 OA
ATOM     10  N   UNL     1      46.684   6.287  11.942  0.00  0.00    +0.000 N 
ATOM     11  H   UNL     1      47.378   5.554  11.901  0.00  0.00    +0.000 HD
BRANCH   8  17
ATOM     12  C   UNL     1      44.469   3.883  10.987  0.00  0.00    +0.000 A 
ATOM     13  C   UNL     1      44.162   2.790  10.154  0.00  0.00    +0.000 A 
ATOM     14  C   UNL     1      44.586   2.762   8.826  0.00  0.00    +0.000 A 
ATOM     15  C   UNL     1      45.324   3.824   8.314  0.00  0.00    +0.000 A 
ATOM     16  C   UNL     1      45.624   4.918   9.128  0.00  0.00    +0.000 A 
ATOM     17  C   UNL     1      45.210   4.962  10.470  0.00  0.00    +0.000 A 
BRANCH  12  19
ATOM     18  N   UNL     1      43.551   3.839  13.408  0.00  0.00    +0.000 NA
ATOM     19  C   UNL     1      43.989   3.842  12.334  0.00  0.00    +0.000 C 
ENDBRANCH  12  19
ENDBRANCH   8  17
ENDBRANCH   7  10
ENDBRANCH   1   7
BRANCH   4  20
ATOM     20  C   UNL     1      51.931   9.974  10.697  0.00  0.00    +0.000 C 
BRANCH  20  21
ATOM     21  N   UNL     1      52.347   9.394   9.444  0.00  0.00    +0.000 N 
ATOM     22  C   UNL     1      53.544   8.733   9.326  0.00  0.00    +0.000 C 
ATOM     23  O   UNL     1      54.291   8.564  10.287  0.00  0.00    +0.000 OA
ATOM     24  H   UNL     1      51.866   9.710   8.608  0.00  0.00    +0.000 HD
BRANCH  22  25
ATOM     25  C   UNL     1      53.863   8.177   8.004  0.00  0.00    +0.000 A 
ATOM     26  C   UNL     1      54.193   9.029   6.958  0.00  0.00    +0.000 A 
ATOM     27  S   UNL     1      54.581   8.219   5.508  0.00  0.00    +0.000 S 
ATOM     28  C   UNL     1      54.273   6.700   6.211  0.00  0.00    +0.000 A 
ATOM     29  N   UNL     1      54.396   5.556   5.486  0.00  0.00    +0.000 NA
ATOM     30  C   UNL     1      54.104   4.479   6.135  0.00  0.00    +0.000 A 
ATOM     31  N   UNL     1      53.707   4.443   7.447  0.00  0.00    +0.000 N 
ATOM     32  C   UNL     1      53.596   5.568   8.224  0.00  0.00    +0.000 A 
ATOM     33  O   UNL     1      53.272   5.496   9.407  0.00  0.00    +0.000 OA
ATOM     34  C   UNL     1      53.899   6.810   7.540  0.00  0.00    +0.000 A 
ATOM     35  H   UNL     1      53.500   3.565   7.899  0.00  0.00    +0.000 HD
ENDBRANCH  22  25
ENDBRANCH  20  21
ENDBRANCH   4  20
TORSDOF 7
ENDMDL
MODEL 7
REMARK VINA RESULT:    -6.736      2.649      9.004
REMARK INTER + INTRA:         -10.649
REMARK INTER:                  -9.533
REMARK INTRA:                  -1.116
REMARK UNBOUND:                -1.156
REMARK  Name = 
REMARK  7 active torsions:
REMARK  status: ('A' for Active; 'I' for Inactive)
REMARK    1  A    between atoms: C_2  and  C_3
REMARK    2  A    between atoms: C_8  and  C_9
REMARK    3  A    between atoms: N_11  and  C_12
REMARK    4  A    between atoms: C_12  and  C_13
REMARK    5  A    between atoms: C_16  and  C_17
REMARK    6  A    between atoms: C_17  and  N_18
REMARK    7  A    between atoms: C_19  and  C_21
REMARK                            x       y       z     vdW  Elec       q    Type
REMARK                         _______ _______ _______ _____ _____    ______ ____
ROOT
ATOM      1  C   UNL     1      48.348   7.868  13.389  0.00  0.00    +0.000 A 
ATOM      2  C   UNL     1      48.408   6.775  14.264  0.00  0.00    +0.000 A 
ATOM      3  C   UNL     1      49.095   6.868  15.480  0.00  0.00    +0.000 A 
ATOM      4  C   UNL     1      49.715   8.065  15.862  0.00  0.00    +0.000 A 
ATOM      5  C   UNL     1      49.659   9.157  14.984  0.00  0.00    +0.000 A 
ATOM      6  C   UNL     1      48.977   9.063  13.765  0.00  0.00    +0.000 A 
ENDROOT
BRANCH   1   7
ATOM      7  C   UNL     1      47.623   7.753  12.070  0.00  0.00    +0.000 C 
BRANCH   7  10
ATOM      8  C   UNL     1      45.504   6.561  11.664  0.00  0.00    +0.000 C 
ATOM      9  O   UNL     1      44.900   7.600  11.409  0.00  0.00    +0.000 OA
ATOM     10  N   UNL     1      46.844   6.534  11.976  0.00  0.00    +0.000 N 
ATOM     11  H   UNL     1      47.352   5.665  12.056  0.00  0.00    +0.000 HD
BRANCH   8  17
ATOM     12  C   UNL     1      44.760   4.388  10.506  0.00  0.00    +0.000 A 
ATOM     13  C   UNL     1      44.090   3.154  10.607  0.00  0.00    +0.000 A 
ATOM     14  C   UNL     1      43.420   2.797  11.777  0.00  0.00    +0.000 A 
ATOM     15  C   UNL     1      43.409   3.670  12.859  0.00  0.00    +0.000 A 
ATOM     16  C   UNL     1      44.080   4.892  12.774  0.00  0.00    +0.000 A 
ATOM     17  C   UNL     1      44.756   5.270  11.601  0.00  0.00    +0.000 A 
BRANCH  12  19
ATOM     18  N   UNL     1      46.020   4.939   8.311  0.00  0.00    +0.000 NA
ATOM     19  C   UNL     1      45.433   4.676   9.276  0.00  0.00    +0.000 C 
ENDBRANCH  12  19
ENDBRANCH   8  17
ENDBRANCH   7  10
ENDBRANCH   1   7
BRANCH   4  20
ATOM     20  C   UNL     1      50.450   8.171  17.175  0.00  0.00    +0.000 C 
BRANCH  20  21
ATOM     21  N   UNL     1      51.235   6.991  17.445  0.00  0.00    +0.000 N 
ATOM     22  C   UNL     1      50.908   6.136  18.468  0.00  0.00    +0.000 C 
ATOM     23  O   UNL     1      49.913   6.309  19.167  0.00  0.00    +0.000 OA
ATOM     24  H   UNL     1      52.164   6.952  17.038  0.00  0.00    +0.000 HD
BRANCH  22  25
ATOM     25  C   UNL     1      51.773   4.962  18.648  0.00  0.00    +0.000 A 
ATOM     26  C   UNL     1      52.947   5.076  19.382  0.00  0.00    +0.000 A 
ATOM     27  S   UNL     1      53.807   3.610  19.533  0.00  0.00    +0.000 S 
ATOM     28  C   UNL     1      52.668   2.781  18.580  0.00  0.00    +0.000 A 
ATOM     29  N   UNL     1      52.825   1.461  18.293  0.00  0.00    +0.000 NA
ATOM     30  C   UNL     1      51.904   0.965  17.536  0.00  0.00    +0.000 A 
ATOM     31  N   UNL     1      50.834   1.671  17.047  0.00  0.00    +0.000 N 
ATOM     32  C   UNL     1      50.620   2.995  17.333  0.00  0.00    +0.000 A 
ATOM     33  O   UNL     1      49.631   3.588  16.907  0.00  0.00    +0.000 OA
ATOM     34  C   UNL     1      51.635   3.607  18.169  0.00  0.00    +0.000 A 
ATOM     35  H   UNL     1      50.142   1.222  16.466  0.00  0.00    +0.000 HD
ENDBRANCH  22  25
ENDBRANCH  20  21
ENDBRANCH   4  20
TORSDOF 7
ENDMDL
MODEL 8
REMARK VINA RESULT:    -6.619      5.938      8.892
REMARK INTER + INTRA:         -10.483
REMARK INTER:                  -9.375
REMARK INTRA:                  -1.108
REMARK UNBOUND:                -1.156
REMARK  Name = 
REMARK  7 active torsions:
REMARK  status: ('A' for Active; 'I' for Inactive)
REMARK    1  A    between atoms: C_2  and  C_3
REMARK    2  A    between atoms: C_8  and  C_9
REMARK    3  A    between atoms: N_11  and  C_12
REMARK    4  A    between atoms: C_12  and  C_13
REMARK    5  A    between atoms: C_16  and  C_17
REMARK    6  A    between atoms: C_17  and  N_18
REMARK    7  A    between atoms: C_19  and  C_21
REMARK                            x       y       z     vdW  Elec       q    Type
REMARK                         _______ _______ _______ _____ _____    ______ ____
ROOT
ATOM      1  C   UNL     1      47.972   8.820  12.063  0.00  0.00    +0.000 A 
ATOM      2  C   UNL     1      48.612  10.065  12.000  0.00  0.00    +0.000 A 
ATOM      3  C   UNL     1      49.967  10.157  11.661  0.00  0.00    +0.000 A 
ATOM      4  C   UNL     1      50.707   9.009  11.350  0.00  0.00    +0.000 A 
ATOM      5  C   UNL     1      50.068   7.763  11.417  0.00  0.00    +0.000 A 
ATOM      6  C   UNL     1      48.713   7.669  11.761  0.00  0.00    +0.000 A 
ENDROOT
BRANCH   1   7
ATOM      7  C   UNL     1      46.516   8.727  12.449  0.00  0.00    +0.000 C 
BRANCH   7  10
ATOM      8  C   UNL     1      44.895   7.034  11.686  0.00  0.00    +0.000 C 
ATOM      9  O   UNL     1      44.269   7.849  11.014  0.00  0.00    +0.000 OA
ATOM     10  N   UNL     1      46.022   7.365  12.404  0.00  0.00    +0.000 N 
ATOM     11  H   UNL     1      46.596   6.660  12.844  0.00  0.00    +0.000 HD
BRANCH   8  17
ATOM     12  C   UNL     1      44.719   4.663  10.703  0.00  0.00    +0.000 A 
ATOM     13  C   UNL     1      44.302   3.330  10.877  0.00  0.00    +0.000 A 
ATOM     14  C   UNL     1      43.601   2.943  12.019  0.00  0.00    +0.000 A 
ATOM     15  C   UNL     1      43.308   3.883  13.001  0.00  0.00    +0.000 A 
ATOM     16  C   UNL     1      43.727   5.206  12.843  0.00  0.00    +0.000 A 
ATOM     17  C   UNL     1      44.429   5.615  11.697  0.00  0.00    +0.000 A 
BRANCH  12  19
ATOM     18  N   UNL     1      46.054   5.181   8.545  0.00  0.00    +0.000 NA
ATOM     19  C   UNL     1      45.442   4.979   9.509  0.00  0.00    +0.000 C 
ENDBRANCH  12  19
ENDBRANCH   8  17
ENDBRANCH   7  10
ENDBRANCH   1   7
BRANCH   4  20
ATOM     20  C   UNL     1      52.165   9.106  10.978  0.00  0.00    +0.000 C 
BRANCH  20  21
ATOM     21  N   UNL     1      52.435   8.483   9.705  0.00  0.00    +0.000 N 
ATOM     22  C   UNL     1      53.631   8.670   9.058  0.00  0.00    +0.000 C 
ATOM     23  O   UNL     1      54.539   9.334   9.551  0.00  0.00    +0.000 OA
ATOM     24  H   UNL     1      51.637   8.127   9.188  0.00  0.00    +0.000 HD
BRANCH  22  25
ATOM     25  C   UNL     1      53.799   7.982   7.770  0.00  0.00    +0.000 A 
ATOM     26  C   UNL     1      53.932   8.725   6.604  0.00  0.00    +0.000 A 
ATOM     27  S   UNL     1      54.166   7.773   5.208  0.00  0.00    +0.000 S 
ATOM     28  C   UNL     1      54.047   6.332   6.104  0.00  0.00    +0.000 A 
ATOM     29  N   UNL     1      54.137   5.119   5.494  0.00  0.00    +0.000 NA
ATOM     30  C   UNL     1      54.000   4.111   6.288  0.00  0.00    +0.000 A 
ATOM     31  N   UNL     1      53.788   4.206   7.640  0.00  0.00    +0.000 N 
ATOM     32  C   UNL     1      53.718   5.406   8.301  0.00  0.00    +0.000 A 
ATOM     33  O   UNL     1      53.563   5.455   9.519  0.00  0.00    +0.000 OA
ATOM     34  C   UNL     1      53.852   6.575   7.454  0.00  0.00    +0.000 A 
ATOM     35  H   UNL     1      53.696   3.377   8.207  0.00  0.00    +0.000 HD
ENDBRANCH  22  25
ENDBRANCH  20  21
ENDBRANCH   4  20
TORSDOF 7
ENDMDL
MODEL 9
REMARK VINA RESULT:    -6.545      3.016      9.432
REMARK INTER + INTRA:         -10.379
REMARK INTER:                  -9.775
REMARK INTRA:                  -0.604
REMARK UNBOUND:                -1.156
REMARK  Name = 
REMARK  7 active torsions:
REMARK  status: ('A' for Active; 'I' for Inactive)
REMARK    1  A    between atoms: C_2  and  C_3
REMARK    2  A    between atoms: C_8  and  C_9
REMARK    3  A    between atoms: N_11  and  C_12
REMARK    4  A    between atoms: C_12  and  C_13
REMARK    5  A    between atoms: C_16  and  C_17
REMARK    6  A    between atoms: C_17  and  N_18
REMARK    7  A    between atoms: C_19  and  C_21
REMARK                            x       y       z     vdW  Elec       q    Type
REMARK                         _______ _______ _______ _____ _____    ______ ____
ROOT
ATOM      1  C   UNL     1      47.815   6.373  14.212  0.00  0.00    +0.000 A 
ATOM      2  C   UNL     1      47.205   5.181  14.623  0.00  0.00    +0.000 A 
ATOM      3  C   UNL     1      47.428   4.668  15.906  0.00  0.00    +0.000 A 
ATOM      4  C   UNL     1      48.245   5.349  16.817  0.00  0.00    +0.000 A 
ATOM      5  C   UNL     1      48.858   6.540  16.405  0.00  0.00    +0.000 A 
ATOM      6  C   UNL     1      48.641   7.051  15.119  0.00  0.00    +0.000 A 
ENDROOT
BRANCH   1   7
ATOM      7  C   UNL     1      47.586   6.910  12.820  0.00  0.00    +0.000 C 
BRANCH   7  10
ATOM      8  C   UNL     1      45.840   5.934  11.379  0.00  0.00    +0.000 C 
ATOM      9  O   UNL     1      45.055   6.850  11.608  0.00  0.00    +0.000 OA
ATOM     10  N   UNL     1      47.110   5.888  11.909  0.00  0.00    +0.000 N 
ATOM     11  H   UNL     1      47.784   5.197  11.610  0.00  0.00    +0.000 HD
BRANCH   8  17
ATOM     12  C   UNL     1      44.594   3.751  10.831  0.00  0.00    +0.000 A 
ATOM     13  C   UNL     1      44.174   2.834   9.849  0.00  0.00    +0.000 A 
ATOM     14  C   UNL     1      44.556   2.988   8.517  0.00  0.00    +0.000 A 
ATOM     15  C   UNL     1      45.364   4.058   8.149  0.00  0.00    +0.000 A 
ATOM     16  C   UNL     1      45.777   4.980   9.114  0.00  0.00    +0.000 A 
ATOM     17  C   UNL     1      45.406   4.839  10.462  0.00  0.00    +0.000 A 
BRANCH  12  19
ATOM     18  N   UNL     1      43.743   3.384  13.250  0.00  0.00    +0.000 NA
ATOM     19  C   UNL     1      44.151   3.531  12.174  0.00  0.00    +0.000 C 
ENDBRANCH  12  19
ENDBRANCH   8  17
ENDBRANCH   7  10
ENDBRANCH   1   7
BRANCH   4  20
ATOM     20  C   UNL     1      48.481   4.802  18.203  0.00  0.00    +0.000 C 
BRANCH  20  21
ATOM     21  N   UNL     1      49.740   4.104  18.295  0.00  0.00    +0.000 N 
ATOM     22  C   UNL     1      50.869   4.727  18.764  0.00  0.00    +0.000 C 
ATOM     23  O   UNL     1      50.851   5.887  19.168  0.00  0.00    +0.000 OA
ATOM     24  H   UNL     1      49.826   3.240  17.769  0.00  0.00    +0.000 HD
BRANCH  22  25
ATOM     25  C   UNL     1      52.094   3.917  18.821  0.00  0.00    +0.000 A 
ATOM     26  C   UNL     1      53.200   4.387  19.518  0.00  0.00    +0.000 A 
ATOM     27  S   UNL     1      54.518   3.305  19.523  0.00  0.00    +0.000 S 
ATOM     28  C   UNL     1      53.677   2.190  18.551  0.00  0.00    +0.000 A 
ATOM     29  N   UNL     1      54.260   1.026  18.157  0.00  0.00    +0.000 NA
ATOM     30  C   UNL     1      53.520   0.288  17.399  0.00  0.00    +0.000 A 
ATOM     31  N   UNL     1      52.245   0.607  17.006  0.00  0.00    +0.000 N 
ATOM     32  C   UNL     1      51.607   1.756  17.402  0.00  0.00    +0.000 A 
ATOM     33  O   UNL     1      50.451   1.993  17.060  0.00  0.00    +0.000 OA
ATOM     34  C   UNL     1      52.400   2.630  18.244  0.00  0.00    +0.000 A 
ATOM     35  H   UNL     1      51.715  -0.018  16.417  0.00  0.00    +0.000 HD
ENDBRANCH  22  25
ENDBRANCH  20  21
ENDBRANCH   4  20
TORSDOF 7
ENDMDL
