MODEL 1
REMARK VINA RESULT:    -8.618      0.000      0.000
REMARK INTER + INTRA:         -12.998
REMARK INTER:                 -11.892
REMARK INTRA:                  -1.106
REMARK UNBOUND:                -1.106
REMARK  Name = 
REMARK  7 active torsions:
REMARK  status: ('A' for Active; 'I' for Inactive)
REMARK    1  A    between atoms: C_2  and  C_20
REMARK    2  A    between atoms: N_3  and  C_4
REMARK    3  A    between atoms: C_4  and  C_5
REMARK    4  A    between atoms: C_8  and  C_9
REMARK    5  A    between atoms: C_9  and  O_10
REMARK    6  A    between atoms: C_9  and  C_11
REMARK    7  A    between atoms: C_11  and  C_12
REMARK                            x       y       z     vdW  Elec       q    Type
REMARK                         _______ _______ _______ _____ _____    ______ ____
ROOT
ATOM      1  C   UNL     1      47.198   7.272  13.193  0.00  0.00    +0.000 C 
ENDROOT
BRANCH   1   2
ATOM      2  C   UNL     1      46.432   6.139  12.566  0.00  0.00    +0.000 A 
ATOM      3  C   UNL     1      45.909   6.251  11.271  0.00  0.00    +0.000 A 
ATOM      4  C   UNL     1      45.239   5.174  10.678  0.00  0.00    +0.000 A 
ATOM      5  C   UNL     1      45.053   3.970  11.374  0.00  0.00    +0.000 A 
ATOM      6  C   UNL     1      45.571   3.878  12.677  0.00  0.00    +0.000 A 
ATOM      7  C   UNL     1      46.234   4.951  13.271  0.00  0.00    +0.000 A 
BRANCH   5   8
ATOM      8  C   UNL     1      44.349   2.803  10.697  0.00  0.00    +0.000 C 
BRANCH   8   9
ATOM      9  O   UNL     1      43.049   2.700  11.276  0.00  0.00    +0.000 OA
ATOM     10  H   UNL     1      42.402   2.915  10.582  0.00  0.00    +0.000 HD
ENDBRANCH   8   9
BRANCH   8  11
ATOM     11  C   UNL     1      44.275   2.945   9.165  0.00  0.00    +0.000 C 
BRANCH  11  12
ATOM     12  C   UNL     1      45.505   2.519   8.405  0.00  0.00    +0.000 A 
ATOM     13  C   UNL     1      46.237   3.414   7.633  0.00  0.00    +0.000 A 
ATOM     14  C   UNL     1      47.316   2.934   6.894  0.00  0.00    +0.000 A 
ATOM     15  C   UNL     1      47.629   1.580   6.939  0.00  0.00    +0.000 A 
ATOM     16  C   UNL     1      46.848   0.757   7.729  0.00  0.00    +0.000 A 
ATOM     17  N   UNL     1      45.798   1.194   8.455  0.00  0.00    +0.000 NA
ENDBRANCH  11  12
ENDBRANCH   8  11
ENDBRANCH   5   8
ENDBRANCH   1   2
BRANCH   1  20
ATOM     18  O   UNL     1      49.793   7.017  14.082  0.00  0.00    +0.000 OA
ATOM     19  C   UNL     1      48.890   6.947  14.913  0.00  0.00    +0.000 C 
ATOM     20  N   UNL     1      47.566   6.987  14.555  0.00  0.00    +0.000 N 
ATOM     21  H   UNL     1      46.858   7.133  15.267  0.00  0.00    +0.000 HD
BRANCH  19  22
ATOM     22  C   UNL     1      49.183   6.782  16.339  0.00  0.00    +0.000 A 
ATOM     23  C   UNL     1      49.745   7.831  17.053  0.00  0.00    +0.000 A 
ATOM     24  S   UNL     1      50.004   7.472  18.700  0.00  0.00    +0.000 S 
ATOM     25  C   UNL     1      49.333   5.919  18.523  0.00  0.00    +0.000 A 
ATOM     26  N   UNL     1      49.210   5.085  19.591  0.00  0.00    +0.000 NA
ATOM     27  C   UNL     1      48.648   3.955  19.321  0.00  0.00    +0.000 A 
ATOM     28  N   UNL     1      48.211   3.576  18.080  0.00  0.00    +0.000 N 
ATOM     29  C   UNL     1      48.357   4.364  16.963  0.00  0.00    +0.000 A 
ATOM     30  O   UNL     1      48.026   3.964  15.851  0.00  0.00    +0.000 OA
ATOM     31  C   UNL     1      48.950   5.665  17.218  0.00  0.00    +0.000 A 
ATOM     32  H   UNL     1      47.801   2.667  17.931  0.00  0.00    +0.000 HD
ENDBRANCH  19  22
ENDBRANCH   1  20
TORSDOF 7
ENDMDL
MODEL 2
REMARK VINA RESULT:    -8.111      1.700      2.125
REMARK INTER + INTRA:         -12.299
REMARK INTER:                 -12.216
REMARK INTRA:                  -0.083
REMARK UNBOUND:                -1.106
REMARK  Name = 
REMARK  7 active torsions:
REMARK  status: ('A' for Active; 'I' for Inactive)
REMARK    1  A    between atoms: C_2  and  C_20
REMARK    2  A    between atoms: N_3  and  C_4
REMARK    3  A    between atoms: C_4  and  C_5
REMARK    4  A    between atoms: C_8  and  C_9
REMARK    5  A    between atoms: C_9  and  O_10
REMARK    6  A    between atoms: C_9  and  C_11
REMARK    7  A    between atoms: C_11  and  C_12
REMARK                            x       y       z     vdW  Elec       q    Type
REMARK                         _______ _______ _______ _____ _____    ______ ____
ROOT
ATOM      1  C   UNL     1      47.531   6.507  13.574  0.00  0.00    +0.000 C 
ENDROOT
BRANCH   1   2
ATOM      2  C   UNL     1      46.592   5.799  12.637  0.00  0.00    +0.000 A 
ATOM      3  C   UNL     1      46.263   6.351  11.392  0.00  0.00    +0.000 A 
ATOM      4  C   UNL     1      45.425   5.662  10.506  0.00  0.00    +0.000 A 
ATOM      5  C   UNL     1      44.876   4.418  10.855  0.00  0.00    +0.000 A 
ATOM      6  C   UNL     1      45.205   3.884  12.112  0.00  0.00    +0.000 A 
ATOM      7  C   UNL     1      46.035   4.571  12.997  0.00  0.00    +0.000 A 
BRANCH   5   8
ATOM      8  C   UNL     1      43.994   3.673   9.862  0.00  0.00    +0.000 C 
BRANCH   8   9
ATOM      9  O   UNL     1      43.832   4.519   8.725  0.00  0.00    +0.000 OA
ATOM     10  H   UNL     1      43.892   3.958   7.933  0.00  0.00    +0.000 HD
ENDBRANCH   8   9
BRANCH   8  11
ATOM     11  C   UNL     1      44.555   2.295   9.466  0.00  0.00    +0.000 C 
BRANCH  11  12
ATOM     12  C   UNL     1      45.636   2.302   8.417  0.00  0.00    +0.000 A 
ATOM     13  C   UNL     1      45.867   3.409   7.607  0.00  0.00    +0.000 A 
ATOM     14  C   UNL     1      46.831   3.317   6.606  0.00  0.00    +0.000 A 
ATOM     15  C   UNL     1      47.528   2.127   6.434  0.00  0.00    +0.000 A 
ATOM     16  C   UNL     1      47.237   1.073   7.279  0.00  0.00    +0.000 A 
ATOM     17  N   UNL     1      46.310   1.133   8.257  0.00  0.00    +0.000 NA
ENDBRANCH  11  12
ENDBRANCH   8  11
ENDBRANCH   5   8
ENDBRANCH   1   2
BRANCH   1  20
ATOM     18  O   UNL     1      49.686   6.611  15.289  0.00  0.00    +0.000 OA
ATOM     19  C   UNL     1      48.662   6.055  15.682  0.00  0.00    +0.000 C 
ATOM     20  N   UNL     1      47.567   5.888  14.873  0.00  0.00    +0.000 N 
ATOM     21  H   UNL     1      46.678   5.616  15.281  0.00  0.00    +0.000 HD
BRANCH  19  22
ATOM     22  C   UNL     1      48.571   5.506  17.038  0.00  0.00    +0.000 A 
ATOM     23  C   UNL     1      48.774   4.149  17.247  0.00  0.00    +0.000 A 
ATOM     24  S   UNL     1      48.647   3.685  18.883  0.00  0.00    +0.000 S 
ATOM     25  C   UNL     1      48.360   5.290  19.372  0.00  0.00    +0.000 A 
ATOM     26  N   UNL     1      48.205   5.602  20.687  0.00  0.00    +0.000 NA
ATOM     27  C   UNL     1      48.035   6.861  20.917  0.00  0.00    +0.000 A 
ATOM     28  N   UNL     1      47.991   7.834  19.954  0.00  0.00    +0.000 N 
ATOM     29  C   UNL     1      48.095   7.560  18.610  0.00  0.00    +0.000 A 
ATOM     30  O   UNL     1      47.973   8.443  17.768  0.00  0.00    +0.000 OA
ATOM     31  C   UNL     1      48.326   6.161  18.298  0.00  0.00    +0.000 A 
ATOM     32  H   UNL     1      47.830   8.798  20.199  0.00  0.00    +0.000 HD
ENDBRANCH  19  22
ENDBRANCH   1  20
TORSDOF 7
ENDMDL
MODEL 3
REMARK VINA RESULT:    -7.842      1.882      3.345
REMARK INTER + INTRA:         -11.928
REMARK INTER:                 -10.649
REMARK INTRA:                  -1.278
REMARK UNBOUND:                -1.106
REMARK  Name = 
REMARK  7 active torsions:
REMARK  status: ('A' for Active; 'I' for Inactive)
REMARK    1  A    between atoms: C_2  and  C_20
REMARK    2  A    between atoms: N_3  and  C_4
REMARK    3  A    between atoms: C_4  and  C_5
REMARK    4  A    between atoms: C_8  and  C_9
REMARK    5  A    between atoms: C_9  and  O_10
REMARK    6  A    between atoms: C_9  and  C_11
REMARK    7  A    between atoms: C_11  and  C_12
REMARK                            x       y       z     vdW  Elec       q    Type
REMARK                         _______ _______ _______ _____ _____    ______ ____
ROOT
ATOM      1  C   UNL     1      46.998   4.213  14.944  0.00  0.00    +0.000 C 
ENDROOT
BRANCH   1   2
ATOM      2  C   UNL     1      46.455   4.348  13.548  0.00  0.00    +0.000 A 
ATOM      3  C   UNL     1      45.824   3.271  12.911  0.00  0.00    +0.000 A 
ATOM      4  C   UNL     1      45.280   3.420  11.630  0.00  0.00    +0.000 A 
ATOM      5  C   UNL     1      45.374   4.642  10.945  0.00  0.00    +0.000 A 
ATOM      6  C   UNL     1      46.021   5.708  11.591  0.00  0.00    +0.000 A 
ATOM      7  C   UNL     1      46.569   5.559  12.865  0.00  0.00    +0.000 A 
BRANCH   5   8
ATOM      8  C   UNL     1      44.746   4.789   9.566  0.00  0.00    +0.000 C 
BRANCH   8   9
ATOM      9  O   UNL     1      45.668   5.519   8.758  0.00  0.00    +0.000 OA
ATOM     10  H   UNL     1      45.476   6.465   8.879  0.00  0.00    +0.000 HD
ENDBRANCH   8   9
BRANCH   8  11
ATOM     11  C   UNL     1      44.375   3.440   8.921  0.00  0.00    +0.000 C 
BRANCH  11  12
ATOM     12  C   UNL     1      45.431   2.818   8.045  0.00  0.00    +0.000 A 
ATOM     13  C   UNL     1      46.046   1.616   8.377  0.00  0.00    +0.000 A 
ATOM     14  C   UNL     1      47.070   1.139   7.561  0.00  0.00    +0.000 A 
ATOM     15  C   UNL     1      47.456   1.874   6.447  0.00  0.00    +0.000 A 
ATOM     16  C   UNL     1      46.796   3.062   6.188  0.00  0.00    +0.000 A 
ATOM     17  N   UNL     1      45.802   3.547   6.960  0.00  0.00    +0.000 NA
ENDBRANCH  11  12
ENDBRANCH   8  11
ENDBRANCH   5   8
ENDBRANCH   1   2
BRANCH   1  20
ATOM     18  O   UNL     1      49.062   4.450  16.754  0.00  0.00    +0.000 OA
ATOM     19  C   UNL     1      48.570   5.482  16.302  0.00  0.00    +0.000 C 
ATOM     20  N   UNL     1      47.491   5.465  15.456  0.00  0.00    +0.000 N 
ATOM     21  H   UNL     1      47.240   6.305  14.945  0.00  0.00    +0.000 HD
BRANCH  19  22
ATOM     22  C   UNL     1      49.094   6.798  16.676  0.00  0.00    +0.000 A 
ATOM     23  C   UNL     1      49.060   7.202  18.004  0.00  0.00    +0.000 A 
ATOM     24  S   UNL     1      49.724   8.751  18.262  0.00  0.00    +0.000 S 
ATOM     25  C   UNL     1      50.119   8.915  16.615  0.00  0.00    +0.000 A 
ATOM     26  N   UNL     1      50.767  10.022  16.159  0.00  0.00    +0.000 NA
ATOM     27  C   UNL     1      51.039   9.995  14.897  0.00  0.00    +0.000 A 
ATOM     28  N   UNL     1      50.712   8.973  14.047  0.00  0.00    +0.000 N 
ATOM     29  C   UNL     1      50.016   7.858  14.452  0.00  0.00    +0.000 A 
ATOM     30  O   UNL     1      49.670   6.996  13.652  0.00  0.00    +0.000 OA
ATOM     31  C   UNL     1      49.718   7.819  15.873  0.00  0.00    +0.000 A 
ATOM     32  H   UNL     1      50.933   9.026  13.065  0.00  0.00    +0.000 HD
ENDBRANCH  19  22
ENDBRANCH   1  20
TORSDOF 7
ENDMDL
MODEL 4
REMARK VINA RESULT:    -7.279      4.535      9.484
REMARK INTER + INTRA:         -11.151
REMARK INTER:                  -9.948
REMARK INTRA:                  -1.203
REMARK UNBOUND:                -1.106
REMARK  Name = 
REMARK  7 active torsions:
REMARK  status: ('A' for Active; 'I' for Inactive)
REMARK    1  A    between atoms: C_2  and  C_20
REMARK    2  A    between atoms: N_3  and  C_4
REMARK    3  A    between atoms: C_4  and  C_5
REMARK    4  A    between atoms: C_8  and  C_9
REMARK    5  A    between atoms: C_9  and  O_10
REMARK    6  A    between atoms: C_9  and  C_11
REMARK    7  A    between atoms: C_11  and  C_12
REMARK                            x       y       z     vdW  Elec       q    Type
REMARK                         _______ _______ _______ _____ _____    ______ ____
ROOT
ATOM      1  C   UNL     1      47.269   3.329  16.749  0.00  0.00    +0.000 C 
ENDROOT
BRANCH   1   2
ATOM      2  C   UNL     1      48.728   3.328  17.115  0.00  0.00    +0.000 A 
ATOM      3  C   UNL     1      49.325   4.451  17.702  0.00  0.00    +0.000 A 
ATOM      4  C   UNL     1      50.673   4.424  18.082  0.00  0.00    +0.000 A 
ATOM      5  C   UNL     1      51.460   3.284  17.863  0.00  0.00    +0.000 A 
ATOM      6  C   UNL     1      50.850   2.170  17.262  0.00  0.00    +0.000 A 
ATOM      7  C   UNL     1      49.510   2.197  16.877  0.00  0.00    +0.000 A 
BRANCH   5   8
ATOM      8  C   UNL     1      52.914   3.268  18.314  0.00  0.00    +0.000 C 
BRANCH   8   9
ATOM      9  O   UNL     1      52.920   2.946  19.705  0.00  0.00    +0.000 OA
ATOM     10  H   UNL     1      52.292   2.216  19.839  0.00  0.00    +0.000 HD
ENDBRANCH   8   9
BRANCH   8  11
ATOM     11  C   UNL     1      53.790   2.294  17.505  0.00  0.00    +0.000 C 
BRANCH  11  12
ATOM     12  C   UNL     1      54.332   1.111  18.265  0.00  0.00    +0.000 A 
ATOM     13  C   UNL     1      53.833  -0.174  18.078  0.00  0.00    +0.000 A 
ATOM     14  C   UNL     1      54.327  -1.206  18.871  0.00  0.00    +0.000 A 
ATOM     15  C   UNL     1      55.294  -0.931  19.831  0.00  0.00    +0.000 A 
ATOM     16  C   UNL     1      55.735   0.374  19.955  0.00  0.00    +0.000 A 
ATOM     17  N   UNL     1      55.275   1.394  19.201  0.00  0.00    +0.000 NA
ENDBRANCH  11  12
ENDBRANCH   8  11
ENDBRANCH   5   8
ENDBRANCH   1   2
BRANCH   1  20
ATOM     18  O   UNL     1      47.243   3.076  14.005  0.00  0.00    +0.000 OA
ATOM     19  C   UNL     1      46.889   4.149  14.488  0.00  0.00    +0.000 C 
ATOM     20  N   UNL     1      46.941   4.393  15.837  0.00  0.00    +0.000 N 
ATOM     21  H   UNL     1      46.456   5.199  16.221  0.00  0.00    +0.000 HD
BRANCH  19  22
ATOM     22  C   UNL     1      46.421   5.246  13.637  0.00  0.00    +0.000 A 
ATOM     23  C   UNL     1      47.256   6.325  13.382  0.00  0.00    +0.000 A 
ATOM     24  S   UNL     1      46.559   7.500  12.361  0.00  0.00    +0.000 S 
ATOM     25  C   UNL     1      45.134   6.585  12.191  0.00  0.00    +0.000 A 
ATOM     26  N   UNL     1      44.120   7.013  11.392  0.00  0.00    +0.000 NA
ATOM     27  C   UNL     1      43.118   6.202  11.324  0.00  0.00    +0.000 A 
ATOM     28  N   UNL     1      43.030   5.010  11.993  0.00  0.00    +0.000 N 
ATOM     29  C   UNL     1      44.007   4.559  12.848  0.00  0.00    +0.000 A 
ATOM     30  O   UNL     1      43.865   3.525  13.492  0.00  0.00    +0.000 OA
ATOM     31  C   UNL     1      45.176   5.417  12.931  0.00  0.00    +0.000 A 
ATOM     32  H   UNL     1      42.207   4.433  11.916  0.00  0.00    +0.000 HD
ENDBRANCH  19  22
ENDBRANCH   1  20
TORSDOF 7
ENDMDL
MODEL 5
REMARK VINA RESULT:    -7.178      2.328      3.029
REMARK INTER + INTRA:         -11.012
REMARK INTER:                  -9.927
REMARK INTRA:                  -1.085
REMARK UNBOUND:                -1.106
REMARK  Name = 
REMARK  7 active torsions:
REMARK  status: ('A' for Active; 'I' for Inactive)
REMARK    1  A    between atoms: C_2  and  C_20
REMARK    2  A    between atoms: N_3  and  C_4
REMARK    3  A    between atoms: C_4  and  C_5
REMARK    4  A    between atoms: C_8  and  C_9
REMARK    5  A    between atoms: C_9  and  O_10
REMARK    6  A    between atoms: C_9  and  C_11
REMARK    7  A    between atoms: C_11  and  C_12
REMARK                            x       y       z     vdW  Elec       q    Type
REMARK                         _______ _______ _______ _____ _____    ______ ____
ROOT
ATOM      1  C   UNL     1      48.700   7.445  13.487  0.00  0.00    +0.000 C 
ENDROOT
BRANCH   1   2
ATOM      2  C   UNL     1      47.602   6.584  12.927  0.00  0.00    +0.000 A 
ATOM      3  C   UNL     1      47.196   5.414  13.582  0.00  0.00    +0.000 A 
ATOM      4  C   UNL     1      46.141   4.644  13.078  0.00  0.00    +0.000 A 
ATOM      5  C   UNL     1      45.483   5.011  11.894  0.00  0.00    +0.000 A 
ATOM      6  C   UNL     1      45.910   6.179  11.241  0.00  0.00    +0.000 A 
ATOM      7  C   UNL     1      46.965   6.944  11.739  0.00  0.00    +0.000 A 
BRANCH   5   8
ATOM      8  C   UNL     1      44.318   4.175  11.384  0.00  0.00    +0.000 C 
BRANCH   8   9
ATOM      9  O   UNL     1      43.174   4.529  12.160  0.00  0.00    +0.000 OA
ATOM     10  H   UNL     1      42.406   4.534  11.562  0.00  0.00    +0.000 HD
ENDBRANCH   8   9
BRANCH   8  11
ATOM     11  C   UNL     1      44.057   4.354   9.877  0.00  0.00    +0.000 C 
BRANCH  11  12
ATOM     12  C   UNL     1      44.959   3.575   8.956  0.00  0.00    +0.000 A 
ATOM     13  C   UNL     1      45.166   2.209   9.113  0.00  0.00    +0.000 A 
ATOM     14  C   UNL     1      46.075   1.569   8.274  0.00  0.00    +0.000 A 
ATOM     15  C   UNL     1      46.756   2.305   7.312  0.00  0.00    +0.000 A 
ATOM     16  C   UNL     1      46.495   3.660   7.223  0.00  0.00    +0.000 A 
ATOM     17  N   UNL     1      45.620   4.307   8.022  0.00  0.00    +0.000 NA
ENDBRANCH  11  12
ENDBRANCH   8  11
ENDBRANCH   5   8
ENDBRANCH   1   2
BRANCH   1  20
ATOM     18  O   UNL     1      48.678   7.975  16.191  0.00  0.00    +0.000 OA
ATOM     19  C   UNL     1      49.362   7.034  15.794  0.00  0.00    +0.000 C 
ATOM     20  N   UNL     1      49.495   6.742  14.460  0.00  0.00    +0.000 N 
ATOM     21  H   UNL     1      49.892   5.852  14.178  0.00  0.00    +0.000 HD
BRANCH  19  22
ATOM     22  C   UNL     1      50.105   6.189  16.732  0.00  0.00    +0.000 A 
ATOM     23  C   UNL     1      49.417   5.387  17.632  0.00  0.00    +0.000 A 
ATOM     24  S   UNL     1      50.437   4.459  18.635  0.00  0.00    +0.000 S 
ATOM     25  C   UNL     1      51.831   5.065  17.871  0.00  0.00    +0.000 A 
ATOM     26  N   UNL     1      53.070   4.633  18.232  0.00  0.00    +0.000 NA
ATOM     27  C   UNL     1      54.033   5.146  17.542  0.00  0.00    +0.000 A 
ATOM     28  N   UNL     1      53.874   6.061  16.536  0.00  0.00    +0.000 N 
ATOM     29  C   UNL     1      52.648   6.563  16.169  0.00  0.00    +0.000 A 
ATOM     30  O   UNL     1      52.545   7.439  15.317  0.00  0.00    +0.000 OA
ATOM     31  C   UNL     1      51.524   5.989  16.888  0.00  0.00    +0.000 A 
ATOM     32  H   UNL     1      54.672   6.442  16.052  0.00  0.00    +0.000 HD
ENDBRANCH  19  22
ENDBRANCH   1  20
TORSDOF 7
ENDMDL
MODEL 6
REMARK VINA RESULT:    -7.088      3.896      8.847
REMARK INTER + INTRA:         -10.888
REMARK INTER:                  -9.558
REMARK INTRA:                  -1.329
REMARK UNBOUND:                -1.106
REMARK  Name = 
REMARK  7 active torsions:
REMARK  status: ('A' for Active; 'I' for Inactive)
REMARK    1  A    between atoms: C_2  and  C_20
REMARK    2  A    between atoms: N_3  and  C_4
REMARK    3  A    between atoms: C_4  and  C_5
REMARK    4  A    between atoms: C_8  and  C_9
REMARK    5  A    between atoms: C_9  and  O_10
REMARK    6  A    between atoms: C_9  and  C_11
REMARK    7  A    between atoms: C_11  and  C_12
REMARK                            x       y       z     vdW  Elec       q    Type
REMARK                         _______ _______ _______ _____ _____    ______ ____
ROOT
ATOM      1  C   UNL     1      47.206   3.331  16.766  0.00  0.00    +0.000 C 
ENDROOT
BRANCH   1   2
ATOM      2  C   UNL     1      48.663   3.319  17.140  0.00  0.00    +0.000 A 
ATOM      3  C   UNL     1      49.252   4.415  17.784  0.00  0.00    +0.000 A 
ATOM      4  C   UNL     1      50.597   4.377  18.170  0.00  0.00    +0.000 A 
ATOM      5  C   UNL     1      51.391   3.251  17.901  0.00  0.00    +0.000 A 
ATOM      6  C   UNL     1      50.790   2.165  17.243  0.00  0.00    +0.000 A 
ATOM      7  C   UNL     1      49.452   2.205  16.852  0.00  0.00    +0.000 A 
BRANCH   5   8
ATOM      8  C   UNL     1      52.842   3.220  18.360  0.00  0.00    +0.000 C 
BRANCH   8   9
ATOM      9  O   UNL     1      53.564   2.422  17.423  0.00  0.00    +0.000 OA
ATOM     10  H   UNL     1      53.698   1.547  17.827  0.00  0.00    +0.000 HD
ENDBRANCH   8   9
BRANCH   8  11
ATOM     11  C   UNL     1      53.463   4.622  18.505  0.00  0.00    +0.000 C 
BRANCH  11  12
ATOM     12  C   UNL     1      54.068   5.206  17.254  0.00  0.00    +0.000 A 
ATOM     13  C   UNL     1      53.423   6.195  16.520  0.00  0.00    +0.000 A 
ATOM     14  C   UNL     1      54.003   6.632  15.331  0.00  0.00    +0.000 A 
ATOM     15  C   UNL     1      55.199   6.068  14.905  0.00  0.00    +0.000 A 
ATOM     16  C   UNL     1      55.774   5.087  15.691  0.00  0.00    +0.000 A 
ATOM     17  N   UNL     1      55.235   4.644  16.847  0.00  0.00    +0.000 NA
ENDBRANCH  11  12
ENDBRANCH   8  11
ENDBRANCH   5   8
ENDBRANCH   1   2
BRANCH   1  20
ATOM     18  O   UNL     1      47.255   3.096  14.021  0.00  0.00    +0.000 OA
ATOM     19  C   UNL     1      46.877   4.162  14.501  0.00  0.00    +0.000 C 
ATOM     20  N   UNL     1      46.891   4.398  15.852  0.00  0.00    +0.000 N 
ATOM     21  H   UNL     1      46.389   5.196  16.228  0.00  0.00    +0.000 HD
BRANCH  19  22
ATOM     22  C   UNL     1      46.420   5.259  13.645  0.00  0.00    +0.000 A 
ATOM     23  C   UNL     1      47.267   6.327  13.382  0.00  0.00    +0.000 A 
ATOM     24  S   UNL     1      46.582   7.505  12.356  0.00  0.00    +0.000 S 
ATOM     25  C   UNL     1      45.147   6.605  12.193  0.00  0.00    +0.000 A 
ATOM     26  N   UNL     1      44.137   7.041  11.393  0.00  0.00    +0.000 NA
ATOM     27  C   UNL     1      43.125   6.241  11.331  0.00  0.00    +0.000 A 
ATOM     28  N   UNL     1      43.025   5.053  12.006  0.00  0.00    +0.000 N 
ATOM     29  C   UNL     1      43.998   4.596  12.862  0.00  0.00    +0.000 A 
ATOM     30  O   UNL     1      43.844   3.567  13.512  0.00  0.00    +0.000 OA
ATOM     31  C   UNL     1      45.177   5.441  12.940  0.00  0.00    +0.000 A 
ATOM     32  H   UNL     1      42.195   4.485  11.933  0.00  0.00    +0.000 HD
ENDBRANCH  19  22
ENDBRANCH   1  20
TORSDOF 7
ENDMDL
MODEL 7
REMARK VINA RESULT:    -6.872      3.728      8.300
REMARK INTER + INTRA:         -10.590
REMARK INTER:                  -9.471
REMARK INTRA:                  -1.119
REMARK UNBOUND:                -1.106
REMARK  Name = 
REMARK  7 active torsions:
REMARK  status: ('A' for Active; 'I' for Inactive)
REMARK    1  A    between atoms: C_2  and  C_20
REMARK    2  A    between atoms: N_3  and  C_4
REMARK    3  A    between atoms: C_4  and  C_5
REMARK    4  A    between atoms: C_8  and  C_9
REMARK    5  A    between atoms: C_9  and  O_10
REMARK    6  A    between atoms: C_9  and  C_11
REMARK    7  A    between atoms: C_11  and  C_12
REMARK                            x       y       z     vdW  Elec       q    Type
REMARK                         _______ _______ _______ _____ _____    ______ ____
ROOT
ATOM      1  C   UNL     1      48.227   7.615  14.519  0.00  0.00    +0.000 C 
ENDROOT
BRANCH   1   2
ATOM      2  C   UNL     1      48.669   6.570  15.507  0.00  0.00    +0.000 A 
ATOM      3  C   UNL     1      47.857   5.467  15.803  0.00  0.00    +0.000 A 
ATOM      4  C   UNL     1      48.298   4.476  16.688  0.00  0.00    +0.000 A 
ATOM      5  C   UNL     1      49.549   4.574  17.315  0.00  0.00    +0.000 A 
ATOM      6  C   UNL     1      50.346   5.692  17.018  0.00  0.00    +0.000 A 
ATOM      7  C   UNL     1      49.907   6.684  16.141  0.00  0.00    +0.000 A 
BRANCH   5   8
ATOM      8  C   UNL     1      50.019   3.467  18.248  0.00  0.00    +0.000 C 
BRANCH   8   9
ATOM      9  O   UNL     1      48.912   3.115  19.076  0.00  0.00    +0.000 OA
ATOM     10  H   UNL     1      49.188   3.239  20.001  0.00  0.00    +0.000 HD
ENDBRANCH   8   9
BRANCH   8  11
ATOM     11  C   UNL     1      50.579   2.242  17.502  0.00  0.00    +0.000 C 
BRANCH  11  12
ATOM     12  C   UNL     1      52.060   2.004  17.647  0.00  0.00    +0.000 A 
ATOM     13  C   UNL     1      52.942   3.033  17.959  0.00  0.00    +0.000 A 
ATOM     14  C   UNL     1      54.307   2.757  17.998  0.00  0.00    +0.000 A 
ATOM     15  C   UNL     1      54.753   1.471  17.719  0.00  0.00    +0.000 A 
ATOM     16  C   UNL     1      53.811   0.505  17.415  0.00  0.00    +0.000 A 
ATOM     17  N   UNL     1      52.484   0.744  17.369  0.00  0.00    +0.000 NA
ENDBRANCH  11  12
ENDBRANCH   8  11
ENDBRANCH   5   8
ENDBRANCH   1   2
BRANCH   1  20
ATOM     18  O   UNL     1      47.941   6.478  12.026  0.00  0.00    +0.000 OA
ATOM     19  C   UNL     1      46.927   6.658  12.696  0.00  0.00    +0.000 C 
ATOM     20  N   UNL     1      46.962   7.287  13.915  0.00  0.00    +0.000 N 
ATOM     21  H   UNL     1      46.154   7.238  14.528  0.00  0.00    +0.000 HD
BRANCH  19  22
ATOM     22  C   UNL     1      45.611   6.239  12.207  0.00  0.00    +0.000 A 
ATOM     23  C   UNL     1      44.775   7.165  11.598  0.00  0.00    +0.000 A 
ATOM     24  S   UNL     1      43.292   6.504  11.076  0.00  0.00    +0.000 S 
ATOM     25  C   UNL     1      43.736   4.950  11.607  0.00  0.00    +0.000 A 
ATOM     26  N   UNL     1      42.911   3.885  11.417  0.00  0.00    +0.000 NA
ATOM     27  C   UNL     1      43.391   2.760  11.833  0.00  0.00    +0.000 A 
ATOM     28  N   UNL     1      44.612   2.605  12.433  0.00  0.00    +0.000 N 
ATOM     29  C   UNL     1      45.458   3.658  12.689  0.00  0.00    +0.000 A 
ATOM     30  O   UNL     1      46.511   3.498  13.298  0.00  0.00    +0.000 OA
ATOM     31  C   UNL     1      44.983   4.942  12.207  0.00  0.00    +0.000 A 
ATOM     32  H   UNL     1      44.918   1.701  12.757  0.00  0.00    +0.000 HD
ENDBRANCH  19  22
ENDBRANCH   1  20
TORSDOF 7
ENDMDL
MODEL 8
REMARK VINA RESULT:    -6.808      3.331      8.216
REMARK INTER + INTRA:         -10.502
REMARK INTER:                  -9.259
REMARK INTRA:                  -1.243
REMARK UNBOUND:                -1.106
REMARK  Name = 
REMARK  7 active torsions:
REMARK  status: ('A' for Active; 'I' for Inactive)
REMARK    1  A    between atoms: C_2  and  C_20
REMARK    2  A    between atoms: N_3  and  C_4
REMARK    3  A    between atoms: C_4  and  C_5
REMARK    4  A    between atoms: C_8  and  C_9
REMARK    5  A    between atoms: C_9  and  O_10
REMARK    6  A    between atoms: C_9  and  C_11
REMARK    7  A    between atoms: C_11  and  C_12
REMARK                            x       y       z     vdW  Elec       q    Type
REMARK                         _______ _______ _______ _____ _____    ______ ____
ROOT
ATOM      1  C   UNL     1      47.991   8.237  12.201  0.00  0.00    +0.000 C 
ENDROOT
BRANCH   1   2
ATOM      2  C   UNL     1      48.359   8.093  13.652  0.00  0.00    +0.000 A 
ATOM      3  C   UNL     1      47.901   9.009  14.608  0.00  0.00    +0.000 A 
ATOM      4  C   UNL     1      48.210   8.840  15.963  0.00  0.00    +0.000 A 
ATOM      5  C   UNL     1      49.003   7.765  16.391  0.00  0.00    +0.000 A 
ATOM      6  C   UNL     1      49.466   6.862  15.420  0.00  0.00    +0.000 A 
ATOM      7  C   UNL     1      49.164   7.032  14.069  0.00  0.00    +0.000 A 
BRANCH   5   8
ATOM      8  C   UNL     1      49.299   7.585  17.874  0.00  0.00    +0.000 C 
BRANCH   8   9
ATOM      9  O   UNL     1      49.284   8.882  18.468  0.00  0.00    +0.000 OA
ATOM     10  H   UNL     1      48.573   9.391  18.042  0.00  0.00    +0.000 HD
ENDBRANCH   8   9
BRANCH   8  11
ATOM     11  C   UNL     1      48.316   6.631  18.577  0.00  0.00    +0.000 C 
BRANCH  11  12
ATOM     12  C   UNL     1      48.366   5.191  18.135  0.00  0.00    +0.000 A 
ATOM     13  C   UNL     1      49.553   4.465  18.132  0.00  0.00    +0.000 A 
ATOM     14  C   UNL     1      49.540   3.164  17.635  0.00  0.00    +0.000 A 
ATOM     15  C   UNL     1      48.353   2.627  17.150  0.00  0.00    +0.000 A 
ATOM     16  C   UNL     1      47.219   3.417  17.185  0.00  0.00    +0.000 A 
ATOM     17  N   UNL     1      47.201   4.679  17.660  0.00  0.00    +0.000 NA
ENDBRANCH  11  12
ENDBRANCH   8  11
ENDBRANCH   5   8
ENDBRANCH   1   2
BRANCH   1  20
ATOM     18  O   UNL     1      45.287   7.904  11.786  0.00  0.00    +0.000 OA
ATOM     19  C   UNL     1      46.039   6.996  11.439  0.00  0.00    +0.000 C 
ATOM     20  N   UNL     1      47.390   7.039  11.674  0.00  0.00    +0.000 N 
ATOM     21  H   UNL     1      48.003   6.383  11.201  0.00  0.00    +0.000 HD
BRANCH  19  22
ATOM     22  C   UNL     1      45.522   5.793  10.781  0.00  0.00    +0.000 A 
ATOM     23  C   UNL     1      45.839   5.544   9.453  0.00  0.00    +0.000 A 
ATOM     24  S   UNL     1      45.168   4.095   8.852  0.00  0.00    +0.000 S 
ATOM     25  C   UNL     1      44.469   3.731  10.360  0.00  0.00    +0.000 A 
ATOM     26  N   UNL     1      43.774   2.576  10.547  0.00  0.00    +0.000 NA
ATOM     27  C   UNL     1      43.334   2.410  11.749  0.00  0.00    +0.000 A 
ATOM     28  N   UNL     1      43.511   3.297  12.777  0.00  0.00    +0.000 N 
ATOM     29  C   UNL     1      44.164   4.498  12.624  0.00  0.00    +0.000 A 
ATOM     30  O   UNL     1      44.238   5.306  13.543  0.00  0.00    +0.000 OA
ATOM     31  C   UNL     1      44.714   4.718  11.298  0.00  0.00    +0.000 A 
ATOM     32  H   UNL     1      43.120   3.119  13.689  0.00  0.00    +0.000 HD
ENDBRANCH  19  22
ENDBRANCH   1  20
TORSDOF 7
ENDMDL
MODEL 9
REMARK VINA RESULT:    -6.295      3.565      9.327
REMARK INTER + INTRA:          -9.793
REMARK INTER:                  -8.532
REMARK INTRA:                  -1.261
REMARK UNBOUND:                -1.106
REMARK  Name = 
REMARK  7 active torsions:
REMARK  status: ('A' for Active; 'I' for Inactive)
REMARK    1  A    between atoms: C_2  and  C_20
REMARK    2  A    between atoms: N_3  and  C_4
REMARK    3  A    between atoms: C_4  and  C_5
REMARK    4  A    between atoms: C_8  and  C_9
REMARK    5  A    between atoms: C_9  and  O_10
REMARK    6  A    between atoms: C_9  and  C_11
REMARK    7  A    between atoms: C_11  and  C_12
REMARK                            x       y       z     vdW  Elec       q    Type
REMARK                         _______ _______ _______ _____ _____    ______ ____
ROOT
ATOM      1  C   UNL     1      48.533   6.611  14.639  0.00  0.00    +0.000 C 
ENDROOT
BRANCH   1   2
ATOM      2  C   UNL     1      48.571   6.403  16.128  0.00  0.00    +0.000 A 
ATOM      3  C   UNL     1      48.871   7.461  16.997  0.00  0.00    +0.000 A 
ATOM      4  C   UNL     1      48.858   7.270  18.384  0.00  0.00    +0.000 A 
ATOM      5  C   UNL     1      48.569   6.012  18.934  0.00  0.00    +0.000 A 
ATOM      6  C   UNL     1      48.284   4.958  18.050  0.00  0.00    +0.000 A 
ATOM      7  C   UNL     1      48.302   5.145  16.668  0.00  0.00    +0.000 A 
BRANCH   5   8
ATOM      8  C   UNL     1      48.530   5.836  20.445  0.00  0.00    +0.000 C 
BRANCH   8   9
ATOM      9  O   UNL     1      47.253   5.290  20.774  0.00  0.00    +0.000 OA
ATOM     10  H   UNL     1      46.629   5.569  20.082  0.00  0.00    +0.000 HD
ENDBRANCH   8   9
BRANCH   8  11
ATOM     11  C   UNL     1      49.675   4.960  20.985  0.00  0.00    +0.000 C 
BRANCH  11  12
ATOM     12  C   UNL     1      51.062   5.341  20.538  0.00  0.00    +0.000 A 
ATOM     13  C   UNL     1      51.805   4.537  19.681  0.00  0.00    +0.000 A 
ATOM     14  C   UNL     1      53.110   4.913  19.373  0.00  0.00    +0.000 A 
ATOM     15  C   UNL     1      53.640   6.070  19.931  0.00  0.00    +0.000 A 
ATOM     16  C   UNL     1      52.837   6.812  20.777  0.00  0.00    +0.000 A 
ATOM     17  N   UNL     1      51.570   6.473  21.093  0.00  0.00    +0.000 NA
ENDBRANCH  11  12
ENDBRANCH   8  11
ENDBRANCH   5   8
ENDBRANCH   1   2
BRANCH   1  20
ATOM     18  O   UNL     1      47.844   7.027  12.004  0.00  0.00    +0.000 OA
ATOM     19  C   UNL     1      46.995   6.548  12.752  0.00  0.00    +0.000 C 
ATOM     20  N   UNL     1      47.221   6.376  14.094  0.00  0.00    +0.000 N 
ATOM     21  H   UNL     1      46.590   5.797  14.639  0.00  0.00    +0.000 HD
BRANCH  19  22
ATOM     22  C   UNL     1      45.673   6.164  12.251  0.00  0.00    +0.000 A 
ATOM     23  C   UNL     1      44.858   7.117  11.656  0.00  0.00    +0.000 A 
ATOM     24  S   UNL     1      43.364   6.495  11.117  0.00  0.00    +0.000 S 
ATOM     25  C   UNL     1      43.775   4.923  11.622  0.00  0.00    +0.000 A 
ATOM     26  N   UNL     1      42.929   3.878  11.410  0.00  0.00    +0.000 NA
ATOM     27  C   UNL     1      43.385   2.737  11.807  0.00  0.00    +0.000 A 
ATOM     28  N   UNL     1      44.600   2.547  12.409  0.00  0.00    +0.000 N 
ATOM     29  C   UNL     1      45.466   3.578  12.687  0.00  0.00    +0.000 A 
ATOM     30  O   UNL     1      46.513   3.386  13.297  0.00  0.00    +0.000 OA
ATOM     31  C   UNL     1      45.019   4.880  12.225  0.00  0.00    +0.000 A 
ATOM     32  H   UNL     1      44.887   1.631  12.718  0.00  0.00    +0.000 HD
ENDBRANCH  19  22
ENDBRANCH   1  20
TORSDOF 7
ENDMDL
