MODEL 1
REMARK VINA RESULT:    -8.504      0.000      0.000
REMARK INTER + INTRA:         -11.189
REMARK INTER:                 -10.493
REMARK INTRA:                  -0.696
REMARK UNBOUND:                -0.696
REMARK  Name = 
REMARK  4 active torsions:
REMARK  status: ('A' for Active; 'I' for Inactive)
REMARK    1  A    between atoms: C_2  and  C_4
REMARK    2  A    between atoms: N_8  and  C_9
REMARK    3  A    between atoms: C_9  and  C_10
REMARK    4  A    between atoms: C_14  and  C_15
REMARK                            x       y       z     vdW  Elec       q    Type
REMARK                         _______ _______ _______ _____ _____    ______ ____
ROOT
ATOM      1  C   UNL     1      46.569   2.485   7.294  0.00  0.00    +0.000 A 
ATOM      2  C   UNL     1      46.056   3.718   7.681  0.00  0.00    +0.000 A 
ATOM      3  C   UNL     1      45.196   3.781   8.777  0.00  0.00    +0.000 A 
ATOM      4  C   UNL     1      44.853   2.621   9.461  0.00  0.00    +0.000 A 
ATOM      5  N   UNL     1      44.081   2.600  10.586  0.00  0.00    +0.000 N 
ATOM      6  N   UNL     1      45.319   1.416   9.068  0.00  0.00    +0.000 NA
ATOM      7  C   UNL     1      46.155   1.368   7.999  0.00  0.00    +0.000 A 
ATOM      8  H   UNL     1      43.851   1.663  10.888  0.00  0.00    +0.000 HD
ENDROOT
BRANCH   1  10
ATOM      9  N   UNL     1      47.448   3.251   5.164  0.00  0.00    +0.000 N 
ATOM     10  C   UNL     1      47.519   2.330   6.175  0.00  0.00    +0.000 C 
ATOM     11  O   UNL     1      48.360   1.443   6.164  0.00  0.00    +0.000 OA
ATOM     12  H   UNL     1      48.166   3.199   4.455  0.00  0.00    +0.000 HD
ATOM     13  H   UNL     1      46.950   4.126   5.260  0.00  0.00    +0.000 HD
ENDBRANCH   1  10
BRANCH   5  14
ATOM     14  C   UNL     1      43.400   3.719  11.185  0.00  0.00    +0.000 C 
BRANCH  14  15
ATOM     15  C   UNL     1      44.354   4.629  11.924  0.00  0.00    +0.000 A 
ATOM     16  C   UNL     1      45.300   4.094  12.807  0.00  0.00    +0.000 A 
ATOM     17  C   UNL     1      46.210   4.928  13.450  0.00  0.00    +0.000 A 
ATOM     18  C   UNL     1      46.196   6.302  13.203  0.00  0.00    +0.000 A 
ATOM     19  C   UNL     1      45.289   6.877  12.295  0.00  0.00    +0.000 A 
ATOM     20  C   UNL     1      44.357   6.016  11.683  0.00  0.00    +0.000 A 
BRANCH  19  21
ATOM     21  C   UNL     1      45.368   8.310  11.936  0.00  0.00    +0.000 A 
ATOM     22  C   UNL     1      44.327   8.950  11.243  0.00  0.00    +0.000 A 
ATOM     23  C   UNL     1      44.380  10.316  10.968  0.00  0.00    +0.000 A 
ATOM     24  C   UNL     1      45.483  11.026  11.401  0.00  0.00    +0.000 A 
ATOM     25  N   UNL     1      46.519  10.466  12.058  0.00  0.00    +0.000 NA
ATOM     26  C   UNL     1      46.437   9.132  12.302  0.00  0.00    +0.000 A 
ENDBRANCH  19  21
ENDBRANCH  14  15
ENDBRANCH   5  14
TORSDOF 4
ENDMDL
MODEL 2
REMARK VINA RESULT:    -8.367      2.021      3.916
REMARK INTER + INTRA:         -11.020
REMARK INTER:                 -10.384
REMARK INTRA:                  -0.636
REMARK UNBOUND:                -0.696
REMARK  Name = 
REMARK  4 active torsions:
REMARK  status: ('A' for Active; 'I' for Inactive)
REMARK    1  A    between atoms: C_2  and  C_4
REMARK    2  A    between atoms: N_8  and  C_9
REMARK    3  A    between atoms: C_9  and  C_10
REMARK    4  A    between atoms: C_14  and  C_15
REMARK                            x       y       z     vdW  Elec       q    Type
REMARK                         _______ _______ _______ _____ _____    ______ ____
ROOT
ATOM      1  C   UNL     1      46.495   2.704   7.510  0.00  0.00    +0.000 A 
ATOM      2  C   UNL     1      46.255   4.045   7.790  0.00  0.00    +0.000 A 
ATOM      3  C   UNL     1      45.357   4.375   8.805  0.00  0.00    +0.000 A 
ATOM      4  C   UNL     1      44.708   3.372   9.515  0.00  0.00    +0.000 A 
ATOM      5  N   UNL     1      43.875   3.603  10.570  0.00  0.00    +0.000 N 
ATOM      6  N   UNL     1      44.909   2.069   9.223  0.00  0.00    +0.000 NA
ATOM      7  C   UNL     1      45.785   1.760   8.231  0.00  0.00    +0.000 A 
ATOM      8  H   UNL     1      43.414   2.765  10.899  0.00  0.00    +0.000 HD
ENDROOT
BRANCH   1  10
ATOM      9  N   UNL     1      47.429   2.912   5.279  0.00  0.00    +0.000 N 
ATOM     10  C   UNL     1      47.460   2.262   6.483  0.00  0.00    +0.000 C 
ATOM     11  O   UNL     1      48.278   1.381   6.708  0.00  0.00    +0.000 OA
ATOM     12  H   UNL     1      48.158   2.674   4.620  0.00  0.00    +0.000 HD
ATOM     13  H   UNL     1      46.953   3.793   5.148  0.00  0.00    +0.000 HD
ENDBRANCH   1  10
BRANCH   5  14
ATOM     14  C   UNL     1      43.431   4.885  11.054  0.00  0.00    +0.000 C 
BRANCH  14  15
ATOM     15  C   UNL     1      44.551   5.660  11.707  0.00  0.00    +0.000 A 
ATOM     16  C   UNL     1      44.740   7.015  11.411  0.00  0.00    +0.000 A 
ATOM     17  C   UNL     1      45.742   7.740  12.049  0.00  0.00    +0.000 A 
ATOM     18  C   UNL     1      46.553   7.123  13.004  0.00  0.00    +0.000 A 
ATOM     19  C   UNL     1      46.373   5.775  13.361  0.00  0.00    +0.000 A 
ATOM     20  C   UNL     1      45.375   5.054  12.676  0.00  0.00    +0.000 A 
BRANCH  19  21
ATOM     21  C   UNL     1      47.143   5.166  14.467  0.00  0.00    +0.000 A 
ATOM     22  C   UNL     1      47.915   5.950  15.340  0.00  0.00    +0.000 A 
ATOM     23  C   UNL     1      48.584   5.376  16.420  0.00  0.00    +0.000 A 
ATOM     24  C   UNL     1      48.463   4.014  16.613  0.00  0.00    +0.000 A 
ATOM     25  N   UNL     1      47.748   3.207  15.803  0.00  0.00    +0.000 NA
ATOM     26  C   UNL     1      47.116   3.800  14.756  0.00  0.00    +0.000 A 
ENDBRANCH  19  21
ENDBRANCH  14  15
ENDBRANCH   5  14
TORSDOF 4
ENDMDL
MODEL 3
REMARK VINA RESULT:    -7.875      1.722      2.218
REMARK INTER + INTRA:         -10.411
REMARK INTER:                  -9.700
REMARK INTRA:                  -0.711
REMARK UNBOUND:                -0.696
REMARK  Name = 
REMARK  4 active torsions:
REMARK  status: ('A' for Active; 'I' for Inactive)
REMARK    1  A    between atoms: C_2  and  C_4
REMARK    2  A    between atoms: N_8  and  C_9
REMARK    3  A    between atoms: C_9  and  C_10
REMARK    4  A    between atoms: C_14  and  C_15
REMARK                            x       y       z     vdW  Elec       q    Type
REMARK                         _______ _______ _______ _____ _____    ______ ____
ROOT
ATOM      1  C   UNL     1      46.387   2.203   7.577  0.00  0.00    +0.000 A 
ATOM      2  C   UNL     1      45.984   1.916   8.876  0.00  0.00    +0.000 A 
ATOM      3  C   UNL     1      45.185   2.833   9.558  0.00  0.00    +0.000 A 
ATOM      4  C   UNL     1      44.810   4.021   8.943  0.00  0.00    +0.000 A 
ATOM      5  N   UNL     1      43.971   4.938   9.506  0.00  0.00    +0.000 N 
ATOM      6  N   UNL     1      45.228   4.324   7.695  0.00  0.00    +0.000 NA
ATOM      7  C   UNL     1      46.007   3.422   7.042  0.00  0.00    +0.000 A 
ATOM      8  H   UNL     1      43.891   5.786   8.960  0.00  0.00    +0.000 HD
ENDROOT
BRANCH   1  10
ATOM      9  N   UNL     1      48.232   1.808   6.049  0.00  0.00    +0.000 N 
ATOM     10  C   UNL     1      47.197   1.272   6.766  0.00  0.00    +0.000 C 
ATOM     11  O   UNL     1      46.979   0.069   6.762  0.00  0.00    +0.000 OA
ATOM     12  H   UNL     1      48.842   1.154   5.579  0.00  0.00    +0.000 HD
ATOM     13  H   UNL     1      48.591   2.737   6.223  0.00  0.00    +0.000 HD
ENDBRANCH   1  10
BRANCH   5  14
ATOM     14  C   UNL     1      43.433   4.908  10.841  0.00  0.00    +0.000 C 
BRANCH  14  15
ATOM     15  C   UNL     1      44.486   5.212  11.881  0.00  0.00    +0.000 A 
ATOM     16  C   UNL     1      44.717   4.321  12.936  0.00  0.00    +0.000 A 
ATOM     17  C   UNL     1      45.719   4.578  13.865  0.00  0.00    +0.000 A 
ATOM     18  C   UNL     1      46.515   5.719  13.740  0.00  0.00    +0.000 A 
ATOM     19  C   UNL     1      46.344   6.621  12.674  0.00  0.00    +0.000 A 
ATOM     20  C   UNL     1      45.300   6.355  11.766  0.00  0.00    +0.000 A 
BRANCH  19  21
ATOM     21  C   UNL     1      47.276   7.751  12.471  0.00  0.00    +0.000 A 
ATOM     22  C   UNL     1      48.476   7.592  11.758  0.00  0.00    +0.000 A 
ATOM     23  C   UNL     1      49.315   8.678  11.513  0.00  0.00    +0.000 A 
ATOM     24  C   UNL     1      48.933   9.918  11.987  0.00  0.00    +0.000 A 
ATOM     25  N   UNL     1      47.802  10.131  12.688  0.00  0.00    +0.000 NA
ATOM     26  C   UNL     1      47.012   9.049  12.914  0.00  0.00    +0.000 A 
ENDBRANCH  19  21
ENDBRANCH  14  15
ENDBRANCH   5  14
TORSDOF 4
ENDMDL
MODEL 4
REMARK VINA RESULT:    -7.412      3.331      7.308
REMARK INTER + INTRA:          -9.841
REMARK INTER:                  -9.145
REMARK INTRA:                  -0.696
REMARK UNBOUND:                -0.696
REMARK  Name = 
REMARK  4 active torsions:
REMARK  status: ('A' for Active; 'I' for Inactive)
REMARK    1  A    between atoms: C_2  and  C_4
REMARK    2  A    between atoms: N_8  and  C_9
REMARK    3  A    between atoms: C_9  and  C_10
REMARK    4  A    between atoms: C_14  and  C_15
REMARK                            x       y       z     vdW  Elec       q    Type
REMARK                         _______ _______ _______ _____ _____    ______ ____
ROOT
ATOM      1  C   UNL     1      49.541   7.631  13.104  0.00  0.00    +0.000 A 
ATOM      2  C   UNL     1      48.943   7.716  11.851  0.00  0.00    +0.000 A 
ATOM      3  C   UNL     1      47.633   7.267  11.693  0.00  0.00    +0.000 A 
ATOM      4  C   UNL     1      46.944   6.734  12.775  0.00  0.00    +0.000 A 
ATOM      5  N   UNL     1      45.638   6.341  12.729  0.00  0.00    +0.000 N 
ATOM      6  N   UNL     1      47.530   6.615  13.986  0.00  0.00    +0.000 NA
ATOM      7  C   UNL     1      48.808   7.055  14.127  0.00  0.00    +0.000 A 
ATOM      8  H   UNL     1      45.333   5.884  13.578  0.00  0.00    +0.000 HD
ENDROOT
BRANCH   1  10
ATOM      9  N   UNL     1      51.480   7.752  14.560  0.00  0.00    +0.000 N 
ATOM     10  C   UNL     1      50.907   8.122  13.373  0.00  0.00    +0.000 C 
ATOM     11  O   UNL     1      51.519   8.797  12.557  0.00  0.00    +0.000 OA
ATOM     12  H   UNL     1      52.449   8.005  14.691  0.00  0.00    +0.000 HD
ATOM     13  H   UNL     1      51.112   7.003  15.131  0.00  0.00    +0.000 HD
ENDBRANCH   1  10
BRANCH   5  14
ATOM     14  C   UNL     1      44.793   6.293  11.563  0.00  0.00    +0.000 C 
BRANCH  14  15
ATOM     15  C   UNL     1      44.610   4.881  11.057  0.00  0.00    +0.000 A 
ATOM     16  C   UNL     1      43.633   4.051  11.619  0.00  0.00    +0.000 A 
ATOM     17  C   UNL     1      43.432   2.767  11.120  0.00  0.00    +0.000 A 
ATOM     18  C   UNL     1      44.192   2.307  10.043  0.00  0.00    +0.000 A 
ATOM     19  C   UNL     1      45.157   3.121   9.423  0.00  0.00    +0.000 A 
ATOM     20  C   UNL     1      45.365   4.403   9.968  0.00  0.00    +0.000 A 
BRANCH  19  21
ATOM     21  C   UNL     1      45.861   2.679   8.200  0.00  0.00    +0.000 A 
ATOM     22  C   UNL     1      46.078   3.554   7.123  0.00  0.00    +0.000 A 
ATOM     23  C   UNL     1      46.802   3.149   6.003  0.00  0.00    +0.000 A 
ATOM     24  C   UNL     1      47.305   1.862   5.981  0.00  0.00    +0.000 A 
ATOM     25  N   UNL     1      47.119   0.973   6.977  0.00  0.00    +0.000 NA
ATOM     26  C   UNL     1      46.403   1.400   8.050  0.00  0.00    +0.000 A 
ENDBRANCH  19  21
ENDBRANCH  14  15
ENDBRANCH   5  14
TORSDOF 4
ENDMDL
MODEL 5
REMARK VINA RESULT:    -7.305      2.949      6.941
REMARK INTER + INTRA:          -9.709
REMARK INTER:                  -9.479
REMARK INTRA:                  -0.229
REMARK UNBOUND:                -0.696
REMARK  Name = 
REMARK  4 active torsions:
REMARK  status: ('A' for Active; 'I' for Inactive)
REMARK    1  A    between atoms: C_2  and  C_4
REMARK    2  A    between atoms: N_8  and  C_9
REMARK    3  A    between atoms: C_9  and  C_10
REMARK    4  A    between atoms: C_14  and  C_15
REMARK                            x       y       z     vdW  Elec       q    Type
REMARK                         _______ _______ _______ _____ _____    ______ ____
ROOT
ATOM      1  C   UNL     1      47.846   7.034  13.434  0.00  0.00    +0.000 A 
ATOM      2  C   UNL     1      46.916   6.012  13.585  0.00  0.00    +0.000 A 
ATOM      3  C   UNL     1      45.703   6.092  12.902  0.00  0.00    +0.000 A 
ATOM      4  C   UNL     1      45.431   7.188  12.092  0.00  0.00    +0.000 A 
ATOM      5  N   UNL     1      44.305   7.312  11.331  0.00  0.00    +0.000 N 
ATOM      6  N   UNL     1      46.314   8.202  11.969  0.00  0.00    +0.000 NA
ATOM      7  C   UNL     1      47.492   8.112  12.641  0.00  0.00    +0.000 A 
ATOM      8  H   UNL     1      44.228   8.217  10.886  0.00  0.00    +0.000 HD
ENDROOT
BRANCH   1  10
ATOM      9  N   UNL     1      50.198   7.636  13.427  0.00  0.00    +0.000 N 
ATOM     10  C   UNL     1      49.172   7.012  14.084  0.00  0.00    +0.000 C 
ATOM     11  O   UNL     1      49.342   6.494  15.178  0.00  0.00    +0.000 OA
ATOM     12  H   UNL     1      51.075   7.705  13.924  0.00  0.00    +0.000 HD
ATOM     13  H   UNL     1      50.044   8.279  12.663  0.00  0.00    +0.000 HD
ENDBRANCH   1  10
BRANCH   5  14
ATOM     14  C   UNL     1      43.172   6.422  11.316  0.00  0.00    +0.000 C 
BRANCH  14  15
ATOM     15  C   UNL     1      43.584   4.989  11.070  0.00  0.00    +0.000 A 
ATOM     16  C   UNL     1      43.028   3.953  11.831  0.00  0.00    +0.000 A 
ATOM     17  C   UNL     1      43.372   2.630  11.572  0.00  0.00    +0.000 A 
ATOM     18  C   UNL     1      44.259   2.327  10.537  0.00  0.00    +0.000 A 
ATOM     19  C   UNL     1      44.811   3.332   9.723  0.00  0.00    +0.000 A 
ATOM     20  C   UNL     1      44.474   4.665  10.028  0.00  0.00    +0.000 A 
BRANCH  19  21
ATOM     21  C   UNL     1      45.642   2.995   8.547  0.00  0.00    +0.000 A 
ATOM     22  C   UNL     1      46.113   1.689   8.333  0.00  0.00    +0.000 A 
ATOM     23  C   UNL     1      46.839   1.365   7.188  0.00  0.00    +0.000 A 
ATOM     24  C   UNL     1      47.078   2.364   6.264  0.00  0.00    +0.000 A 
ATOM     25  N   UNL     1      46.663   3.637   6.418  0.00  0.00    +0.000 NA
ATOM     26  C   UNL     1      45.966   3.918   7.550  0.00  0.00    +0.000 A 
ENDBRANCH  19  21
ENDBRANCH  14  15
ENDBRANCH   5  14
TORSDOF 4
ENDMDL
MODEL 6
REMARK VINA RESULT:    -7.187      4.659      8.274
REMARK INTER + INTRA:          -9.563
REMARK INTER:                  -9.103
REMARK INTRA:                  -0.461
REMARK UNBOUND:                -0.696
REMARK  Name = 
REMARK  4 active torsions:
REMARK  status: ('A' for Active; 'I' for Inactive)
REMARK    1  A    between atoms: C_2  and  C_4
REMARK    2  A    between atoms: N_8  and  C_9
REMARK    3  A    between atoms: C_9  and  C_10
REMARK    4  A    between atoms: C_14  and  C_15
REMARK                            x       y       z     vdW  Elec       q    Type
REMARK                         _______ _______ _______ _____ _____    ______ ____
ROOT
ATOM      1  C   UNL     1      48.592   4.333  17.817  0.00  0.00    +0.000 A 
ATOM      2  C   UNL     1      48.623   5.488  17.044  0.00  0.00    +0.000 A 
ATOM      3  C   UNL     1      47.883   5.534  15.863  0.00  0.00    +0.000 A 
ATOM      4  C   UNL     1      47.136   4.432  15.466  0.00  0.00    +0.000 A 
ATOM      5  N   UNL     1      46.326   4.416  14.368  0.00  0.00    +0.000 N 
ATOM      6  N   UNL     1      47.130   3.294  16.193  0.00  0.00    +0.000 NA
ATOM      7  C   UNL     1      47.856   3.261  17.341  0.00  0.00    +0.000 A 
ATOM      8  H   UNL     1      45.940   3.501  14.176  0.00  0.00    +0.000 HD
ENDROOT
BRANCH   1  10
ATOM      9  N   UNL     1      48.631   3.632  20.141  0.00  0.00    +0.000 N 
ATOM     10  C   UNL     1      49.309   4.211  19.102  0.00  0.00    +0.000 C 
ATOM     11  O   UNL     1      50.470   4.575  19.227  0.00  0.00    +0.000 OA
ATOM     12  H   UNL     1      49.161   3.460  20.984  0.00  0.00    +0.000 HD
ATOM     13  H   UNL     1      47.782   3.100  20.008  0.00  0.00    +0.000 HD
ENDBRANCH   1  10
BRANCH   5  14
ATOM     14  C   UNL     1      46.190   5.458  13.382  0.00  0.00    +0.000 C 
BRANCH  14  15
ATOM     15  C   UNL     1      45.289   5.042  12.243  0.00  0.00    +0.000 A 
ATOM     16  C   UNL     1      43.956   5.466  12.204  0.00  0.00    +0.000 A 
ATOM     17  C   UNL     1      43.140   5.122  11.130  0.00  0.00    +0.000 A 
ATOM     18  C   UNL     1      43.655   4.368  10.074  0.00  0.00    +0.000 A 
ATOM     19  C   UNL     1      44.999   3.953  10.052  0.00  0.00    +0.000 A 
ATOM     20  C   UNL     1      45.793   4.285  11.167  0.00  0.00    +0.000 A 
BRANCH  19  21
ATOM     21  C   UNL     1      45.571   3.272   8.871  0.00  0.00    +0.000 A 
ATOM     22  C   UNL     1      46.023   3.997   7.755  0.00  0.00    +0.000 A 
ATOM     23  C   UNL     1      46.622   3.353   6.675  0.00  0.00    +0.000 A 
ATOM     24  C   UNL     1      46.766   1.980   6.731  0.00  0.00    +0.000 A 
ATOM     25  N   UNL     1      46.342   1.229   7.768  0.00  0.00    +0.000 NA
ATOM     26  C   UNL     1      45.756   1.890   8.800  0.00  0.00    +0.000 A 
ENDBRANCH  19  21
ENDBRANCH  14  15
ENDBRANCH   5  14
TORSDOF 4
ENDMDL
MODEL 7
REMARK VINA RESULT:    -6.610      3.061      7.090
REMARK INTER + INTRA:          -8.851
REMARK INTER:                  -8.135
REMARK INTRA:                  -0.716
REMARK UNBOUND:                -0.696
REMARK  Name = 
REMARK  4 active torsions:
REMARK  status: ('A' for Active; 'I' for Inactive)
REMARK    1  A    between atoms: C_2  and  C_4
REMARK    2  A    between atoms: N_8  and  C_9
REMARK    3  A    between atoms: C_9  and  C_10
REMARK    4  A    between atoms: C_14  and  C_15
REMARK                            x       y       z     vdW  Elec       q    Type
REMARK                         _______ _______ _______ _____ _____    ______ ____
ROOT
ATOM      1  C   UNL     1      48.283   9.207  12.068  0.00  0.00    +0.000 A 
ATOM      2  C   UNL     1      48.705   7.914  12.358  0.00  0.00    +0.000 A 
ATOM      3  C   UNL     1      47.761   6.964  12.747  0.00  0.00    +0.000 A 
ATOM      4  C   UNL     1      46.421   7.316  12.852  0.00  0.00    +0.000 A 
ATOM      5  N   UNL     1      45.423   6.435  13.152  0.00  0.00    +0.000 N 
ATOM      6  N   UNL     1      46.009   8.579  12.607  0.00  0.00    +0.000 NA
ATOM      7  C   UNL     1      46.939   9.495  12.230  0.00  0.00    +0.000 A 
ATOM      8  H   UNL     1      44.527   6.885  13.285  0.00  0.00    +0.000 HD
ENDROOT
BRANCH   1  10
ATOM      9  N   UNL     1      50.350   9.861  10.975  0.00  0.00    +0.000 N 
ATOM     10  C   UNL     1      49.205  10.264  11.607  0.00  0.00    +0.000 C 
ATOM     11  O   UNL     1      48.943  11.450  11.747  0.00  0.00    +0.000 OA
ATOM     12  H   UNL     1      50.924  10.589  10.573  0.00  0.00    +0.000 HD
ATOM     13  H   UNL     1      50.475   8.921  10.623  0.00  0.00    +0.000 HD
ENDBRANCH   1  10
BRANCH   5  14
ATOM     14  C   UNL     1      45.578   5.051  13.523  0.00  0.00    +0.000 C 
BRANCH  14  15
ATOM     15  C   UNL     1      45.000   4.121  12.482  0.00  0.00    +0.000 A 
ATOM     16  C   UNL     1      43.762   3.502  12.696  0.00  0.00    +0.000 A 
ATOM     17  C   UNL     1      43.208   2.683  11.717  0.00  0.00    +0.000 A 
ATOM     18  C   UNL     1      43.875   2.491  10.505  0.00  0.00    +0.000 A 
ATOM     19  C   UNL     1      45.101   3.124  10.232  0.00  0.00    +0.000 A 
ATOM     20  C   UNL     1      45.657   3.920  11.253  0.00  0.00    +0.000 A 
BRANCH  19  21
ATOM     21  C   UNL     1      45.734   3.024   8.899  0.00  0.00    +0.000 A 
ATOM     22  C   UNL     1      46.143   1.788   8.373  0.00  0.00    +0.000 A 
ATOM     23  C   UNL     1      46.677   1.694   7.089  0.00  0.00    +0.000 A 
ATOM     24  C   UNL     1      46.790   2.851   6.343  0.00  0.00    +0.000 A 
ATOM     25  N   UNL     1      46.427   4.068   6.797  0.00  0.00    +0.000 NA
ATOM     26  C   UNL     1      45.918   4.122   8.056  0.00  0.00    +0.000 A 
ENDBRANCH  19  21
ENDBRANCH  14  15
ENDBRANCH   5  14
TORSDOF 4
ENDMDL
MODEL 8
REMARK VINA RESULT:    -6.528      5.982      8.415
REMARK INTER + INTRA:          -8.750
REMARK INTER:                  -8.040
REMARK INTRA:                  -0.710
REMARK UNBOUND:                -0.696
REMARK  Name = 
REMARK  4 active torsions:
REMARK  status: ('A' for Active; 'I' for Inactive)
REMARK    1  A    between atoms: C_2  and  C_4
REMARK    2  A    between atoms: N_8  and  C_9
REMARK    3  A    between atoms: C_9  and  C_10
REMARK    4  A    between atoms: C_14  and  C_15
REMARK                            x       y       z     vdW  Elec       q    Type
REMARK                         _______ _______ _______ _____ _____    ______ ____
ROOT
ATOM      1  C   UNL     1      52.147   2.415  17.799  0.00  0.00    +0.000 A 
ATOM      2  C   UNL     1      51.548   3.647  18.042  0.00  0.00    +0.000 A 
ATOM      3  C   UNL     1      50.225   3.847  17.651  0.00  0.00    +0.000 A 
ATOM      4  C   UNL     1      49.524   2.829  17.017  0.00  0.00    +0.000 A 
ATOM      5  N   UNL     1      48.208   2.912  16.668  0.00  0.00    +0.000 N 
ATOM      6  N   UNL     1      50.110   1.642  16.745  0.00  0.00    +0.000 NA
ATOM      7  C   UNL     1      51.400   1.460  17.130  0.00  0.00    +0.000 A 
ATOM      8  H   UNL     1      47.893   2.118  16.126  0.00  0.00    +0.000 HD
ENDROOT
BRANCH   1  10
ATOM      9  N   UNL     1      53.821   2.236  19.548  0.00  0.00    +0.000 N 
ATOM     10  C   UNL     1      53.527   2.100  18.218  0.00  0.00    +0.000 C 
ATOM     11  O   UNL     1      54.363   1.698  17.422  0.00  0.00    +0.000 OA
ATOM     12  H   UNL     1      54.735   1.921  19.842  0.00  0.00    +0.000 HD
ATOM     13  H   UNL     1      53.106   2.317  20.258  0.00  0.00    +0.000 HD
ENDBRANCH   1  10
BRANCH   5  14
ATOM     14  C   UNL     1      47.360   4.071  16.777  0.00  0.00    +0.000 C 
BRANCH  14  15
ATOM     15  C   UNL     1      47.324   4.866  15.492  0.00  0.00    +0.000 A 
ATOM     16  C   UNL     1      48.207   5.934  15.297  0.00  0.00    +0.000 A 
ATOM     17  C   UNL     1      48.206   6.635  14.094  0.00  0.00    +0.000 A 
ATOM     18  C   UNL     1      47.336   6.262  13.068  0.00  0.00    +0.000 A 
ATOM     19  C   UNL     1      46.460   5.171  13.206  0.00  0.00    +0.000 A 
ATOM     20  C   UNL     1      46.456   4.501  14.444  0.00  0.00    +0.000 A 
BRANCH  19  21
ATOM     21  C   UNL     1      45.640   4.698  12.069  0.00  0.00    +0.000 A 
ATOM     22  C   UNL     1      45.655   5.360  10.830  0.00  0.00    +0.000 A 
ATOM     23  C   UNL     1      44.932   4.869   9.744  0.00  0.00    +0.000 A 
ATOM     24  C   UNL     1      44.201   3.710   9.918  0.00  0.00    +0.000 A 
ATOM     25  N   UNL     1      44.136   3.037  11.085  0.00  0.00    +0.000 NA
ATOM     26  C   UNL     1      44.848   3.549  12.123  0.00  0.00    +0.000 A 
ENDBRANCH  19  21
ENDBRANCH  14  15
ENDBRANCH   5  14
TORSDOF 4
ENDMDL
MODEL 9
REMARK VINA RESULT:    -6.505      5.304      8.617
REMARK INTER + INTRA:          -8.722
REMARK INTER:                  -8.190
REMARK INTRA:                  -0.532
REMARK UNBOUND:                -0.696
REMARK  Name = 
REMARK  4 active torsions:
REMARK  status: ('A' for Active; 'I' for Inactive)
REMARK    1  A    between atoms: C_2  and  C_4
REMARK    2  A    between atoms: N_8  and  C_9
REMARK    3  A    between atoms: C_9  and  C_10
REMARK    4  A    between atoms: C_14  and  C_15
REMARK                            x       y       z     vdW  Elec       q    Type
REMARK                         _______ _______ _______ _____ _____    ______ ____
ROOT
ATOM      1  C   UNL     1      49.245   5.234  18.736  0.00  0.00    +0.000 A 
ATOM      2  C   UNL     1      49.209   6.570  18.351  0.00  0.00    +0.000 A 
ATOM      3  C   UNL     1      48.858   6.889  17.040  0.00  0.00    +0.000 A 
ATOM      4  C   UNL     1      48.559   5.879  16.133  0.00  0.00    +0.000 A 
ATOM      5  N   UNL     1      48.134   6.102  14.856  0.00  0.00    +0.000 N 
ATOM      6  N   UNL     1      48.627   4.578  16.490  0.00  0.00    +0.000 NA
ATOM      7  C   UNL     1      48.972   4.280  17.770  0.00  0.00    +0.000 A 
ATOM      8  H   UNL     1      48.063   5.254  14.310  0.00  0.00    +0.000 HD
ENDROOT
BRANCH   1  10
ATOM      9  N   UNL     1      48.647   4.012  20.746  0.00  0.00    +0.000 N 
ATOM     10  C   UNL     1      49.564   4.807  20.113  0.00  0.00    +0.000 C 
ATOM     11  O   UNL     1      50.616   5.116  20.653  0.00  0.00    +0.000 OA
ATOM     12  H   UNL     1      48.918   3.641  21.647  0.00  0.00    +0.000 HD
ATOM     13  H   UNL     1      47.904   3.538  20.252  0.00  0.00    +0.000 HD
ENDBRANCH   1  10
BRANCH   5  14
ATOM     14  C   UNL     1      48.035   7.376  14.192  0.00  0.00    +0.000 C 
BRANCH  14  15
ATOM     15  C   UNL     1      46.868   7.422  13.233  0.00  0.00    +0.000 A 
ATOM     16  C   UNL     1      46.174   8.619  13.021  0.00  0.00    +0.000 A 
ATOM     17  C   UNL     1      45.130   8.673  12.102  0.00  0.00    +0.000 A 
ATOM     18  C   UNL     1      44.783   7.535  11.371  0.00  0.00    +0.000 A 
ATOM     19  C   UNL     1      45.478   6.322  11.523  0.00  0.00    +0.000 A 
ATOM     20  C   UNL     1      46.507   6.286  12.484  0.00  0.00    +0.000 A 
BRANCH  19  21
ATOM     21  C   UNL     1      45.195   5.162  10.650  0.00  0.00    +0.000 A 
ATOM     22  C   UNL     1      45.590   5.146   9.302  0.00  0.00    +0.000 A 
ATOM     23  C   UNL     1      45.379   4.022   8.505  0.00  0.00    +0.000 A 
ATOM     24  C   UNL     1      44.774   2.920   9.078  0.00  0.00    +0.000 A 
ATOM     25  N   UNL     1      44.361   2.880  10.361  0.00  0.00    +0.000 NA
ATOM     26  C   UNL     1      44.576   3.996  11.106  0.00  0.00    +0.000 A 
ENDBRANCH  19  21
ENDBRANCH  14  15
ENDBRANCH   5  14
TORSDOF 4
ENDMDL
