MODEL 1
REMARK VINA RESULT:    -7.544      0.000      0.000
REMARK INTER + INTRA:         -11.247
REMARK INTER:                 -10.190
REMARK INTRA:                  -1.057
REMARK UNBOUND:                -1.057
REMARK  Name = 
REMARK  7 active torsions:
REMARK  status: ('A' for Active; 'I' for Inactive)
REMARK    1  A    between atoms: C_1  and  N_2
REMARK    2  A    between atoms: N_2  and  C_3
REMARK    3  A    between atoms: C_3  and  C_4
REMARK    4  A    between atoms: C_7  and  C_8
REMARK    5  A    between atoms: C_8  and  N_9
REMARK    6  A    between atoms: C_10  and  C_12
REMARK    7  A    between atoms: C_19  and  C_21
REMARK                            x       y       z     vdW  Elec       q    Type
REMARK                         _______ _______ _______ _____ _____    ______ ____
ROOT
ATOM      1  C   UNL     1      46.257   6.482  13.018  0.00  0.00    +0.000 A 
ATOM      2  N   UNL     1      46.383   5.204  13.425  0.00  0.00    +0.000 NA
ATOM      3  C   UNL     1      45.678   4.283  12.738  0.00  0.00    +0.000 A 
ATOM      4  C   UNL     1      44.863   4.581  11.665  0.00  0.00    +0.000 A 
ATOM      5  C   UNL     1      44.771   5.923  11.361  0.00  0.00    +0.000 A 
ATOM      6  N   UNL     1      45.452   6.884  12.010  0.00  0.00    +0.000 NA
ENDROOT
BRANCH   1   7
ATOM      7  C   UNL     1      47.082   7.551  13.708  0.00  0.00    +0.000 C 
BRANCH   7   9
ATOM      8  C   UNL     1      49.275   7.728  12.499  0.00  0.00    +0.000 C 
ATOM      9  N   UNL     1      48.543   7.372  13.711  0.00  0.00    +0.000 N 
ATOM     10  C   UNL     1      49.313   7.199  14.869  0.00  0.00    +0.000 C 
ATOM     11  O   UNL     1      50.519   6.967  14.788  0.00  0.00    +0.000 OA
BRANCH  10  12
ATOM     12  C   UNL     1      48.745   7.442  16.209  0.00  0.00    +0.000 A 
ATOM     13  C   UNL     1      48.508   8.672  16.798  0.00  0.00    +0.000 A 
ATOM     14  S   UNL     1      48.279   8.589  18.493  0.00  0.00    +0.000 S 
ATOM     15  C   UNL     1      48.501   6.904  18.486  0.00  0.00    +0.000 A 
ATOM     16  N   UNL     1      48.597   6.194  19.641  0.00  0.00    +0.000 NA
ATOM     17  C   UNL     1      48.748   4.922  19.464  0.00  0.00    +0.000 A 
ATOM     18  N   UNL     1      48.752   4.293  18.244  0.00  0.00    +0.000 N 
ATOM     19  C   UNL     1      48.562   4.964  17.055  0.00  0.00    +0.000 A 
ATOM     20  O   UNL     1      48.311   4.367  16.015  0.00  0.00    +0.000 OA
ATOM     21  C   UNL     1      48.566   6.407  17.200  0.00  0.00    +0.000 A 
ATOM     22  H   UNL     1      48.743   3.286  18.183  0.00  0.00    +0.000 HD
ENDBRANCH  10  12
ENDBRANCH   7   9
ENDBRANCH   1   7
BRANCH   4  23
ATOM     23  C   UNL     1      44.157   3.537  10.872  0.00  0.00    +0.000 C 
BRANCH  23  24
ATOM     24  N   UNL     1      45.015   2.876   9.925  0.00  0.00    +0.000 N 
ATOM     25  C   UNL     1      45.135   3.386   8.648  0.00  0.00    +0.000 C 
ATOM     26  O   UNL     1      44.503   4.369   8.275  0.00  0.00    +0.000 OA
ATOM     27  H   UNL     1      45.627   2.131  10.225  0.00  0.00    +0.000 HD
BRANCH  25  28
ATOM     28  C   UNL     1      46.073   2.675   7.780  0.00  0.00    +0.000 A 
ATOM     29  C   UNL     1      46.776   3.113   6.617  0.00  0.00    +0.000 A 
ATOM     30  C   UNL     1      47.549   2.066   6.166  0.00  0.00    +0.000 A 
ATOM     31  N   UNL     1      47.348   1.001   7.004  0.00  0.00    +0.000 N 
ATOM     32  C   UNL     1      46.460   1.359   7.981  0.00  0.00    +0.000 A 
ATOM     33  H   UNL     1      47.789   0.095   6.917  0.00  0.00    +0.000 HD
ENDBRANCH  25  28
ENDBRANCH  23  24
ENDBRANCH   4  23
TORSDOF 6
ENDMDL
MODEL 2
REMARK VINA RESULT:    -7.412      3.346      8.256
REMARK INTER + INTRA:         -11.069
REMARK INTER:                 -10.071
REMARK INTRA:                  -0.998
REMARK UNBOUND:                -1.057
REMARK  Name = 
REMARK  7 active torsions:
REMARK  status: ('A' for Active; 'I' for Inactive)
REMARK    1  A    between atoms: C_1  and  N_2
REMARK    2  A    between atoms: N_2  and  C_3
REMARK    3  A    between atoms: C_3  and  C_4
REMARK    4  A    between atoms: C_7  and  C_8
REMARK    5  A    between atoms: C_8  and  N_9
REMARK    6  A    between atoms: C_10  and  C_12
REMARK    7  A    between atoms: C_19  and  C_21
REMARK                            x       y       z     vdW  Elec       q    Type
REMARK                         _______ _______ _______ _____ _____    ______ ____
ROOT
ATOM      1  C   UNL     1      48.082   6.710  13.798  0.00  0.00    +0.000 A 
ATOM      2  N   UNL     1      48.652   7.679  14.541  0.00  0.00    +0.000 NA
ATOM      3  C   UNL     1      48.986   7.347  15.804  0.00  0.00    +0.000 A 
ATOM      4  C   UNL     1      48.782   6.096  16.351  0.00  0.00    +0.000 A 
ATOM      5  C   UNL     1      48.152   5.195  15.520  0.00  0.00    +0.000 A 
ATOM      6  N   UNL     1      47.798   5.470  14.252  0.00  0.00    +0.000 NA
ENDROOT
BRANCH   1   7
ATOM      7  C   UNL     1      47.751   7.005  12.348  0.00  0.00    +0.000 C 
BRANCH   7   9
ATOM      8  C   UNL     1      46.571   9.210  12.122  0.00  0.00    +0.000 C 
ATOM      9  N   UNL     1      46.510   7.751  12.082  0.00  0.00    +0.000 N 
ATOM     10  C   UNL     1      45.371   7.197  11.484  0.00  0.00    +0.000 C 
ATOM     11  O   UNL     1      44.339   7.860  11.373  0.00  0.00    +0.000 OA
BRANCH  10  12
ATOM     12  C   UNL     1      45.414   5.874  10.833  0.00  0.00    +0.000 A 
ATOM     13  C   UNL     1      45.812   5.601   9.535  0.00  0.00    +0.000 A 
ATOM     14  S   UNL     1      45.315   4.062   8.974  0.00  0.00    +0.000 S 
ATOM     15  C   UNL     1      44.545   3.722  10.451  0.00  0.00    +0.000 A 
ATOM     16  N   UNL     1      43.766   2.620  10.610  0.00  0.00    +0.000 NA
ATOM     17  C   UNL     1      43.265   2.497  11.796  0.00  0.00    +0.000 A 
ATOM     18  N   UNL     1      43.521   3.342  12.848  0.00  0.00    +0.000 N 
ATOM     19  C   UNL     1      44.381   4.414  12.754  0.00  0.00    +0.000 A 
ATOM     20  O   UNL     1      44.795   4.993  13.752  0.00  0.00    +0.000 OA
ATOM     21  C   UNL     1      44.821   4.686  11.400  0.00  0.00    +0.000 A 
ATOM     22  H   UNL     1      43.205   3.115  13.779  0.00  0.00    +0.000 HD
ENDBRANCH  10  12
ENDBRANCH   7   9
ENDBRANCH   1   7
BRANCH   4  23
ATOM     23  C   UNL     1      49.233   5.731  17.722  0.00  0.00    +0.000 C 
BRANCH  23  24
ATOM     24  N   UNL     1      49.800   4.411  17.794  0.00  0.00    +0.000 N 
ATOM     25  C   UNL     1      51.139   4.231  17.509  0.00  0.00    +0.000 C 
ATOM     26  O   UNL     1      51.861   5.157  17.153  0.00  0.00    +0.000 OA
ATOM     27  H   UNL     1      49.265   3.647  18.181  0.00  0.00    +0.000 HD
BRANCH  25  28
ATOM     28  C   UNL     1      51.630   2.863  17.665  0.00  0.00    +0.000 A 
ATOM     29  C   UNL     1      52.904   2.376  18.088  0.00  0.00    +0.000 A 
ATOM     30  C   UNL     1      52.860   1.000  18.079  0.00  0.00    +0.000 A 
ATOM     31  N   UNL     1      51.611   0.620  17.667  0.00  0.00    +0.000 N 
ATOM     32  C   UNL     1      50.861   1.736  17.416  0.00  0.00    +0.000 A 
ATOM     33  H   UNL     1      51.290  -0.335  17.568  0.00  0.00    +0.000 HD
ENDBRANCH  25  28
ENDBRANCH  23  24
ENDBRANCH   4  23
TORSDOF 6
ENDMDL
MODEL 3
REMARK VINA RESULT:    -7.348      2.378      3.956
REMARK INTER + INTRA:         -10.982
REMARK INTER:                  -9.730
REMARK INTRA:                  -1.252
REMARK UNBOUND:                -1.057
REMARK  Name = 
REMARK  7 active torsions:
REMARK  status: ('A' for Active; 'I' for Inactive)
REMARK    1  A    between atoms: C_1  and  N_2
REMARK    2  A    between atoms: N_2  and  C_3
REMARK    3  A    between atoms: C_3  and  C_4
REMARK    4  A    between atoms: C_7  and  C_8
REMARK    5  A    between atoms: C_8  and  N_9
REMARK    6  A    between atoms: C_10  and  C_12
REMARK    7  A    between atoms: C_19  and  C_21
REMARK                            x       y       z     vdW  Elec       q    Type
REMARK                         _______ _______ _______ _____ _____    ______ ____
ROOT
ATOM      1  C   UNL     1      48.967   7.117  15.084  0.00  0.00    +0.000 A 
ATOM      2  N   UNL     1      48.667   8.294  14.504  0.00  0.00    +0.000 NA
ATOM      3  C   UNL     1      47.720   8.266  13.543  0.00  0.00    +0.000 A 
ATOM      4  C   UNL     1      47.062   7.120  13.146  0.00  0.00    +0.000 A 
ATOM      5  C   UNL     1      47.478   5.965  13.773  0.00  0.00    +0.000 A 
ATOM      6  N   UNL     1      48.415   5.934  14.737  0.00  0.00    +0.000 NA
ENDROOT
BRANCH   1   7
ATOM      7  C   UNL     1      49.973   7.101  16.219  0.00  0.00    +0.000 C 
BRANCH   7   9
ATOM      8  C   UNL     1      48.502   8.442  17.748  0.00  0.00    +0.000 C 
ATOM      9  N   UNL     1      49.458   7.353  17.575  0.00  0.00    +0.000 N 
ATOM     10  C   UNL     1      49.558   6.445  18.637  0.00  0.00    +0.000 C 
ATOM     11  O   UNL     1      49.182   6.760  19.765  0.00  0.00    +0.000 OA
BRANCH  10  12
ATOM     12  C   UNL     1      49.964   5.044  18.411  0.00  0.00    +0.000 A 
ATOM     13  C   UNL     1      51.227   4.508  18.594  0.00  0.00    +0.000 A 
ATOM     14  S   UNL     1      51.449   2.996  17.820  0.00  0.00    +0.000 S 
ATOM     15  C   UNL     1      49.863   3.023  17.211  0.00  0.00    +0.000 A 
ATOM     16  N   UNL     1      49.429   2.099  16.315  0.00  0.00    +0.000 NA
ATOM     17  C   UNL     1      48.194   2.249  15.962  0.00  0.00    +0.000 A 
ATOM     18  N   UNL     1      47.342   3.199  16.468  0.00  0.00    +0.000 N 
ATOM     19  C   UNL     1      47.715   4.093  17.448  0.00  0.00    +0.000 A 
ATOM     20  O   UNL     1      46.885   4.751  18.065  0.00  0.00    +0.000 OA
ATOM     21  C   UNL     1      49.135   4.071  17.739  0.00  0.00    +0.000 A 
ATOM     22  H   UNL     1      46.357   3.178  16.248  0.00  0.00    +0.000 HD
ENDBRANCH  10  12
ENDBRANCH   7   9
ENDBRANCH   1   7
BRANCH   4  23
ATOM     23  C   UNL     1      45.964   7.127  12.141  0.00  0.00    +0.000 C 
BRANCH  23  24
ATOM     24  N   UNL     1      45.951   5.949  11.315  0.00  0.00    +0.000 N 
ATOM     25  C   UNL     1      44.746   5.342  11.020  0.00  0.00    +0.000 C 
ATOM     26  O   UNL     1      43.681   5.749  11.472  0.00  0.00    +0.000 OA
ATOM     27  H   UNL     1      46.790   5.648  10.843  0.00  0.00    +0.000 HD
BRANCH  25  28
ATOM     28  C   UNL     1      44.834   4.186  10.129  0.00  0.00    +0.000 A 
ATOM     29  C   UNL     1      45.255   4.092   8.768  0.00  0.00    +0.000 A 
ATOM     30  C   UNL     1      45.166   2.773   8.383  0.00  0.00    +0.000 A 
ATOM     31  N   UNL     1      44.705   2.052   9.451  0.00  0.00    +0.000 N 
ATOM     32  C   UNL     1      44.502   2.894  10.510  0.00  0.00    +0.000 A 
ATOM     33  H   UNL     1      44.543   1.053   9.460  0.00  0.00    +0.000 HD
ENDBRANCH  25  28
ENDBRANCH  23  24
ENDBRANCH   4  23
TORSDOF 6
ENDMDL
MODEL 4
REMARK VINA RESULT:    -6.979      1.884      2.697
REMARK INTER + INTRA:         -10.484
REMARK INTER:                  -9.546
REMARK INTRA:                  -0.938
REMARK UNBOUND:                -1.057
REMARK  Name = 
REMARK  7 active torsions:
REMARK  status: ('A' for Active; 'I' for Inactive)
REMARK    1  A    between atoms: C_1  and  N_2
REMARK    2  A    between atoms: N_2  and  C_3
REMARK    3  A    between atoms: C_3  and  C_4
REMARK    4  A    between atoms: C_7  and  C_8
REMARK    5  A    between atoms: C_8  and  N_9
REMARK    6  A    between atoms: C_10  and  C_12
REMARK    7  A    between atoms: C_19  and  C_21
REMARK                            x       y       z     vdW  Elec       q    Type
REMARK                         _______ _______ _______ _____ _____    ______ ____
ROOT
ATOM      1  C   UNL     1      46.134   6.849  12.769  0.00  0.00    +0.000 A 
ATOM      2  N   UNL     1      46.451   5.540  12.720  0.00  0.00    +0.000 NA
ATOM      3  C   UNL     1      45.676   4.765  11.935  0.00  0.00    +0.000 A 
ATOM      4  C   UNL     1      44.610   5.239  11.197  0.00  0.00    +0.000 A 
ATOM      5  C   UNL     1      44.347   6.583  11.355  0.00  0.00    +0.000 A 
ATOM      6  N   UNL     1      45.086   7.403  12.122  0.00  0.00    +0.000 NA
ENDROOT
BRANCH   1   7
ATOM      7  C   UNL     1      47.015   7.781  13.579  0.00  0.00    +0.000 C 
BRANCH   7   9
ATOM      8  C   UNL     1      48.614   8.632  11.842  0.00  0.00    +0.000 C 
ATOM      9  N   UNL     1      48.402   7.960  13.121  0.00  0.00    +0.000 N 
ATOM     10  C   UNL     1      49.527   7.833  13.946  0.00  0.00    +0.000 C 
ATOM     11  O   UNL     1      50.660   7.911  13.472  0.00  0.00    +0.000 OA
BRANCH  10  12
ATOM     12  C   UNL     1      49.396   7.761  15.414  0.00  0.00    +0.000 A 
ATOM     13  C   UNL     1      49.379   6.614  16.189  0.00  0.00    +0.000 A 
ATOM     14  S   UNL     1      48.766   6.863  17.769  0.00  0.00    +0.000 S 
ATOM     15  C   UNL     1      48.498   8.511  17.455  0.00  0.00    +0.000 A 
ATOM     16  N   UNL     1      47.831   9.304  18.334  0.00  0.00    +0.000 NA
ATOM     17  C   UNL     1      47.725  10.535  17.955  0.00  0.00    +0.000 A 
ATOM     18  N   UNL     1      48.275  11.055  16.809  0.00  0.00    +0.000 N 
ATOM     19  C   UNL     1      49.040  10.308  15.940  0.00  0.00    +0.000 A 
ATOM     20  O   UNL     1      49.729  10.836  15.076  0.00  0.00    +0.000 OA
ATOM     21  C   UNL     1      49.033   8.889  16.239  0.00  0.00    +0.000 A 
ATOM     22  H   UNL     1      48.267  12.050  16.639  0.00  0.00    +0.000 HD
ENDBRANCH  10  12
ENDBRANCH   7   9
ENDBRANCH   1   7
BRANCH   4  23
ATOM     23  C   UNL     1      43.820   4.378  10.275  0.00  0.00    +0.000 C 
BRANCH  23  24
ATOM     24  N   UNL     1      44.614   3.363   9.635  0.00  0.00    +0.000 N 
ATOM     25  C   UNL     1      45.401   3.701   8.552  0.00  0.00    +0.000 C 
ATOM     26  O   UNL     1      45.418   4.835   8.086  0.00  0.00    +0.000 OA
ATOM     27  H   UNL     1      44.705   2.448  10.052  0.00  0.00    +0.000 HD
BRANCH  25  28
ATOM     28  C   UNL     1      46.212   2.612   8.008  0.00  0.00    +0.000 A 
ATOM     29  C   UNL     1      46.094   1.198   8.166  0.00  0.00    +0.000 A 
ATOM     30  C   UNL     1      47.099   0.602   7.438  0.00  0.00    +0.000 A 
ATOM     31  N   UNL     1      47.832   1.592   6.840  0.00  0.00    +0.000 N 
ATOM     32  C   UNL     1      47.304   2.809   7.176  0.00  0.00    +0.000 A 
ATOM     33  H   UNL     1      48.634   1.449   6.240  0.00  0.00    +0.000 HD
ENDBRANCH  25  28
ENDBRANCH  23  24
ENDBRANCH   4  23
TORSDOF 6
ENDMDL
MODEL 5
REMARK VINA RESULT:    -6.950      1.900      2.755
REMARK INTER + INTRA:         -10.445
REMARK INTER:                  -9.777
REMARK INTRA:                  -0.668
REMARK UNBOUND:                -1.057
REMARK  Name = 
REMARK  7 active torsions:
REMARK  status: ('A' for Active; 'I' for Inactive)
REMARK    1  A    between atoms: C_1  and  N_2
REMARK    2  A    between atoms: N_2  and  C_3
REMARK    3  A    between atoms: C_3  and  C_4
REMARK    4  A    between atoms: C_7  and  C_8
REMARK    5  A    between atoms: C_8  and  N_9
REMARK    6  A    between atoms: C_10  and  C_12
REMARK    7  A    between atoms: C_19  and  C_21
REMARK                            x       y       z     vdW  Elec       q    Type
REMARK                         _______ _______ _______ _____ _____    ______ ____
ROOT
ATOM      1  C   UNL     1      46.551   5.224  13.869  0.00  0.00    +0.000 A 
ATOM      2  N   UNL     1      45.492   4.392  13.898  0.00  0.00    +0.000 NA
ATOM      3  C   UNL     1      44.783   4.281  12.756  0.00  0.00    +0.000 A 
ATOM      4  C   UNL     1      45.090   4.957  11.592  0.00  0.00    +0.000 A 
ATOM      5  C   UNL     1      46.165   5.815  11.685  0.00  0.00    +0.000 A 
ATOM      6  N   UNL     1      46.907   5.964  12.796  0.00  0.00    +0.000 NA
ENDROOT
BRANCH   1   7
ATOM      7  C   UNL     1      47.425   5.333  15.103  0.00  0.00    +0.000 C 
BRANCH   7   9
ATOM      8  C   UNL     1      47.855   2.868  15.306  0.00  0.00    +0.000 C 
ATOM      9  N   UNL     1      47.536   4.137  15.953  0.00  0.00    +0.000 N 
ATOM     10  C   UNL     1      47.679   4.172  17.347  0.00  0.00    +0.000 C 
ATOM     11  O   UNL     1      47.678   3.130  18.001  0.00  0.00    +0.000 OA
BRANCH  10  12
ATOM     12  C   UNL     1      47.992   5.430  18.053  0.00  0.00    +0.000 A 
ATOM     13  C   UNL     1      47.138   6.161  18.861  0.00  0.00    +0.000 A 
ATOM     14  S   UNL     1      47.666   7.765  19.143  0.00  0.00    +0.000 S 
ATOM     15  C   UNL     1      49.048   7.528  18.183  0.00  0.00    +0.000 A 
ATOM     16  N   UNL     1      49.872   8.557  17.855  0.00  0.00    +0.000 NA
ATOM     17  C   UNL     1      50.886   8.209  17.133  0.00  0.00    +0.000 A 
ATOM     18  N   UNL     1      51.180   6.920  16.760  0.00  0.00    +0.000 N 
ATOM     19  C   UNL     1      50.423   5.837  17.152  0.00  0.00    +0.000 A 
ATOM     20  O   UNL     1      50.837   4.690  17.033  0.00  0.00    +0.000 OA
ATOM     21  C   UNL     1      49.186   6.205  17.811  0.00  0.00    +0.000 A 
ATOM     22  H   UNL     1      52.055   6.701  16.309  0.00  0.00    +0.000 HD
ENDBRANCH  10  12
ENDBRANCH   7   9
ENDBRANCH   1   7
BRANCH   4  23
ATOM     23  C   UNL     1      44.342   4.756  10.321  0.00  0.00    +0.000 C 
BRANCH  23  24
ATOM     24  N   UNL     1      45.189   4.369   9.225  0.00  0.00    +0.000 N 
ATOM     25  C   UNL     1      45.397   3.029   8.969  0.00  0.00    +0.000 C 
ATOM     26  O   UNL     1      44.915   2.147   9.672  0.00  0.00    +0.000 OA
ATOM     27  H   UNL     1      45.516   5.060   8.566  0.00  0.00    +0.000 HD
BRANCH  25  28
ATOM     28  C   UNL     1      46.227   2.740   7.800  0.00  0.00    +0.000 A 
ATOM     29  C   UNL     1      46.920   1.550   7.424  0.00  0.00    +0.000 A 
ATOM     30  C   UNL     1      47.551   1.784   6.223  0.00  0.00    +0.000 A 
ATOM     31  N   UNL     1      47.276   3.071   5.846  0.00  0.00    +0.000 N 
ATOM     32  C   UNL     1      46.478   3.656   6.789  0.00  0.00    +0.000 A 
ATOM     33  H   UNL     1      47.607   3.519   5.000  0.00  0.00    +0.000 HD
ENDBRANCH  25  28
ENDBRANCH  23  24
ENDBRANCH   4  23
TORSDOF 6
ENDMDL
MODEL 6
REMARK VINA RESULT:    -6.877      1.572      2.198
REMARK INTER + INTRA:         -10.345
REMARK INTER:                  -9.789
REMARK INTRA:                  -0.556
REMARK UNBOUND:                -1.057
REMARK  Name = 
REMARK  7 active torsions:
REMARK  status: ('A' for Active; 'I' for Inactive)
REMARK    1  A    between atoms: C_1  and  N_2
REMARK    2  A    between atoms: N_2  and  C_3
REMARK    3  A    between atoms: C_3  and  C_4
REMARK    4  A    between atoms: C_7  and  C_8
REMARK    5  A    between atoms: C_8  and  N_9
REMARK    6  A    between atoms: C_10  and  C_12
REMARK    7  A    between atoms: C_19  and  C_21
REMARK                            x       y       z     vdW  Elec       q    Type
REMARK                         _______ _______ _______ _____ _____    ______ ____
ROOT
ATOM      1  C   UNL     1      46.735   5.049  14.050  0.00  0.00    +0.000 A 
ATOM      2  N   UNL     1      45.936   5.842  13.312  0.00  0.00    +0.000 NA
ATOM      3  C   UNL     1      45.194   5.232  12.365  0.00  0.00    +0.000 A 
ATOM      4  C   UNL     1      45.213   3.872  12.131  0.00  0.00    +0.000 A 
ATOM      5  C   UNL     1      46.099   3.161  12.912  0.00  0.00    +0.000 A 
ATOM      6  N   UNL     1      46.861   3.716  13.871  0.00  0.00    +0.000 NA
ENDROOT
BRANCH   1   7
ATOM      7  C   UNL     1      47.538   5.671  15.176  0.00  0.00    +0.000 C 
BRANCH   7   9
ATOM      8  C   UNL     1      48.246   7.672  13.837  0.00  0.00    +0.000 C 
ATOM      9  N   UNL     1      48.589   6.630  14.800  0.00  0.00    +0.000 N 
ATOM     10  C   UNL     1      49.775   6.822  15.521  0.00  0.00    +0.000 C 
ATOM     11  O   UNL     1      50.647   7.579  15.097  0.00  0.00    +0.000 OA
BRANCH  10  12
ATOM     12  C   UNL     1      49.950   6.254  16.872  0.00  0.00    +0.000 A 
ATOM     13  C   UNL     1      50.664   5.115  17.205  0.00  0.00    +0.000 A 
ATOM     14  S   UNL     1      50.289   4.502  18.760  0.00  0.00    +0.000 S 
ATOM     15  C   UNL     1      49.154   5.738  19.024  0.00  0.00    +0.000 A 
ATOM     16  N   UNL     1      48.331   5.730  20.106  0.00  0.00    +0.000 NA
ATOM     17  C   UNL     1      47.537   6.748  20.169  0.00  0.00    +0.000 A 
ATOM     18  N   UNL     1      47.533   7.799  19.285  0.00  0.00    +0.000 N 
ATOM     19  C   UNL     1      48.416   7.893  18.231  0.00  0.00    +0.000 A 
ATOM     20  O   UNL     1      48.572   8.942  17.618  0.00  0.00    +0.000 OA
ATOM     21  C   UNL     1      49.199   6.690  18.025  0.00  0.00    +0.000 A 
ATOM     22  H   UNL     1      46.980   8.623  19.467  0.00  0.00    +0.000 HD
ENDBRANCH  10  12
ENDBRANCH   7   9
ENDBRANCH   1   7
BRANCH   4  23
ATOM     23  C   UNL     1      44.325   3.212  11.135  0.00  0.00    +0.000 C 
BRANCH  23  24
ATOM     24  N   UNL     1      45.051   2.604  10.051  0.00  0.00    +0.000 N 
ATOM     25  C   UNL     1      45.216   3.301   8.871  0.00  0.00    +0.000 C 
ATOM     26  O   UNL     1      44.728   4.413   8.695  0.00  0.00    +0.000 OA
ATOM     27  H   UNL     1      45.551   1.740  10.195  0.00  0.00    +0.000 HD
BRANCH  25  28
ATOM     28  C   UNL     1      46.015   2.620   7.853  0.00  0.00    +0.000 A 
ATOM     29  C   UNL     1      46.557   3.100   6.623  0.00  0.00    +0.000 A 
ATOM     30  C   UNL     1      47.246   2.067   6.027  0.00  0.00    +0.000 A 
ATOM     31  N   UNL     1      47.148   0.970   6.840  0.00  0.00    +0.000 N 
ATOM     32  C   UNL     1      46.408   1.293   7.945  0.00  0.00    +0.000 A 
ATOM     33  H   UNL     1      47.561   0.064   6.657  0.00  0.00    +0.000 HD
ENDBRANCH  25  28
ENDBRANCH  23  24
ENDBRANCH   4  23
TORSDOF 6
ENDMDL
MODEL 7
REMARK VINA RESULT:    -6.838      1.868      2.264
REMARK INTER + INTRA:         -10.294
REMARK INTER:                  -9.727
REMARK INTRA:                  -0.567
REMARK UNBOUND:                -1.057
REMARK  Name = 
REMARK  7 active torsions:
REMARK  status: ('A' for Active; 'I' for Inactive)
REMARK    1  A    between atoms: C_1  and  N_2
REMARK    2  A    between atoms: N_2  and  C_3
REMARK    3  A    between atoms: C_3  and  C_4
REMARK    4  A    between atoms: C_7  and  C_8
REMARK    5  A    between atoms: C_8  and  N_9
REMARK    6  A    between atoms: C_10  and  C_12
REMARK    7  A    between atoms: C_19  and  C_21
REMARK                            x       y       z     vdW  Elec       q    Type
REMARK                         _______ _______ _______ _____ _____    ______ ____
ROOT
ATOM      1  C   UNL     1      45.960   5.538  13.209  0.00  0.00    +0.000 A 
ATOM      2  N   UNL     1      44.773   4.902  13.261  0.00  0.00    +0.000 NA
ATOM      3  C   UNL     1      44.153   4.693  12.082  0.00  0.00    +0.000 A 
ATOM      4  C   UNL     1      44.667   5.083  10.862  0.00  0.00    +0.000 A 
ATOM      5  C   UNL     1      45.864   5.764  10.928  0.00  0.00    +0.000 A 
ATOM      6  N   UNL     1      46.527   5.999  12.074  0.00  0.00    +0.000 NA
ENDROOT
BRANCH   1   7
ATOM      7  C   UNL     1      46.735   5.736  14.497  0.00  0.00    +0.000 C 
BRANCH   7   9
ATOM      8  C   UNL     1      47.372   3.315  14.313  0.00  0.00    +0.000 C 
ATOM      9  N   UNL     1      47.345   4.542  15.103  0.00  0.00    +0.000 N 
ATOM     10  C   UNL     1      48.178   4.569  16.229  0.00  0.00    +0.000 C 
ATOM     11  O   UNL     1      48.581   3.520  16.733  0.00  0.00    +0.000 OA
BRANCH  10  12
ATOM     12  C   UNL     1      48.723   5.838  16.749  0.00  0.00    +0.000 A 
ATOM     13  C   UNL     1      49.712   6.614  16.169  0.00  0.00    +0.000 A 
ATOM     14  S   UNL     1      50.409   7.752  17.242  0.00  0.00    +0.000 S 
ATOM     15  C   UNL     1      49.413   7.229  18.516  0.00  0.00    +0.000 A 
ATOM     16  N   UNL     1      49.594   7.672  19.788  0.00  0.00    +0.000 NA
ATOM     17  C   UNL     1      48.745   7.191  20.636  0.00  0.00    +0.000 A 
ATOM     18  N   UNL     1      47.700   6.359  20.318  0.00  0.00    +0.000 N 
ATOM     19  C   UNL     1      47.425   5.964  19.027  0.00  0.00    +0.000 A 
ATOM     20  O   UNL     1      46.356   5.444  18.730  0.00  0.00    +0.000 OA
ATOM     21  C   UNL     1      48.455   6.338  18.077  0.00  0.00    +0.000 A 
ATOM     22  H   UNL     1      46.999   6.127  21.005  0.00  0.00    +0.000 HD
ENDBRANCH  10  12
ENDBRANCH   7   9
ENDBRANCH   1   7
BRANCH   4  23
ATOM     23  C   UNL     1      44.002   4.769   9.568  0.00  0.00    +0.000 C 
BRANCH  23  24
ATOM     24  N   UNL     1      44.922   4.321   8.557  0.00  0.00    +0.000 N 
ATOM     25  C   UNL     1      45.393   3.023   8.596  0.00  0.00    +0.000 C 
ATOM     26  O   UNL     1      45.084   2.243   9.491  0.00  0.00    +0.000 OA
ATOM     27  H   UNL     1      45.116   4.898   7.752  0.00  0.00    +0.000 HD
BRANCH  25  28
ATOM     28  C   UNL     1      46.278   2.649   7.493  0.00  0.00    +0.000 A 
ATOM     29  C   UNL     1      46.576   3.324   6.272  0.00  0.00    +0.000 A 
ATOM     30  C   UNL     1      47.484   2.561   5.572  0.00  0.00    +0.000 A 
ATOM     31  N   UNL     1      47.756   1.443   6.314  0.00  0.00    +0.000 N 
ATOM     32  C   UNL     1      47.034   1.486   7.476  0.00  0.00    +0.000 A 
ATOM     33  H   UNL     1      48.393   0.703   6.049  0.00  0.00    +0.000 HD
ENDBRANCH  25  28
ENDBRANCH  23  24
ENDBRANCH   4  23
TORSDOF 6
ENDMDL
MODEL 8
REMARK VINA RESULT:    -6.555      2.556      3.903
REMARK INTER + INTRA:          -9.911
REMARK INTER:                  -8.778
REMARK INTRA:                  -1.133
REMARK UNBOUND:                -1.057
REMARK  Name = 
REMARK  7 active torsions:
REMARK  status: ('A' for Active; 'I' for Inactive)
REMARK    1  A    between atoms: C_1  and  N_2
REMARK    2  A    between atoms: N_2  and  C_3
REMARK    3  A    between atoms: C_3  and  C_4
REMARK    4  A    between atoms: C_7  and  C_8
REMARK    5  A    between atoms: C_8  and  N_9
REMARK    6  A    between atoms: C_10  and  C_12
REMARK    7  A    between atoms: C_19  and  C_21
REMARK                            x       y       z     vdW  Elec       q    Type
REMARK                         _______ _______ _______ _____ _____    ______ ____
ROOT
ATOM      1  C   UNL     1      48.624   7.007  14.413  0.00  0.00    +0.000 A 
ATOM      2  N   UNL     1      48.333   8.137  13.739  0.00  0.00    +0.000 NA
ATOM      3  C   UNL     1      47.308   8.067  12.865  0.00  0.00    +0.000 A 
ATOM      4  C   UNL     1      46.563   6.926  12.643  0.00  0.00    +0.000 A 
ATOM      5  C   UNL     1      46.974   5.818  13.351  0.00  0.00    +0.000 A 
ATOM      6  N   UNL     1      47.986   5.830  14.236  0.00  0.00    +0.000 NA
ENDROOT
BRANCH   1   7
ATOM      7  C   UNL     1      49.720   7.047  15.460  0.00  0.00    +0.000 C 
BRANCH   7   9
ATOM      8  C   UNL     1      48.517   8.329  17.252  0.00  0.00    +0.000 C 
ATOM      9  N   UNL     1      49.300   7.159  16.866  0.00  0.00    +0.000 N 
ATOM     10  C   UNL     1      49.312   6.095  17.778  0.00  0.00    +0.000 C 
ATOM     11  O   UNL     1      49.029   6.285  18.961  0.00  0.00    +0.000 OA
BRANCH  10  12
ATOM     12  C   UNL     1      49.504   4.703  17.329  0.00  0.00    +0.000 A 
ATOM     13  C   UNL     1      48.514   3.794  16.998  0.00  0.00    +0.000 A 
ATOM     14  S   UNL     1      49.056   2.170  16.962  0.00  0.00    +0.000 S 
ATOM     15  C   UNL     1      50.631   2.639  17.398  0.00  0.00    +0.000 A 
ATOM     16  N   UNL     1      51.586   1.723  17.707  0.00  0.00    +0.000 NA
ATOM     17  C   UNL     1      52.733   2.240  18.002  0.00  0.00    +0.000 A 
ATOM     18  N   UNL     1      53.026   3.581  17.959  0.00  0.00    +0.000 N 
ATOM     19  C   UNL     1      52.113   4.533  17.559  0.00  0.00    +0.000 A 
ATOM     20  O   UNL     1      52.460   5.675  17.279  0.00  0.00    +0.000 OA
ATOM     21  C   UNL     1      50.771   4.012  17.391  0.00  0.00    +0.000 A 
ATOM     22  H   UNL     1      53.974   3.906  18.073  0.00  0.00    +0.000 HD
ENDBRANCH  10  12
ENDBRANCH   7   9
ENDBRANCH   1   7
BRANCH   4  23
ATOM     23  C   UNL     1      45.385   6.896  11.733  0.00  0.00    +0.000 C 
BRANCH  23  24
ATOM     24  N   UNL     1      45.039   5.567  11.305  0.00  0.00    +0.000 N 
ATOM     25  C   UNL     1      45.437   5.132  10.056  0.00  0.00    +0.000 C 
ATOM     26  O   UNL     1      46.045   5.856   9.275  0.00  0.00    +0.000 OA
ATOM     27  H   UNL     1      44.633   4.912  11.956  0.00  0.00    +0.000 HD
BRANCH  25  28
ATOM     28  C   UNL     1      45.085   3.749   9.738  0.00  0.00    +0.000 A 
ATOM     29  C   UNL     1      45.456   2.927   8.631  0.00  0.00    +0.000 A 
ATOM     30  C   UNL     1      44.871   1.692   8.801  0.00  0.00    +0.000 A 
ATOM     31  N   UNL     1      44.154   1.721   9.968  0.00  0.00    +0.000 N 
ATOM     32  C   UNL     1      44.277   2.957  10.541  0.00  0.00    +0.000 A 
ATOM     33  H   UNL     1      43.621   0.950  10.349  0.00  0.00    +0.000 HD
ENDBRANCH  25  28
ENDBRANCH  23  24
ENDBRANCH   4  23
TORSDOF 6
ENDMDL
MODEL 9
REMARK VINA RESULT:    -6.531      3.181      9.359
REMARK INTER + INTRA:          -9.878
REMARK INTER:                  -9.219
REMARK INTRA:                  -0.659
REMARK UNBOUND:                -1.057
REMARK  Name = 
REMARK  7 active torsions:
REMARK  status: ('A' for Active; 'I' for Inactive)
REMARK    1  A    between atoms: C_1  and  N_2
REMARK    2  A    between atoms: N_2  and  C_3
REMARK    3  A    between atoms: C_3  and  C_4
REMARK    4  A    between atoms: C_7  and  C_8
REMARK    5  A    between atoms: C_8  and  N_9
REMARK    6  A    between atoms: C_10  and  C_12
REMARK    7  A    between atoms: C_19  and  C_21
REMARK                            x       y       z     vdW  Elec       q    Type
REMARK                         _______ _______ _______ _____ _____    ______ ____
ROOT
ATOM      1  C   UNL     1      47.585   4.762  14.432  0.00  0.00    +0.000 A 
ATOM      2  N   UNL     1      47.207   3.694  15.161  0.00  0.00    +0.000 NA
ATOM      3  C   UNL     1      47.518   3.724  16.473  0.00  0.00    +0.000 A 
ATOM      4  C   UNL     1      48.179   4.771  17.084  0.00  0.00    +0.000 A 
ATOM      5  C   UNL     1      48.560   5.790  16.237  0.00  0.00    +0.000 A 
ATOM      6  N   UNL     1      48.276   5.814  14.923  0.00  0.00    +0.000 NA
ENDROOT
BRANCH   1   7
ATOM      7  C   UNL     1      47.199   4.815  12.966  0.00  0.00    +0.000 C 
BRANCH   7   9
ATOM      8  C   UNL     1      47.579   7.189  12.244  0.00  0.00    +0.000 C 
ATOM      9  N   UNL     1      46.650   6.084  12.463  0.00  0.00    +0.000 N 
ATOM     10  C   UNL     1      45.384   6.217  11.878  0.00  0.00    +0.000 C 
ATOM     11  O   UNL     1      44.957   7.327  11.560  0.00  0.00    +0.000 OA
BRANCH  10  12
ATOM     12  C   UNL     1      44.595   5.034  11.482  0.00  0.00    +0.000 A 
ATOM     13  C   UNL     1      43.670   4.358  12.259  0.00  0.00    +0.000 A 
ATOM     14  S   UNL     1      43.287   2.797  11.667  0.00  0.00    +0.000 S 
ATOM     15  C   UNL     1      44.357   2.981  10.359  0.00  0.00    +0.000 A 
ATOM     16  N   UNL     1      44.649   1.946   9.528  0.00  0.00    +0.000 NA
ATOM     17  C   UNL     1      45.467   2.254   8.575  0.00  0.00    +0.000 A 
ATOM     18  N   UNL     1      45.969   3.511   8.344  0.00  0.00    +0.000 N 
ATOM     19  C   UNL     1      45.621   4.606   9.105  0.00  0.00    +0.000 A 
ATOM     20  O   UNL     1      45.867   5.748   8.734  0.00  0.00    +0.000 OA
ATOM     21  C   UNL     1      44.849   4.269  10.285  0.00  0.00    +0.000 A 
ATOM     22  H   UNL     1      46.496   3.710   7.507  0.00  0.00    +0.000 HD
ENDBRANCH  10  12
ENDBRANCH   7   9
ENDBRANCH   1   7
BRANCH   4  23
ATOM     23  C   UNL     1      48.440   4.816  18.549  0.00  0.00    +0.000 C 
BRANCH  23  24
ATOM     24  N   UNL     1      49.693   4.213  18.916  0.00  0.00    +0.000 N 
ATOM     25  C   UNL     1      50.789   5.019  19.155  0.00  0.00    +0.000 C 
ATOM     26  O   UNL     1      50.743   6.238  19.028  0.00  0.00    +0.000 OA
ATOM     27  H   UNL     1      49.741   3.228  19.130  0.00  0.00    +0.000 HD
BRANCH  25  28
ATOM     28  C   UNL     1      51.999   4.314  19.576  0.00  0.00    +0.000 A 
ATOM     29  C   UNL     1      52.821   3.381  18.876  0.00  0.00    +0.000 A 
ATOM     30  C   UNL     1      53.855   3.014  19.708  0.00  0.00    +0.000 A 
ATOM     31  N   UNL     1      53.702   3.683  20.893  0.00  0.00    +0.000 N 
ATOM     32  C   UNL     1      52.586   4.471  20.824  0.00  0.00    +0.000 A 
ATOM     33  H   UNL     1      54.318   3.611  21.692  0.00  0.00    +0.000 HD
ENDBRANCH  25  28
ENDBRANCH  23  24
ENDBRANCH   4  23
TORSDOF 6
ENDMDL
