MODEL 1
REMARK VINA RESULT:    -7.752      0.000      0.000
REMARK INTER + INTRA:          -9.966
REMARK INTER:                  -9.565
REMARK INTRA:                  -0.400
REMARK UNBOUND:                -0.400
REMARK  Name = 
REMARK  4 active torsions:
REMARK  status: ('A' for Active; 'I' for Inactive)
REMARK    1  A    between atoms: C_2  and  C_4
REMARK    2  A    between atoms: C_7  and  N_8
REMARK    3  A    between atoms: N_8  and  C_9
REMARK    4  A    between atoms: C_9  and  C_10
REMARK                            x       y       z     vdW  Elec       q    Type
REMARK                         _______ _______ _______ _____ _____    ______ ____
ROOT
ATOM      1  C   UNL     1      46.355   4.659  13.435  0.00  0.00    +0.000 A 
ATOM      2  N   UNL     1      46.037   3.343  13.224  0.00  0.00    +0.000 NA
ATOM      3  C   UNL     1      45.298   3.062  12.118  0.00  0.00    +0.000 A 
ATOM      4  C   UNL     1      44.807   4.004  11.209  0.00  0.00    +0.000 A 
ATOM      5  C   UNL     1      45.181   5.327  11.456  0.00  0.00    +0.000 A 
ATOM      6  C   UNL     1      45.953   5.675  12.573  0.00  0.00    +0.000 A 
ATOM      7 CL   UNL     1      46.344   7.345  12.750  0.00  0.00    +0.000 Cl
ENDROOT
BRANCH   1   9
ATOM      8  N   UNL     1      46.694   4.373  15.832  0.00  0.00    +0.000 N 
ATOM      9  C   UNL     1      47.185   4.910  14.669  0.00  0.00    +0.000 C 
ATOM     10  O   UNL     1      48.232   5.542  14.691  0.00  0.00    +0.000 OA
ATOM     11  H   UNL     1      47.211   4.509  16.687  0.00  0.00    +0.000 HD
ATOM     12  H   UNL     1      45.827   3.848  15.826  0.00  0.00    +0.000 HD
ENDBRANCH   1   9
BRANCH   4  13
ATOM     13  N   UNL     1      44.123   3.606  10.060  0.00  0.00    +0.000 N 
ATOM     14  H   UNL     1      43.111   3.677  10.137  0.00  0.00    +0.000 HD
BRANCH  13  15
ATOM     15  C   UNL     1      44.581   4.033   8.735  0.00  0.00    +0.000 C 
BRANCH  15  16
ATOM     16  C   UNL     1      45.613   3.082   8.187  0.00  0.00    +0.000 A 
ATOM     17  C   UNL     1      46.566   3.460   7.233  0.00  0.00    +0.000 A 
ATOM     18  C   UNL     1      47.451   2.516   6.722  0.00  0.00    +0.000 A 
ATOM     19  C   UNL     1      47.345   1.210   7.165  0.00  0.00    +0.000 A 
ATOM     20  N   UNL     1      46.426   0.797   8.063  0.00  0.00    +0.000 NA
ATOM     21  C   UNL     1      45.581   1.737   8.545  0.00  0.00    +0.000 A 
ENDBRANCH  15  16
ENDBRANCH  13  15
ENDBRANCH   4  13
TORSDOF 4
ENDMDL
MODEL 2
REMARK VINA RESULT:    -7.638      3.426      6.416
REMARK INTER + INTRA:          -9.825
REMARK INTER:                  -9.325
REMARK INTRA:                  -0.500
REMARK UNBOUND:                -0.400
REMARK  Name = 
REMARK  4 active torsions:
REMARK  status: ('A' for Active; 'I' for Inactive)
REMARK    1  A    between atoms: C_2  and  C_4
REMARK    2  A    between atoms: C_7  and  N_8
REMARK    3  A    between atoms: N_8  and  C_9
REMARK    4  A    between atoms: C_9  and  C_10
REMARK                            x       y       z     vdW  Elec       q    Type
REMARK                         _______ _______ _______ _____ _____    ______ ____
ROOT
ATOM      1  C   UNL     1      46.411   2.931   7.364  0.00  0.00    +0.000 A 
ATOM      2  N   UNL     1      46.005   4.210   7.639  0.00  0.00    +0.000 NA
ATOM      3  C   UNL     1      45.176   4.372   8.705  0.00  0.00    +0.000 A 
ATOM      4  C   UNL     1      44.677   3.344   9.509  0.00  0.00    +0.000 A 
ATOM      5  C   UNL     1      45.142   2.063   9.202  0.00  0.00    +0.000 A 
ATOM      6  C   UNL     1      46.009   1.836   8.124  0.00  0.00    +0.000 A 
ATOM      7 CL   UNL     1      46.506   0.206   7.864  0.00  0.00    +0.000 Cl
ENDROOT
BRANCH   1   9
ATOM      8  N   UNL     1      48.653   2.556   6.482  0.00  0.00    +0.000 N 
ATOM      9  C   UNL     1      47.339   2.812   6.181  0.00  0.00    +0.000 C 
ATOM     10  O   UNL     1      47.000   2.927   5.012  0.00  0.00    +0.000 OA
ATOM     11  H   UNL     1      49.316   2.465   5.728  0.00  0.00    +0.000 HD
ATOM     12  H   UNL     1      48.946   2.459   7.448  0.00  0.00    +0.000 HD
ENDBRANCH   1   9
BRANCH   4  13
ATOM     13  N   UNL     1      43.893   3.623  10.629  0.00  0.00    +0.000 N 
ATOM     14  H   UNL     1      42.902   3.437  10.495  0.00  0.00    +0.000 HD
BRANCH  13  15
ATOM     15  C   UNL     1      44.331   3.211  11.966  0.00  0.00    +0.000 C 
BRANCH  15  16
ATOM     16  C   UNL     1      45.316   4.196  12.541  0.00  0.00    +0.000 A 
ATOM     17  C   UNL     1      45.248   5.572  12.294  0.00  0.00    +0.000 A 
ATOM     18  C   UNL     1      46.227   6.420  12.805  0.00  0.00    +0.000 A 
ATOM     19  C   UNL     1      47.261   5.862  13.534  0.00  0.00    +0.000 A 
ATOM     20  N   UNL     1      47.379   4.539  13.774  0.00  0.00    +0.000 NA
ATOM     21  C   UNL     1      46.412   3.740  13.268  0.00  0.00    +0.000 A 
ENDBRANCH  15  16
ENDBRANCH  13  15
ENDBRANCH   4  13
TORSDOF 4
ENDMDL
MODEL 3
REMARK VINA RESULT:    -7.281      3.121      6.052
REMARK INTER + INTRA:          -9.384
REMARK INTER:                  -9.191
REMARK INTRA:                  -0.192
REMARK UNBOUND:                -0.400
REMARK  Name = 
REMARK  4 active torsions:
REMARK  status: ('A' for Active; 'I' for Inactive)
REMARK    1  A    between atoms: C_2  and  C_4
REMARK    2  A    between atoms: C_7  and  N_8
REMARK    3  A    between atoms: N_8  and  C_9
REMARK    4  A    between atoms: C_9  and  C_10
REMARK                            x       y       z     vdW  Elec       q    Type
REMARK                         _______ _______ _______ _____ _____    ______ ____
ROOT
ATOM      1  C   UNL     1      46.236   2.028   7.942  0.00  0.00    +0.000 A 
ATOM      2  N   UNL     1      45.591   1.712   9.109  0.00  0.00    +0.000 NA
ATOM      3  C   UNL     1      44.824   2.686   9.666  0.00  0.00    +0.000 A 
ATOM      4  C   UNL     1      44.673   3.985   9.171  0.00  0.00    +0.000 A 
ATOM      5  C   UNL     1      45.330   4.246   7.966  0.00  0.00    +0.000 A 
ATOM      6  C   UNL     1      46.125   3.277   7.338  0.00  0.00    +0.000 A 
ATOM      7 CL   UNL     1      46.873   3.736   5.854  0.00  0.00    +0.000 Cl
ENDROOT
BRANCH   1   9
ATOM      8  N   UNL     1      46.659  -0.361   7.701  0.00  0.00    +0.000 N 
ATOM      9  C   UNL     1      47.062   0.907   7.363  0.00  0.00    +0.000 C 
ATOM     10  O   UNL     1      48.034   1.057   6.637  0.00  0.00    +0.000 OA
ATOM     11  H   UNL     1      47.175  -1.148   7.339  0.00  0.00    +0.000 HD
ATOM     12  H   UNL     1      45.854  -0.497   8.302  0.00  0.00    +0.000 HD
ENDBRANCH   1   9
BRANCH   4  13
ATOM     13  N   UNL     1      43.799   4.889   9.775  0.00  0.00    +0.000 N 
ATOM     14  H   UNL     1      42.899   4.966   9.307  0.00  0.00    +0.000 HD
BRANCH  13  15
ATOM     15  C   UNL     1      43.640   4.912  11.231  0.00  0.00    +0.000 C 
BRANCH  15  16
ATOM     16  C   UNL     1      44.899   5.392  11.906  0.00  0.00    +0.000 A 
ATOM     17  C   UNL     1      45.703   6.410  11.380  0.00  0.00    +0.000 A 
ATOM     18  C   UNL     1      46.887   6.762  12.022  0.00  0.00    +0.000 A 
ATOM     19  C   UNL     1      47.244   6.070  13.165  0.00  0.00    +0.000 A 
ATOM     20  N   UNL     1      46.512   5.065  13.691  0.00  0.00    +0.000 NA
ATOM     21  C   UNL     1      45.366   4.747  13.048  0.00  0.00    +0.000 A 
ENDBRANCH  15  16
ENDBRANCH  13  15
ENDBRANCH   4  13
TORSDOF 4
ENDMDL
MODEL 4
REMARK VINA RESULT:    -6.960      2.543      2.791
REMARK INTER + INTRA:          -8.988
REMARK INTER:                  -8.665
REMARK INTRA:                  -0.322
REMARK UNBOUND:                -0.400
REMARK  Name = 
REMARK  4 active torsions:
REMARK  status: ('A' for Active; 'I' for Inactive)
REMARK    1  A    between atoms: C_2  and  C_4
REMARK    2  A    between atoms: C_7  and  N_8
REMARK    3  A    between atoms: N_8  and  C_9
REMARK    4  A    between atoms: C_9  and  C_10
REMARK                            x       y       z     vdW  Elec       q    Type
REMARK                         _______ _______ _______ _____ _____    ______ ____
ROOT
ATOM      1  C   UNL     1      45.020   6.248  11.537  0.00  0.00    +0.000 A 
ATOM      2  N   UNL     1      45.796   6.132  10.414  0.00  0.00    +0.000 NA
ATOM      3  C   UNL     1      45.543   5.071   9.603  0.00  0.00    +0.000 A 
ATOM      4  C   UNL     1      44.592   4.074   9.842  0.00  0.00    +0.000 A 
ATOM      5  C   UNL     1      43.811   4.253  10.986  0.00  0.00    +0.000 A 
ATOM      6  C   UNL     1      44.017   5.336  11.853  0.00  0.00    +0.000 A 
ATOM      7 CL   UNL     1      42.977   5.434  13.224  0.00  0.00    +0.000 Cl
ENDROOT
BRANCH   1   9
ATOM      8  N   UNL     1      46.190   7.221  13.441  0.00  0.00    +0.000 N 
ATOM      9  C   UNL     1      45.335   7.449  12.392  0.00  0.00    +0.000 C 
ATOM     10  O   UNL     1      44.888   8.573  12.212  0.00  0.00    +0.000 OA
ATOM     11  H   UNL     1      46.437   7.991  14.043  0.00  0.00    +0.000 HD
ATOM     12  H   UNL     1      46.567   6.294  13.601  0.00  0.00    +0.000 HD
ENDBRANCH   1   9
BRANCH   4  13
ATOM     13  N   UNL     1      44.355   3.066   8.907  0.00  0.00    +0.000 N 
ATOM     14  H   UNL     1      44.070   3.411   7.993  0.00  0.00    +0.000 HD
BRANCH  13  15
ATOM     15  C   UNL     1      45.279   1.936   8.780  0.00  0.00    +0.000 C 
BRANCH  15  16
ATOM     16  C   UNL     1      46.225   2.136   7.624  0.00  0.00    +0.000 A 
ATOM     17  C   UNL     1      46.033   3.118   6.646  0.00  0.00    +0.000 A 
ATOM     18  C   UNL     1      46.911   3.209   5.569  0.00  0.00    +0.000 A 
ATOM     19  C   UNL     1      47.949   2.297   5.492  0.00  0.00    +0.000 A 
ATOM     20  N   UNL     1      48.155   1.319   6.399  0.00  0.00    +0.000 NA
ATOM     21  C   UNL     1      47.288   1.257   7.435  0.00  0.00    +0.000 A 
ENDBRANCH  15  16
ENDBRANCH  13  15
ENDBRANCH   4  13
TORSDOF 4
ENDMDL
MODEL 5
REMARK VINA RESULT:    -6.846      1.987      2.324
REMARK INTER + INTRA:          -8.847
REMARK INTER:                  -8.535
REMARK INTRA:                  -0.313
REMARK UNBOUND:                -0.400
REMARK  Name = 
REMARK  4 active torsions:
REMARK  status: ('A' for Active; 'I' for Inactive)
REMARK    1  A    between atoms: C_2  and  C_4
REMARK    2  A    between atoms: C_7  and  N_8
REMARK    3  A    between atoms: N_8  and  C_9
REMARK    4  A    between atoms: C_9  and  C_10
REMARK                            x       y       z     vdW  Elec       q    Type
REMARK                         _______ _______ _______ _____ _____    ______ ____
ROOT
ATOM      1  C   UNL     1      46.790   5.952  12.804  0.00  0.00    +0.000 A 
ATOM      2  N   UNL     1      46.299   6.584  11.691  0.00  0.00    +0.000 NA
ATOM      3  C   UNL     1      45.441   5.873  10.913  0.00  0.00    +0.000 A 
ATOM      4  C   UNL     1      45.054   4.548  11.132  0.00  0.00    +0.000 A 
ATOM      5  C   UNL     1      45.562   3.959  12.292  0.00  0.00    +0.000 A 
ATOM      6  C   UNL     1      46.440   4.648  13.140  0.00  0.00    +0.000 A 
ATOM      7 CL   UNL     1      46.985   3.800  14.539  0.00  0.00    +0.000 Cl
ENDROOT
BRANCH   1   9
ATOM      8  N   UNL     1      47.210   7.978  14.092  0.00  0.00    +0.000 N 
ATOM      9  C   UNL     1      47.727   6.792  13.636  0.00  0.00    +0.000 C 
ATOM     10  O   UNL     1      48.877   6.488  13.916  0.00  0.00    +0.000 OA
ATOM     11  H   UNL     1      47.793   8.578  14.656  0.00  0.00    +0.000 HD
ATOM     12  H   UNL     1      46.257   8.241  13.866  0.00  0.00    +0.000 HD
ENDBRANCH   1   9
BRANCH   4  13
ATOM     13  N   UNL     1      44.105   3.932  10.316  0.00  0.00    +0.000 N 
ATOM     14  H   UNL     1      43.734   4.535   9.586  0.00  0.00    +0.000 HD
BRANCH  13  15
ATOM     15  C   UNL     1      44.323   2.572   9.816  0.00  0.00    +0.000 C 
BRANCH  15  16
ATOM     16  C   UNL     1      45.292   2.567   8.663  0.00  0.00    +0.000 A 
ATOM     17  C   UNL     1      46.105   1.469   8.357  0.00  0.00    +0.000 A 
ATOM     18  C   UNL     1      47.025   1.553   7.315  0.00  0.00    +0.000 A 
ATOM     19  C   UNL     1      47.119   2.745   6.620  0.00  0.00    +0.000 A 
ATOM     20  N   UNL     1      46.374   3.836   6.897  0.00  0.00    +0.000 NA
ATOM     21  C   UNL     1      45.487   3.723   7.912  0.00  0.00    +0.000 A 
ENDBRANCH  15  16
ENDBRANCH  13  15
ENDBRANCH   4  13
TORSDOF 4
ENDMDL
MODEL 6
REMARK VINA RESULT:    -6.347      1.721      2.120
REMARK INTER + INTRA:          -8.231
REMARK INTER:                  -7.654
REMARK INTRA:                  -0.578
REMARK UNBOUND:                -0.400
REMARK  Name = 
REMARK  4 active torsions:
REMARK  status: ('A' for Active; 'I' for Inactive)
REMARK    1  A    between atoms: C_2  and  C_4
REMARK    2  A    between atoms: C_7  and  N_8
REMARK    3  A    between atoms: N_8  and  C_9
REMARK    4  A    between atoms: C_9  and  C_10
REMARK                            x       y       z     vdW  Elec       q    Type
REMARK                         _______ _______ _______ _____ _____    ______ ____
ROOT
ATOM      1  C   UNL     1      47.174   6.205  13.528  0.00  0.00    +0.000 A 
ATOM      2  N   UNL     1      47.288   4.842  13.622  0.00  0.00    +0.000 NA
ATOM      3  C   UNL     1      46.217   4.109  13.217  0.00  0.00    +0.000 A 
ATOM      4  C   UNL     1      45.004   4.630  12.755  0.00  0.00    +0.000 A 
ATOM      5  C   UNL     1      44.950   6.022  12.654  0.00  0.00    +0.000 A 
ATOM      6  C   UNL     1      46.027   6.829  13.044  0.00  0.00    +0.000 A 
ATOM      7 CL   UNL     1      45.823   8.531  12.859  0.00  0.00    +0.000 Cl
ENDROOT
BRANCH   1   9
ATOM      8  N   UNL     1      48.314   7.530  15.226  0.00  0.00    +0.000 N 
ATOM      9  C   UNL     1      48.395   6.966  13.978  0.00  0.00    +0.000 C 
ATOM     10  O   UNL     1      49.415   7.105  13.319  0.00  0.00    +0.000 OA
ATOM     11  H   UNL     1      49.104   8.049  15.577  0.00  0.00    +0.000 HD
ATOM     12  H   UNL     1      47.473   7.422  15.782  0.00  0.00    +0.000 HD
ENDBRANCH   1   9
BRANCH   4  13
ATOM     13  N   UNL     1      43.992   3.791  12.289  0.00  0.00    +0.000 N 
ATOM     14  H   UNL     1      43.263   3.604  12.974  0.00  0.00    +0.000 HD
BRANCH  13  15
ATOM     15  C   UNL     1      43.423   3.981  10.952  0.00  0.00    +0.000 C 
BRANCH  15  16
ATOM     16  C   UNL     1      44.401   3.568   9.883  0.00  0.00    +0.000 A 
ATOM     17  C   UNL     1      45.027   4.483   9.029  0.00  0.00    +0.000 A 
ATOM     18  C   UNL     1      45.872   4.029   8.020  0.00  0.00    +0.000 A 
ATOM     19  C   UNL     1      46.053   2.665   7.882  0.00  0.00    +0.000 A 
ATOM     20  N   UNL     1      45.450   1.746   8.667  0.00  0.00    +0.000 NA
ATOM     21  C   UNL     1      44.637   2.217   9.640  0.00  0.00    +0.000 A 
ENDBRANCH  15  16
ENDBRANCH  13  15
ENDBRANCH   4  13
TORSDOF 4
ENDMDL
MODEL 7
REMARK VINA RESULT:    -6.155      2.245      3.223
REMARK INTER + INTRA:          -7.994
REMARK INTER:                  -7.660
REMARK INTRA:                  -0.335
REMARK UNBOUND:                -0.400
REMARK  Name = 
REMARK  4 active torsions:
REMARK  status: ('A' for Active; 'I' for Inactive)
REMARK    1  A    between atoms: C_2  and  C_4
REMARK    2  A    between atoms: C_7  and  N_8
REMARK    3  A    between atoms: N_8  and  C_9
REMARK    4  A    between atoms: C_9  and  C_10
REMARK                            x       y       z     vdW  Elec       q    Type
REMARK                         _______ _______ _______ _____ _____    ______ ____
ROOT
ATOM      1  C   UNL     1      47.716   3.901  15.536  0.00  0.00    +0.000 A 
ATOM      2  N   UNL     1      47.172   3.190  14.498  0.00  0.00    +0.000 NA
ATOM      3  C   UNL     1      46.805   3.899  13.397  0.00  0.00    +0.000 A 
ATOM      4  C   UNL     1      46.900   5.286  13.256  0.00  0.00    +0.000 A 
ATOM      5  C   UNL     1      47.486   5.960  14.331  0.00  0.00    +0.000 A 
ATOM      6  C   UNL     1      47.895   5.280  15.486  0.00  0.00    +0.000 A 
ATOM      7 CL   UNL     1      48.606   6.237  16.732  0.00  0.00    +0.000 Cl
ENDROOT
BRANCH   1   9
ATOM      8  N   UNL     1      47.115   2.799  17.625  0.00  0.00    +0.000 N 
ATOM      9  C   UNL     1      48.116   3.063  16.724  0.00  0.00    +0.000 C 
ATOM     10  O   UNL     1      49.239   2.623  16.924  0.00  0.00    +0.000 OA
ATOM     11  H   UNL     1      47.327   2.241  18.438  0.00  0.00    +0.000 HD
ATOM     12  H   UNL     1      46.180   3.159  17.470  0.00  0.00    +0.000 HD
ENDBRANCH   1   9
BRANCH   4  13
ATOM     13  N   UNL     1      46.569   5.911  12.053  0.00  0.00    +0.000 N 
ATOM     14  H   UNL     1      47.249   5.764  11.311  0.00  0.00    +0.000 HD
BRANCH  13  15
ATOM     15  C   UNL     1      45.200   5.848  11.534  0.00  0.00    +0.000 C 
BRANCH  15  16
ATOM     16  C   UNL     1      45.068   4.778  10.482  0.00  0.00    +0.000 A 
ATOM     17  C   UNL     1      45.598   4.907   9.193  0.00  0.00    +0.000 A 
ATOM     18  C   UNL     1      45.386   3.906   8.250  0.00  0.00    +0.000 A 
ATOM     19  C   UNL     1      44.629   2.809   8.618  0.00  0.00    +0.000 A 
ATOM     20  N   UNL     1      44.077   2.655   9.840  0.00  0.00    +0.000 NA
ATOM     21  C   UNL     1      44.303   3.642  10.737  0.00  0.00    +0.000 A 
ENDBRANCH  15  16
ENDBRANCH  13  15
ENDBRANCH   4  13
TORSDOF 4
ENDMDL
MODEL 8
REMARK VINA RESULT:    -6.030      3.132      7.155
REMARK INTER + INTRA:          -7.840
REMARK INTER:                  -7.485
REMARK INTRA:                  -0.355
REMARK UNBOUND:                -0.400
REMARK  Name = 
REMARK  4 active torsions:
REMARK  status: ('A' for Active; 'I' for Inactive)
REMARK    1  A    between atoms: C_2  and  C_4
REMARK    2  A    between atoms: C_7  and  N_8
REMARK    3  A    between atoms: N_8  and  C_9
REMARK    4  A    between atoms: C_9  and  C_10
REMARK                            x       y       z     vdW  Elec       q    Type
REMARK                         _______ _______ _______ _____ _____    ______ ____
ROOT
ATOM      1  C   UNL     1      45.129   3.871  12.141  0.00  0.00    +0.000 A 
ATOM      2  N   UNL     1      45.872   2.989  12.882  0.00  0.00    +0.000 NA
ATOM      3  C   UNL     1      46.647   3.519  13.865  0.00  0.00    +0.000 A 
ATOM      4  C   UNL     1      46.779   4.881  14.150  0.00  0.00    +0.000 A 
ATOM      5  C   UNL     1      45.981   5.734  13.383  0.00  0.00    +0.000 A 
ATOM      6  C   UNL     1      45.151   5.244  12.365  0.00  0.00    +0.000 A 
ATOM      7 CL   UNL     1      44.219   6.410  11.503  0.00  0.00    +0.000 Cl
ENDROOT
BRANCH   1   9
ATOM      8  N   UNL     1      44.964   2.534  10.109  0.00  0.00    +0.000 N 
ATOM      9  C   UNL     1      44.278   3.227  11.075  0.00  0.00    +0.000 C 
ATOM     10  O   UNL     1      43.058   3.286  11.023  0.00  0.00    +0.000 OA
ATOM     11  H   UNL     1      44.443   2.082   9.373  0.00  0.00    +0.000 HD
ATOM     12  H   UNL     1      45.975   2.479  10.141  0.00  0.00    +0.000 HD
ENDBRANCH   1   9
BRANCH   4  13
ATOM     13  N   UNL     1      47.543   5.319  15.232  0.00  0.00    +0.000 N 
ATOM     14  H   UNL     1      47.539   6.329  15.358  0.00  0.00    +0.000 HD
BRANCH  13  15
ATOM     15  C   UNL     1      47.472   4.627  16.522  0.00  0.00    +0.000 C 
BRANCH  15  16
ATOM     16  C   UNL     1      48.800   4.011  16.880  0.00  0.00    +0.000 A 
ATOM     17  C   UNL     1      49.032   2.631  16.844  0.00  0.00    +0.000 A 
ATOM     18  C   UNL     1      50.264   2.122  17.248  0.00  0.00    +0.000 A 
ATOM     19  C   UNL     1      51.224   3.011  17.696  0.00  0.00    +0.000 A 
ATOM     20  N   UNL     1      51.034   4.345  17.771  0.00  0.00    +0.000 NA
ATOM     21  C   UNL     1      49.829   4.811  17.370  0.00  0.00    +0.000 A 
ENDBRANCH  15  16
ENDBRANCH  13  15
ENDBRANCH   4  13
TORSDOF 4
ENDMDL
MODEL 9
REMARK VINA RESULT:    -5.674      2.211      2.923
REMARK INTER + INTRA:          -7.401
REMARK INTER:                  -7.019
REMARK INTRA:                  -0.382
REMARK UNBOUND:                -0.400
REMARK  Name = 
REMARK  4 active torsions:
REMARK  status: ('A' for Active; 'I' for Inactive)
REMARK    1  A    between atoms: C_2  and  C_4
REMARK    2  A    between atoms: C_7  and  N_8
REMARK    3  A    between atoms: N_8  and  C_9
REMARK    4  A    between atoms: C_9  and  C_10
REMARK                            x       y       z     vdW  Elec       q    Type
REMARK                         _______ _______ _______ _____ _____    ______ ____
ROOT
ATOM      1  C   UNL     1      48.199   6.542  14.498  0.00  0.00    +0.000 A 
ATOM      2  N   UNL     1      47.458   5.411  14.274  0.00  0.00    +0.000 NA
ATOM      3  C   UNL     1      46.718   5.382  13.134  0.00  0.00    +0.000 A 
ATOM      4  C   UNL     1      46.620   6.419  12.202  0.00  0.00    +0.000 A 
ATOM      5  C   UNL     1      47.415   7.537  12.464  0.00  0.00    +0.000 A 
ATOM      6  C   UNL     1      48.209   7.619  13.616  0.00  0.00    +0.000 A 
ATOM      7 CL   UNL     1      49.142   9.055  13.810  0.00  0.00    +0.000 Cl
ENDROOT
BRANCH   1   9
ATOM      8  N   UNL     1      48.326   6.835  16.915  0.00  0.00    +0.000 N 
ATOM      9  C   UNL     1      49.010   6.514  15.769  0.00  0.00    +0.000 C 
ATOM     10  O   UNL     1      50.198   6.234  15.836  0.00  0.00    +0.000 OA
ATOM     11  H   UNL     1      48.819   6.830  17.794  0.00  0.00    +0.000 HD
ATOM     12  H   UNL     1      47.340   7.070  16.872  0.00  0.00    +0.000 HD
ENDBRANCH   1   9
BRANCH   4  13
ATOM     13  N   UNL     1      45.893   6.260  11.022  0.00  0.00    +0.000 N 
ATOM     14  H   UNL     1      46.462   6.291  10.179  0.00  0.00    +0.000 HD
BRANCH  13  15
ATOM     15  C   UNL     1      44.856   5.230  10.919  0.00  0.00    +0.000 C 
BRANCH  15  16
ATOM     16  C   UNL     1      45.164   4.260   9.808  0.00  0.00    +0.000 A 
ATOM     17  C   UNL     1      44.981   2.877   9.933  0.00  0.00    +0.000 A 
ATOM     18  C   UNL     1      45.344   2.030   8.889  0.00  0.00    +0.000 A 
ATOM     19  C   UNL     1      45.901   2.591   7.754  0.00  0.00    +0.000 A 
ATOM     20  N   UNL     1      46.119   3.915   7.602  0.00  0.00    +0.000 NA
ATOM     21  C   UNL     1      45.753   4.713   8.631  0.00  0.00    +0.000 A 
ENDBRANCH  15  16
ENDBRANCH  13  15
ENDBRANCH   4  13
TORSDOF 4
ENDMDL
