MODEL 1
REMARK VINA RESULT:    -7.504      0.000      0.000
REMARK INTER + INTRA:         -11.952
REMARK INTER:                 -10.575
REMARK INTRA:                  -1.377
REMARK UNBOUND:                -1.377
REMARK  Name = 
REMARK  8 active torsions:
REMARK  status: ('A' for Active; 'I' for Inactive)
REMARK    1  A    between atoms: C_1  and  C_2
REMARK    2  A    between atoms: C_2  and  N_3
REMARK    3  A    between atoms: C_2  and  C_16
REMARK    4  A    between atoms: C_4  and  C_6
REMARK    5  A    between atoms: C_19  and  C_20
REMARK    6  A    between atoms: C_20  and  N_21
REMARK    7  A    between atoms: C_22  and  C_24
REMARK    8  A    between atoms: C_25  and  C_26
REMARK                            x       y       z     vdW  Elec       q    Type
REMARK                         _______ _______ _______ _____ _____    ______ ____
ROOT
ATOM      1  C   UNL     1      47.880   8.320  13.587  0.00  0.00    +0.000 A 
ATOM      2  C   UNL     1      46.747   9.129  13.465  0.00  0.00    +0.000 A 
ATOM      3  C   UNL     1      45.617   8.684  12.762  0.00  0.00    +0.000 A 
ATOM      4  C   UNL     1      45.582   7.407  12.181  0.00  0.00    +0.000 A 
ATOM      5  C   UNL     1      46.704   6.581  12.344  0.00  0.00    +0.000 A 
ATOM      6  C   UNL     1      47.831   7.024  13.046  0.00  0.00    +0.000 A 
ENDROOT
BRANCH   1   8
ATOM      7  C   UNL     1      49.051  10.374  14.360  0.00  0.00    +0.000 C 
ATOM      8  C   UNL     1      49.144   8.856  14.247  0.00  0.00    +0.000 C 
BRANCH   8   9
ATOM      9  N   UNL     1      49.327   8.212  15.541  0.00  0.00    +0.000 N 
ATOM     10  C   UNL     1      50.486   7.578  15.910  0.00  0.00    +0.000 C 
ATOM     11  O   UNL     1      51.471   7.509  15.176  0.00  0.00    +0.000 OA
ATOM     12  H   UNL     1      48.474   7.922  16.009  0.00  0.00    +0.000 HD
BRANCH  10  13
ATOM     13  C   UNL     1      50.523   7.039  17.268  0.00  0.00    +0.000 A 
ATOM     14  C   UNL     1      51.386   7.571  18.215  0.00  0.00    +0.000 A 
ATOM     15  S   UNL     1      51.291   6.796  19.733  0.00  0.00    +0.000 S 
ATOM     16  C   UNL     1      50.120   5.700  19.160  0.00  0.00    +0.000 A 
ATOM     17  N   UNL     1      49.627   4.711  19.952  0.00  0.00    +0.000 NA
ATOM     18  C   UNL     1      48.775   3.937  19.371  0.00  0.00    +0.000 A 
ATOM     19  N   UNL     1      48.352   4.071  18.070  0.00  0.00    +0.000 N 
ATOM     20  C   UNL     1      48.783   5.079  17.244  0.00  0.00    +0.000 A 
ATOM     21  O   UNL     1      48.327   5.217  16.120  0.00  0.00    +0.000 OA
ATOM     22  C   UNL     1      49.779   5.951  17.843  0.00  0.00    +0.000 A 
ATOM     23  H   UNL     1      47.665   3.446  17.680  0.00  0.00    +0.000 HD
ENDBRANCH  10  13
ENDBRANCH   8   9
ENDBRANCH   1   8
BRANCH   4  24
ATOM     24  C   UNL     1      44.384   6.911  11.402  0.00  0.00    +0.000 C 
BRANCH  24  25
ATOM     25  N   UNL     1      44.692   5.830  10.486  0.00  0.00    +0.000 N 
ATOM     26  C   UNL     1      43.895   4.713  10.401  0.00  0.00    +0.000 C 
ATOM     27  O   UNL     1      42.885   4.517  11.069  0.00  0.00    +0.000 OA
ATOM     28  H   UNL     1      45.534   5.895   9.927  0.00  0.00    +0.000 HD
BRANCH  26  29
ATOM     29  C   UNL     1      44.401   3.732   9.403  0.00  0.00    +0.000 C 
ATOM     30  C   UNL     1      45.598   3.907   8.816  0.00  0.00    +0.000 C 
BRANCH  30  31
ATOM     31  C   UNL     1      46.165   2.996   7.801  0.00  0.00    +0.000 A 
ATOM     32  C   UNL     1      46.587   3.441   6.545  0.00  0.00    +0.000 A 
ATOM     33  C   UNL     1      47.153   2.527   5.670  0.00  0.00    +0.000 A 
ATOM     34  N   UNL     1      47.329   1.222   5.956  0.00  0.00    +0.000 NA
ATOM     35  C   UNL     1      46.927   0.814   7.179  0.00  0.00    +0.000 A 
ATOM     36  C   UNL     1      46.353   1.652   8.122  0.00  0.00    +0.000 A 
ENDBRANCH  30  31
ENDBRANCH  26  29
ENDBRANCH  24  25
ENDBRANCH   4  24
TORSDOF 7
ENDMDL
MODEL 2
REMARK VINA RESULT:    -6.764      3.603      9.447
REMARK INTER + INTRA:         -10.908
REMARK INTER:                  -9.717
REMARK INTRA:                  -1.191
REMARK UNBOUND:                -1.377
REMARK  Name = 
REMARK  8 active torsions:
REMARK  status: ('A' for Active; 'I' for Inactive)
REMARK    1  A    between atoms: C_1  and  C_2
REMARK    2  A    between atoms: C_2  and  N_3
REMARK    3  A    between atoms: C_2  and  C_16
REMARK    4  A    between atoms: C_4  and  C_6
REMARK    5  A    between atoms: C_19  and  C_20
REMARK    6  A    between atoms: C_20  and  N_21
REMARK    7  A    between atoms: C_22  and  C_24
REMARK    8  A    between atoms: C_25  and  C_26
REMARK                            x       y       z     vdW  Elec       q    Type
REMARK                         _______ _______ _______ _____ _____    ______ ____
ROOT
ATOM      1  C   UNL     1      47.982   7.667  13.689  0.00  0.00    +0.000 A 
ATOM      2  C   UNL     1      48.227   6.472  14.370  0.00  0.00    +0.000 A 
ATOM      3  C   UNL     1      48.690   6.479  15.694  0.00  0.00    +0.000 A 
ATOM      4  C   UNL     1      48.900   7.686  16.380  0.00  0.00    +0.000 A 
ATOM      5  C   UNL     1      48.610   8.883  15.708  0.00  0.00    +0.000 A 
ATOM      6  C   UNL     1      48.147   8.875  14.388  0.00  0.00    +0.000 A 
ENDROOT
BRANCH   1   8
ATOM      7  C   UNL     1      48.854   7.743  11.360  0.00  0.00    +0.000 C 
ATOM      8  C   UNL     1      47.594   7.651  12.215  0.00  0.00    +0.000 C 
BRANCH   8   9
ATOM      9  N   UNL     1      46.814   6.454  11.931  0.00  0.00    +0.000 N 
ATOM     10  C   UNL     1      45.444   6.438  11.895  0.00  0.00    +0.000 C 
ATOM     11  O   UNL     1      44.760   7.441  12.094  0.00  0.00    +0.000 OA
ATOM     12  H   UNL     1      47.281   5.573  12.124  0.00  0.00    +0.000 HD
BRANCH  10  13
ATOM     13  C   UNL     1      44.821   5.166  11.533  0.00  0.00    +0.000 A 
ATOM     14  C   UNL     1      44.007   4.497  12.434  0.00  0.00    +0.000 A 
ATOM     15  S   UNL     1      43.388   3.026  11.830  0.00  0.00    +0.000 S 
ATOM     16  C   UNL     1      44.220   3.219  10.357  0.00  0.00    +0.000 A 
ATOM     17  N   UNL     1      44.166   2.273   9.382  0.00  0.00    +0.000 NA
ATOM     18  C   UNL     1      44.875   2.540   8.339  0.00  0.00    +0.000 A 
ATOM     19  N   UNL     1      45.623   3.680   8.169  0.00  0.00    +0.000 N 
ATOM     20  C   UNL     1      45.674   4.686   9.102  0.00  0.00    +0.000 A 
ATOM     21  O   UNL     1      46.285   5.721   8.885  0.00  0.00    +0.000 OA
ATOM     22  C   UNL     1      44.925   4.409  10.314  0.00  0.00    +0.000 A 
ATOM     23  H   UNL     1      46.139   3.841   7.319  0.00  0.00    +0.000 HD
ENDBRANCH  10  13
ENDBRANCH   8   9
ENDBRANCH   1   8
BRANCH   4  24
ATOM     24  C   UNL     1      49.418   7.723  17.802  0.00  0.00    +0.000 C 
BRANCH  24  25
ATOM     25  N   UNL     1      50.336   6.645  18.115  0.00  0.00    +0.000 N 
ATOM     26  C   UNL     1      49.899   5.476  18.693  0.00  0.00    +0.000 C 
ATOM     27  O   UNL     1      48.736   5.235  18.998  0.00  0.00    +0.000 OA
ATOM     28  H   UNL     1      51.322   6.781  17.932  0.00  0.00    +0.000 HD
BRANCH  26  29
ATOM     29  C   UNL     1      51.009   4.515  18.930  0.00  0.00    +0.000 C 
ATOM     30  C   UNL     1      51.280   3.545  18.039  0.00  0.00    +0.000 C 
BRANCH  30  31
ATOM     31  C   UNL     1      52.347   2.538  18.206  0.00  0.00    +0.000 A 
ATOM     32  C   UNL     1      53.523   2.801  18.913  0.00  0.00    +0.000 A 
ATOM     33  C   UNL     1      54.452   1.784  19.064  0.00  0.00    +0.000 A 
ATOM     34  N   UNL     1      54.291   0.540  18.571  0.00  0.00    +0.000 NA
ATOM     35  C   UNL     1      53.143   0.301  17.902  0.00  0.00    +0.000 A 
ATOM     36  C   UNL     1      52.154   1.252  17.701  0.00  0.00    +0.000 A 
ENDBRANCH  30  31
ENDBRANCH  26  29
ENDBRANCH  24  25
ENDBRANCH   4  24
TORSDOF 7
ENDMDL
MODEL 3
REMARK VINA RESULT:    -6.719      3.770      9.082
REMARK INTER + INTRA:         -10.845
REMARK INTER:                  -9.708
REMARK INTRA:                  -1.137
REMARK UNBOUND:                -1.377
REMARK  Name = 
REMARK  8 active torsions:
REMARK  status: ('A' for Active; 'I' for Inactive)
REMARK    1  A    between atoms: C_1  and  C_2
REMARK    2  A    between atoms: C_2  and  N_3
REMARK    3  A    between atoms: C_2  and  C_16
REMARK    4  A    between atoms: C_4  and  C_6
REMARK    5  A    between atoms: C_19  and  C_20
REMARK    6  A    between atoms: C_20  and  N_21
REMARK    7  A    between atoms: C_22  and  C_24
REMARK    8  A    between atoms: C_25  and  C_26
REMARK                            x       y       z     vdW  Elec       q    Type
REMARK                         _______ _______ _______ _____ _____    ______ ____
ROOT
ATOM      1  C   UNL     1      48.345   8.000  13.563  0.00  0.00    +0.000 A 
ATOM      2  C   UNL     1      48.905   6.825  14.070  0.00  0.00    +0.000 A 
ATOM      3  C   UNL     1      49.190   6.695  15.438  0.00  0.00    +0.000 A 
ATOM      4  C   UNL     1      48.901   7.732  16.339  0.00  0.00    +0.000 A 
ATOM      5  C   UNL     1      48.297   8.892  15.833  0.00  0.00    +0.000 A 
ATOM      6  C   UNL     1      48.012   9.021  14.469  0.00  0.00    +0.000 A 
ENDROOT
BRANCH   1   8
ATOM      7  C   UNL     1      49.503   8.418  11.402  0.00  0.00    +0.000 C 
ATOM      8  C   UNL     1      48.150   8.178  12.062  0.00  0.00    +0.000 C 
BRANCH   8   9
ATOM      9  N   UNL     1      47.465   7.012  11.519  0.00  0.00    +0.000 N 
ATOM     10  C   UNL     1      46.102   6.928  11.398  0.00  0.00    +0.000 C 
ATOM     11  O   UNL     1      45.345   7.838  11.732  0.00  0.00    +0.000 OA
ATOM     12  H   UNL     1      47.978   6.137  11.579  0.00  0.00    +0.000 HD
BRANCH  10  13
ATOM     13  C   UNL     1      45.583   5.712  10.775  0.00  0.00    +0.000 A 
ATOM     14  C   UNL     1      45.768   5.478   9.420  0.00  0.00    +0.000 A 
ATOM     15  S   UNL     1      45.076   4.014   8.881  0.00  0.00    +0.000 S 
ATOM     16  C   UNL     1      44.474   3.664  10.436  0.00  0.00    +0.000 A 
ATOM     17  N   UNL     1      43.726   2.554  10.674  0.00  0.00    +0.000 NA
ATOM     18  C   UNL     1      43.311   2.441  11.889  0.00  0.00    +0.000 A 
ATOM     19  N   UNL     1      43.590   3.329  12.900  0.00  0.00    +0.000 N 
ATOM     20  C   UNL     1      44.378   4.439  12.724  0.00  0.00    +0.000 A 
ATOM     21  O   UNL     1      44.672   5.164  13.661  0.00  0.00    +0.000 OA
ATOM     22  C   UNL     1      44.833   4.631  11.358  0.00  0.00    +0.000 A 
ATOM     23  H   UNL     1      43.254   3.173  13.836  0.00  0.00    +0.000 HD
ENDBRANCH  10  13
ENDBRANCH   8   9
ENDBRANCH   1   8
BRANCH   4  24
ATOM     24  C   UNL     1      49.216   7.625  17.815  0.00  0.00    +0.000 C 
BRANCH  24  25
ATOM     25  N   UNL     1      50.152   6.565  18.135  0.00  0.00    +0.000 N 
ATOM     26  C   UNL     1      49.719   5.319  18.524  0.00  0.00    +0.000 C 
ATOM     27  O   UNL     1      48.544   4.989  18.642  0.00  0.00    +0.000 OA
ATOM     28  H   UNL     1      51.143   6.769  18.103  0.00  0.00    +0.000 HD
BRANCH  26  29
ATOM     29  C   UNL     1      50.848   4.392  18.807  0.00  0.00    +0.000 C 
ATOM     30  C   UNL     1      51.222   3.469  17.904  0.00  0.00    +0.000 C 
BRANCH  30  31
ATOM     31  C   UNL     1      52.315   2.499  18.113  0.00  0.00    +0.000 A 
ATOM     32  C   UNL     1      52.324   1.238  17.511  0.00  0.00    +0.000 A 
ATOM     33  C   UNL     1      53.413   0.406  17.721  0.00  0.00    +0.000 A 
ATOM     34  N   UNL     1      54.478   0.741  18.476  0.00  0.00    +0.000 NA
ATOM     35  C   UNL     1      54.457   1.967  19.039  0.00  0.00    +0.000 A 
ATOM     36  C   UNL     1      53.416   2.869  18.886  0.00  0.00    +0.000 A 
ENDBRANCH  30  31
ENDBRANCH  26  29
ENDBRANCH  24  25
ENDBRANCH   4  24
TORSDOF 7
ENDMDL
MODEL 4
REMARK VINA RESULT:    -6.609      5.665     10.659
REMARK INTER + INTRA:         -10.690
REMARK INTER:                  -9.790
REMARK INTRA:                  -0.900
REMARK UNBOUND:                -1.377
REMARK  Name = 
REMARK  8 active torsions:
REMARK  status: ('A' for Active; 'I' for Inactive)
REMARK    1  A    between atoms: C_1  and  C_2
REMARK    2  A    between atoms: C_2  and  N_3
REMARK    3  A    between atoms: C_2  and  C_16
REMARK    4  A    between atoms: C_4  and  C_6
REMARK    5  A    between atoms: C_19  and  C_20
REMARK    6  A    between atoms: C_20  and  N_21
REMARK    7  A    between atoms: C_22  and  C_24
REMARK    8  A    between atoms: C_25  and  C_26
REMARK                            x       y       z     vdW  Elec       q    Type
REMARK                         _______ _______ _______ _____ _____    ______ ____
ROOT
ATOM      1  C   UNL     1      48.973   3.799  17.326  0.00  0.00    +0.000 A 
ATOM      2  C   UNL     1      49.960   4.740  17.628  0.00  0.00    +0.000 A 
ATOM      3  C   UNL     1      51.292   4.348  17.827  0.00  0.00    +0.000 A 
ATOM      4  C   UNL     1      51.676   3.002  17.707  0.00  0.00    +0.000 A 
ATOM      5  C   UNL     1      50.690   2.067  17.359  0.00  0.00    +0.000 A 
ATOM      6  C   UNL     1      49.362   2.459  17.159  0.00  0.00    +0.000 A 
ENDROOT
BRANCH   1   8
ATOM      7  C   UNL     1      47.121   4.987  18.487  0.00  0.00    +0.000 C 
ATOM      8  C   UNL     1      47.510   4.217  17.229  0.00  0.00    +0.000 C 
BRANCH   8   9
ATOM      9  N   UNL     1      47.306   4.995  16.015  0.00  0.00    +0.000 N 
ATOM     10  C   UNL     1      47.217   4.433  14.767  0.00  0.00    +0.000 C 
ATOM     11  O   UNL     1      47.295   3.221  14.574  0.00  0.00    +0.000 OA
ATOM     12  H   UNL     1      47.598   5.966  16.064  0.00  0.00    +0.000 HD
BRANCH  10  13
ATOM     13  C   UNL     1      46.949   5.352  13.663  0.00  0.00    +0.000 A 
ATOM     14  C   UNL     1      47.919   6.249  13.239  0.00  0.00    +0.000 A 
ATOM     15  S   UNL     1      47.409   7.244  11.949  0.00  0.00    +0.000 S 
ATOM     16  C   UNL     1      45.861   6.533  11.942  0.00  0.00    +0.000 A 
ATOM     17  N   UNL     1      44.889   6.961  11.094  0.00  0.00    +0.000 NA
ATOM     18  C   UNL     1      43.759   6.354  11.228  0.00  0.00    +0.000 A 
ATOM     19  N   UNL     1      43.514   5.339  12.123  0.00  0.00    +0.000 N 
ATOM     20  C   UNL     1      44.474   4.840  12.968  0.00  0.00    +0.000 A 
ATOM     21  O   UNL     1      44.246   3.885  13.694  0.00  0.00    +0.000 OA
ATOM     22  C   UNL     1      45.752   5.524  12.882  0.00  0.00    +0.000 A 
ATOM     23  H   UNL     1      42.614   4.889  12.164  0.00  0.00    +0.000 HD
ENDBRANCH  10  13
ENDBRANCH   8   9
ENDBRANCH   1   8
BRANCH   4  24
ATOM     24  C   UNL     1      53.102   2.550  17.936  0.00  0.00    +0.000 C 
BRANCH  24  25
ATOM     25  N   UNL     1      53.246   1.112  18.041  0.00  0.00    +0.000 N 
ATOM     26  C   UNL     1      54.409   0.479  17.667  0.00  0.00    +0.000 C 
ATOM     27  O   UNL     1      55.402   1.041  17.218  0.00  0.00    +0.000 OA
ATOM     28  H   UNL     1      52.455   0.568  18.363  0.00  0.00    +0.000 HD
BRANCH  26  29
ATOM     29  C   UNL     1      54.333  -0.996  17.853  0.00  0.00    +0.000 C 
ATOM     30  C   UNL     1      54.350  -1.534  19.085  0.00  0.00    +0.000 C 
BRANCH  30  31
ATOM     31  C   UNL     1      54.301  -2.984  19.358  0.00  0.00    +0.000 A 
ATOM     32  C   UNL     1      55.450  -3.779  19.404  0.00  0.00    +0.000 A 
ATOM     33  C   UNL     1      55.319  -5.123  19.715  0.00  0.00    +0.000 A 
ATOM     34  N   UNL     1      54.142  -5.721  19.983  0.00  0.00    +0.000 NA
ATOM     35  C   UNL     1      53.044  -4.935  19.946  0.00  0.00    +0.000 A 
ATOM     36  C   UNL     1      53.074  -3.582  19.647  0.00  0.00    +0.000 A 
ENDBRANCH  30  31
ENDBRANCH  26  29
ENDBRANCH  24  25
ENDBRANCH   4  24
TORSDOF 7
ENDMDL
MODEL 5
REMARK VINA RESULT:    -6.005      4.178      9.353
REMARK INTER + INTRA:          -9.840
REMARK INTER:                  -8.844
REMARK INTRA:                  -0.996
REMARK UNBOUND:                -1.377
REMARK  Name = 
REMARK  8 active torsions:
REMARK  status: ('A' for Active; 'I' for Inactive)
REMARK    1  A    between atoms: C_1  and  C_2
REMARK    2  A    between atoms: C_2  and  N_3
REMARK    3  A    between atoms: C_2  and  C_16
REMARK    4  A    between atoms: C_4  and  C_6
REMARK    5  A    between atoms: C_19  and  C_20
REMARK    6  A    between atoms: C_20  and  N_21
REMARK    7  A    between atoms: C_22  and  C_24
REMARK    8  A    between atoms: C_25  and  C_26
REMARK                            x       y       z     vdW  Elec       q    Type
REMARK                         _______ _______ _______ _____ _____    ______ ____
ROOT
ATOM      1  C   UNL     1      48.949   3.756  16.943  0.00  0.00    +0.000 A 
ATOM      2  C   UNL     1      49.945   2.826  17.250  0.00  0.00    +0.000 A 
ATOM      3  C   UNL     1      51.254   3.240  17.535  0.00  0.00    +0.000 A 
ATOM      4  C   UNL     1      51.597   4.602  17.542  0.00  0.00    +0.000 A 
ATOM      5  C   UNL     1      50.584   5.535  17.277  0.00  0.00    +0.000 A 
ATOM      6  C   UNL     1      49.277   5.122  16.994  0.00  0.00    +0.000 A 
ENDROOT
BRANCH   1   8
ATOM      7  C   UNL     1      46.702   3.066  17.759  0.00  0.00    +0.000 C 
ATOM      8  C   UNL     1      47.561   3.290  16.519  0.00  0.00    +0.000 C 
BRANCH   8   9
ATOM      9  N   UNL     1      46.978   4.266  15.608  0.00  0.00    +0.000 N 
ATOM     10  C   UNL     1      46.838   4.049  14.261  0.00  0.00    +0.000 C 
ATOM     11  O   UNL     1      47.189   3.005  13.714  0.00  0.00    +0.000 OA
ATOM     12  H   UNL     1      47.020   5.232  15.918  0.00  0.00    +0.000 HD
BRANCH  10  13
ATOM     13  C   UNL     1      46.176   5.108  13.502  0.00  0.00    +0.000 A 
ATOM     14  C   UNL     1      46.743   6.371  13.411  0.00  0.00    +0.000 A 
ATOM     15  S   UNL     1      45.812   7.470  12.494  0.00  0.00    +0.000 S 
ATOM     16  C   UNL     1      44.604   6.301  12.221  0.00  0.00    +0.000 A 
ATOM     17  N   UNL     1      43.472   6.600  11.530  0.00  0.00    +0.000 NA
ATOM     18  C   UNL     1      42.632   5.626  11.435  0.00  0.00    +0.000 A 
ATOM     19  N   UNL     1      42.827   4.368  11.952  0.00  0.00    +0.000 N 
ATOM     20  C   UNL     1      43.971   4.002  12.617  0.00  0.00    +0.000 A 
ATOM     21  O   UNL     1      44.147   2.854  12.994  0.00  0.00    +0.000 OA
ATOM     22  C   UNL     1      44.928   5.081  12.787  0.00  0.00    +0.000 A 
ATOM     23  H   UNL     1      42.141   3.642  11.825  0.00  0.00    +0.000 HD
ENDBRANCH  10  13
ENDBRANCH   8   9
ENDBRANCH   1   8
BRANCH   4  24
ATOM     24  C   UNL     1      53.006   5.074  17.826  0.00  0.00    +0.000 C 
BRANCH  24  25
ATOM     25  N   UNL     1      53.601   5.820  16.735  0.00  0.00    +0.000 N 
ATOM     26  C   UNL     1      54.346   6.954  16.963  0.00  0.00    +0.000 C 
ATOM     27  O   UNL     1      54.570   7.437  18.067  0.00  0.00    +0.000 OA
ATOM     28  H   UNL     1      53.428   5.511  15.786  0.00  0.00    +0.000 HD
BRANCH  26  29
ATOM     29  C   UNL     1      54.854   7.558  15.702  0.00  0.00    +0.000 C 
ATOM     30  C   UNL     1      54.502   7.052  14.507  0.00  0.00    +0.000 C 
BRANCH  30  31
ATOM     31  C   UNL     1      54.976   7.577  13.211  0.00  0.00    +0.000 A 
ATOM     32  C   UNL     1      55.338   6.742  12.150  0.00  0.00    +0.000 A 
ATOM     33  C   UNL     1      55.727   7.318  10.950  0.00  0.00    +0.000 A 
ATOM     34  N   UNL     1      55.775   8.648  10.737  0.00  0.00    +0.000 NA
ATOM     35  C   UNL     1      55.410   9.438  11.769  0.00  0.00    +0.000 A 
ATOM     36  C   UNL     1      55.005   8.956  13.004  0.00  0.00    +0.000 A 
ENDBRANCH  30  31
ENDBRANCH  26  29
ENDBRANCH  24  25
ENDBRANCH   4  24
TORSDOF 7
ENDMDL
MODEL 6
REMARK VINA RESULT:    -5.522      4.355      9.273
REMARK INTER + INTRA:          -9.159
REMARK INTER:                  -7.683
REMARK INTRA:                  -1.476
REMARK UNBOUND:                -1.377
REMARK  Name = 
REMARK  8 active torsions:
REMARK  status: ('A' for Active; 'I' for Inactive)
REMARK    1  A    between atoms: C_1  and  C_2
REMARK    2  A    between atoms: C_2  and  N_3
REMARK    3  A    between atoms: C_2  and  C_16
REMARK    4  A    between atoms: C_4  and  C_6
REMARK    5  A    between atoms: C_19  and  C_20
REMARK    6  A    between atoms: C_20  and  N_21
REMARK    7  A    between atoms: C_22  and  C_24
REMARK    8  A    between atoms: C_25  and  C_26
REMARK                            x       y       z     vdW  Elec       q    Type
REMARK                         _______ _______ _______ _____ _____    ______ ____
ROOT
ATOM      1  C   UNL     1      49.127   3.449  17.211  0.00  0.00    +0.000 A 
ATOM      2  C   UNL     1      50.153   2.501  17.173  0.00  0.00    +0.000 A 
ATOM      3  C   UNL     1      51.484   2.870  17.421  0.00  0.00    +0.000 A 
ATOM      4  C   UNL     1      51.820   4.196  17.737  0.00  0.00    +0.000 A 
ATOM      5  C   UNL     1      50.781   5.135  17.819  0.00  0.00    +0.000 A 
ATOM      6  C   UNL     1      49.454   4.767  17.572  0.00  0.00    +0.000 A 
ENDROOT
BRANCH   1   8
ATOM      7  C   UNL     1      46.865   2.894  18.084  0.00  0.00    +0.000 C 
ATOM      8  C   UNL     1      47.705   3.064  16.822  0.00  0.00    +0.000 C 
BRANCH   8   9
ATOM      9  N   UNL     1      47.158   4.069  15.921  0.00  0.00    +0.000 N 
ATOM     10  C   UNL     1      47.075   3.897  14.563  0.00  0.00    +0.000 C 
ATOM     11  O   UNL     1      47.452   2.873  13.996  0.00  0.00    +0.000 OA
ATOM     12  H   UNL     1      47.183   5.024  16.265  0.00  0.00    +0.000 HD
BRANCH  10  13
ATOM     13  C   UNL     1      46.442   4.980  13.813  0.00  0.00    +0.000 A 
ATOM     14  C   UNL     1      45.178   4.815  13.265  0.00  0.00    +0.000 A 
ATOM     15  S   UNL     1      44.620   6.186  12.416  0.00  0.00    +0.000 S 
ATOM     16  C   UNL     1      46.067   7.031  12.721  0.00  0.00    +0.000 A 
ATOM     17  N   UNL     1      46.278   8.279  12.224  0.00  0.00    +0.000 NA
ATOM     18  C   UNL     1      47.433   8.778  12.508  0.00  0.00    +0.000 A 
ATOM     19  N   UNL     1      48.395   8.150  13.262  0.00  0.00    +0.000 N 
ATOM     20  C   UNL     1      48.214   6.911  13.824  0.00  0.00    +0.000 A 
ATOM     21  O   UNL     1      49.059   6.417  14.554  0.00  0.00    +0.000 OA
ATOM     22  C   UNL     1      46.943   6.291  13.495  0.00  0.00    +0.000 A 
ATOM     23  H   UNL     1      49.271   8.603  13.467  0.00  0.00    +0.000 HD
ENDBRANCH  10  13
ENDBRANCH   8   9
ENDBRANCH   1   8
BRANCH   4  24
ATOM     24  C   UNL     1      53.249   4.624  17.990  0.00  0.00    +0.000 C 
BRANCH  24  25
ATOM     25  N   UNL     1      53.809   5.441  16.932  0.00  0.00    +0.000 N 
ATOM     26  C   UNL     1      54.602   6.529  17.209  0.00  0.00    +0.000 C 
ATOM     27  O   UNL     1      54.902   6.912  18.335  0.00  0.00    +0.000 OA
ATOM     28  H   UNL     1      53.574   5.217  15.973  0.00  0.00    +0.000 HD
BRANCH  26  29
ATOM     29  C   UNL     1      55.060   7.223  15.974  0.00  0.00    +0.000 C 
ATOM     30  C   UNL     1      54.650   6.809  14.762  0.00  0.00    +0.000 C 
BRANCH  30  31
ATOM     31  C   UNL     1      55.073   7.426  13.489  0.00  0.00    +0.000 A 
ATOM     32  C   UNL     1      55.345   6.672  12.344  0.00  0.00    +0.000 A 
ATOM     33  C   UNL     1      55.689   7.334  11.175  0.00  0.00    +0.000 A 
ATOM     34  N   UNL     1      55.775   8.675  11.070  0.00  0.00    +0.000 NA
ATOM     35  C   UNL     1      55.496   9.386  12.182  0.00  0.00    +0.000 A 
ATOM     36  C   UNL     1      55.142   8.816  13.395  0.00  0.00    +0.000 A 
ENDBRANCH  30  31
ENDBRANCH  26  29
ENDBRANCH  24  25
ENDBRANCH   4  24
TORSDOF 7
ENDMDL
MODEL 7
REMARK VINA RESULT:    -5.152     10.701     12.240
REMARK INTER + INTRA:          -8.637
REMARK INTER:                  -7.191
REMARK INTRA:                  -1.446
REMARK UNBOUND:                -1.377
REMARK  Name = 
REMARK  8 active torsions:
REMARK  status: ('A' for Active; 'I' for Inactive)
REMARK    1  A    between atoms: C_1  and  C_2
REMARK    2  A    between atoms: C_2  and  N_3
REMARK    3  A    between atoms: C_2  and  C_16
REMARK    4  A    between atoms: C_4  and  C_6
REMARK    5  A    between atoms: C_19  and  C_20
REMARK    6  A    between atoms: C_20  and  N_21
REMARK    7  A    between atoms: C_22  and  C_24
REMARK    8  A    between atoms: C_25  and  C_26
REMARK                            x       y       z     vdW  Elec       q    Type
REMARK                         _______ _______ _______ _____ _____    ______ ____
ROOT
ATOM      1  C   UNL     1      40.394  -3.260  17.757  0.00  0.00    +0.000 A 
ATOM      2  C   UNL     1      39.539  -3.033  16.676  0.00  0.00    +0.000 A 
ATOM      3  C   UNL     1      39.920  -3.380  15.371  0.00  0.00    +0.000 A 
ATOM      4  C   UNL     1      41.160  -3.987  15.117  0.00  0.00    +0.000 A 
ATOM      5  C   UNL     1      41.997  -4.255  16.211  0.00  0.00    +0.000 A 
ATOM      6  C   UNL     1      41.616  -3.909  17.512  0.00  0.00    +0.000 A 
ENDROOT
BRANCH   1   8
ATOM      7  C   UNL     1      41.082  -3.233  20.148  0.00  0.00    +0.000 C 
ATOM      8  C   UNL     1      40.022  -2.772  19.152  0.00  0.00    +0.000 C 
BRANCH   8   9
ATOM      9  N   UNL     1      39.868  -1.323  19.135  0.00  0.00    +0.000 N 
ATOM     10  C   UNL     1      38.937  -0.656  19.888  0.00  0.00    +0.000 C 
ATOM     11  O   UNL     1      38.157  -1.230  20.648  0.00  0.00    +0.000 OA
ATOM     12  H   UNL     1      40.202  -0.859  18.296  0.00  0.00    +0.000 HD
BRANCH  10  13
ATOM     13  C   UNL     1      38.958   0.803  19.798  0.00  0.00    +0.000 A 
ATOM     14  C   UNL     1      39.366   1.570  20.880  0.00  0.00    +0.000 A 
ATOM     15  S   UNL     1      39.307   3.250  20.583  0.00  0.00    +0.000 S 
ATOM     16  C   UNL     1      38.698   3.004  19.011  0.00  0.00    +0.000 A 
ATOM     17  N   UNL     1      38.372   4.051  18.206  0.00  0.00    +0.000 NA
ATOM     18  C   UNL     1      37.890   3.711  17.059  0.00  0.00    +0.000 A 
ATOM     19  N   UNL     1      37.718   2.416  16.632  0.00  0.00    +0.000 N 
ATOM     20  C   UNL     1      38.074   1.326  17.388  0.00  0.00    +0.000 A 
ATOM     21  O   UNL     1      37.982   0.192  16.947  0.00  0.00    +0.000 OA
ATOM     22  C   UNL     1      38.582   1.660  18.706  0.00  0.00    +0.000 A 
ATOM     23  H   UNL     1      37.356   2.216  15.714  0.00  0.00    +0.000 HD
ENDBRANCH  10  13
ENDBRANCH   8   9
ENDBRANCH   1   8
BRANCH   4  24
ATOM     24  C   UNL     1      41.604  -4.353  13.717  0.00  0.00    +0.000 C 
BRANCH  24  25
ATOM     25  N   UNL     1      40.743  -3.826  12.677  0.00  0.00    +0.000 N 
ATOM     26  C   UNL     1      41.018  -2.629  12.057  0.00  0.00    +0.000 C 
ATOM     27  O   UNL     1      41.977  -1.909  12.313  0.00  0.00    +0.000 OA
ATOM     28  H   UNL     1      39.905  -4.340  12.436  0.00  0.00    +0.000 HD
BRANCH  26  29
ATOM     29  C   UNL     1      40.001  -2.280  11.028  0.00  0.00    +0.000 C 
ATOM     30  C   UNL     1      38.934  -1.525  11.346  0.00  0.00    +0.000 C 
BRANCH  30  31
ATOM     31  C   UNL     1      37.870  -1.151  10.393  0.00  0.00    +0.000 A 
ATOM     32  C   UNL     1      37.214   0.082  10.446  0.00  0.00    +0.000 A 
ATOM     33  C   UNL     1      36.260   0.372   9.483  0.00  0.00    +0.000 A 
ATOM     34  N   UNL     1      35.922  -0.468   8.485  0.00  0.00    +0.000 NA
ATOM     35  C   UNL     1      36.574  -1.648   8.443  0.00  0.00    +0.000 A 
ATOM     36  C   UNL     1      37.544  -2.028   9.358  0.00  0.00    +0.000 A 
ENDBRANCH  30  31
ENDBRANCH  26  29
ENDBRANCH  24  25
ENDBRANCH   4  24
TORSDOF 7
ENDMDL
MODEL 8
REMARK VINA RESULT:    -4.797     11.580     14.906
REMARK INTER + INTRA:          -8.136
REMARK INTER:                  -6.863
REMARK INTRA:                  -1.273
REMARK UNBOUND:                -1.377
REMARK  Name = 
REMARK  8 active torsions:
REMARK  status: ('A' for Active; 'I' for Inactive)
REMARK    1  A    between atoms: C_1  and  C_2
REMARK    2  A    between atoms: C_2  and  N_3
REMARK    3  A    between atoms: C_2  and  C_16
REMARK    4  A    between atoms: C_4  and  C_6
REMARK    5  A    between atoms: C_19  and  C_20
REMARK    6  A    between atoms: C_20  and  N_21
REMARK    7  A    between atoms: C_22  and  C_24
REMARK    8  A    between atoms: C_25  and  C_26
REMARK                            x       y       z     vdW  Elec       q    Type
REMARK                         _______ _______ _______ _____ _____    ______ ____
ROOT
ATOM      1  C   UNL     1      41.380  -4.054  14.767  0.00  0.00    +0.000 A 
ATOM      2  C   UNL     1      41.821  -4.966  15.729  0.00  0.00    +0.000 A 
ATOM      3  C   UNL     1      41.718  -4.675  17.098  0.00  0.00    +0.000 A 
ATOM      4  C   UNL     1      41.151  -3.470  17.540  0.00  0.00    +0.000 A 
ATOM      5  C   UNL     1      40.668  -2.577  16.572  0.00  0.00    +0.000 A 
ATOM      6  C   UNL     1      40.770  -2.867  15.207  0.00  0.00    +0.000 A 
ENDROOT
BRANCH   1   8
ATOM      7  C   UNL     1      41.955  -5.798  13.088  0.00  0.00    +0.000 C 
ATOM      8  C   UNL     1      41.605  -4.327  13.284  0.00  0.00    +0.000 C 
BRANCH   8   9
ATOM      9  N   UNL     1      40.421  -3.931  12.533  0.00  0.00    +0.000 N 
ATOM     10  C   UNL     1      40.333  -2.759  11.828  0.00  0.00    +0.000 C 
ATOM     11  O   UNL     1      41.255  -1.946  11.767  0.00  0.00    +0.000 OA
ATOM     12  H   UNL     1      39.549  -4.352  12.839  0.00  0.00    +0.000 HD
BRANCH  10  13
ATOM     13  C   UNL     1      39.096  -2.546  11.079  0.00  0.00    +0.000 A 
ATOM     14  C   UNL     1      38.954  -3.049   9.793  0.00  0.00    +0.000 A 
ATOM     15  S   UNL     1      37.445  -2.683   9.083  0.00  0.00    +0.000 S 
ATOM     16  C   UNL     1      36.950  -1.808  10.458  0.00  0.00    +0.000 A 
ATOM     17  N   UNL     1      35.748  -1.175  10.500  0.00  0.00    +0.000 NA
ATOM     18  C   UNL     1      35.525  -0.524  11.591  0.00  0.00    +0.000 A 
ATOM     19  N   UNL     1      36.389  -0.462  12.658  0.00  0.00    +0.000 N 
ATOM     20  C   UNL     1      37.593  -1.121  12.684  0.00  0.00    +0.000 A 
ATOM     21  O   UNL     1      38.300  -1.110  13.679  0.00  0.00    +0.000 OA
ATOM     22  C   UNL     1      37.906  -1.833  11.457  0.00  0.00    +0.000 A 
ATOM     23  H   UNL     1      36.147   0.046  13.493  0.00  0.00    +0.000 HD
ENDBRANCH  10  13
ENDBRANCH   8   9
ENDBRANCH   1   8
BRANCH   4  24
ATOM     24  C   UNL     1      41.046  -3.123  19.009  0.00  0.00    +0.000 C 
BRANCH  24  25
ATOM     25  N   UNL     1      40.331  -1.889  19.266  0.00  0.00    +0.000 N 
ATOM     26  C   UNL     1      38.987  -1.887  19.559  0.00  0.00    +0.000 C 
ATOM     27  O   UNL     1      38.280  -2.887  19.624  0.00  0.00    +0.000 OA
ATOM     28  H   UNL     1      40.833  -1.013  19.191  0.00  0.00    +0.000 HD
BRANCH  26  29
ATOM     29  C   UNL     1      38.460  -0.513  19.781  0.00  0.00    +0.000 C 
ATOM     30  C   UNL     1      38.542   0.418  18.814  0.00  0.00    +0.000 C 
BRANCH  30  31
ATOM     31  C   UNL     1      38.064   1.808  18.958  0.00  0.00    +0.000 A 
ATOM     32  C   UNL     1      37.946   2.677  17.870  0.00  0.00    +0.000 A 
ATOM     33  C   UNL     1      37.443   3.951  18.086  0.00  0.00    +0.000 A 
ATOM     34  N   UNL     1      37.053   4.409  19.292  0.00  0.00    +0.000 NA
ATOM     35  C   UNL     1      37.163   3.551  20.328  0.00  0.00    +0.000 A 
ATOM     36  C   UNL     1      37.651   2.259  20.212  0.00  0.00    +0.000 A 
ENDBRANCH  30  31
ENDBRANCH  26  29
ENDBRANCH  24  25
ENDBRANCH   4  24
TORSDOF 7
ENDMDL
MODEL 9
REMARK VINA RESULT:    -4.754     11.427     15.319
REMARK INTER + INTRA:          -8.076
REMARK INTER:                  -6.824
REMARK INTRA:                  -1.253
REMARK UNBOUND:                -1.377
REMARK  Name = 
REMARK  8 active torsions:
REMARK  status: ('A' for Active; 'I' for Inactive)
REMARK    1  A    between atoms: C_1  and  C_2
REMARK    2  A    between atoms: C_2  and  N_3
REMARK    3  A    between atoms: C_2  and  C_16
REMARK    4  A    between atoms: C_4  and  C_6
REMARK    5  A    between atoms: C_19  and  C_20
REMARK    6  A    between atoms: C_20  and  N_21
REMARK    7  A    between atoms: C_22  and  C_24
REMARK    8  A    between atoms: C_25  and  C_26
REMARK                            x       y       z     vdW  Elec       q    Type
REMARK                         _______ _______ _______ _____ _____    ______ ____
ROOT
ATOM      1  C   UNL     1      41.205  -3.658  14.629  0.00  0.00    +0.000 A 
ATOM      2  C   UNL     1      41.688  -4.585  15.555  0.00  0.00    +0.000 A 
ATOM      3  C   UNL     1      41.574  -4.352  16.934  0.00  0.00    +0.000 A 
ATOM      4  C   UNL     1      40.953  -3.191  17.423  0.00  0.00    +0.000 A 
ATOM      5  C   UNL     1      40.430  -2.284  16.490  0.00  0.00    +0.000 A 
ATOM      6  C   UNL     1      40.542  -2.518  15.115  0.00  0.00    +0.000 A 
ENDROOT
BRANCH   1   8
ATOM      7  C   UNL     1      41.817  -5.318  12.880  0.00  0.00    +0.000 C 
ATOM      8  C   UNL     1      41.439  -3.862  13.137  0.00  0.00    +0.000 C 
BRANCH   8   9
ATOM      9  N   UNL     1      40.251  -3.457  12.398  0.00  0.00    +0.000 N 
ATOM     10  C   UNL     1      40.229  -2.397  11.530  0.00  0.00    +0.000 C 
ATOM     11  O   UNL     1      41.219  -1.704  11.298  0.00  0.00    +0.000 OA
ATOM     12  H   UNL     1      39.365  -3.734  12.811  0.00  0.00    +0.000 HD
BRANCH  10  13
ATOM     13  C   UNL     1      38.971  -2.166  10.824  0.00  0.00    +0.000 A 
ATOM     14  C   UNL     1      38.275  -0.977  10.992  0.00  0.00    +0.000 A 
ATOM     15  S   UNL     1      36.824  -0.905  10.096  0.00  0.00    +0.000 S 
ATOM     16  C   UNL     1      37.062  -2.477   9.483  0.00  0.00    +0.000 A 
ATOM     17  N   UNL     1      36.146  -3.066   8.670  0.00  0.00    +0.000 NA
ATOM     18  C   UNL     1      36.444  -4.270   8.315  0.00  0.00    +0.000 A 
ATOM     19  N   UNL     1      37.588  -4.937   8.684  0.00  0.00    +0.000 N 
ATOM     20  C   UNL     1      38.564  -4.370   9.465  0.00  0.00    +0.000 A 
ATOM     21  O   UNL     1      39.604  -4.961   9.708  0.00  0.00    +0.000 OA
ATOM     22  C   UNL     1      38.251  -3.029   9.925  0.00  0.00    +0.000 A 
ATOM     23  H   UNL     1      37.774  -5.870   8.355  0.00  0.00    +0.000 HD
ENDBRANCH  10  13
ENDBRANCH   8   9
ENDBRANCH   1   8
BRANCH   4  24
ATOM     24  C   UNL     1      40.835  -2.906  18.904  0.00  0.00    +0.000 C 
BRANCH  24  25
ATOM     25  N   UNL     1      39.950  -1.801  19.216  0.00  0.00    +0.000 N 
ATOM     26  C   UNL     1      40.163  -0.998  20.312  0.00  0.00    +0.000 C 
ATOM     27  O   UNL     1      41.083  -1.131  21.112  0.00  0.00    +0.000 OA
ATOM     28  H   UNL     1      39.140  -1.649  18.627  0.00  0.00    +0.000 HD
BRANCH  26  29
ATOM     29  C   UNL     1      39.132   0.066  20.441  0.00  0.00    +0.000 C 
ATOM     30  C   UNL     1      38.919   0.941  19.442  0.00  0.00    +0.000 C 
BRANCH  30  31
ATOM     31  C   UNL     1      37.933   2.039  19.497  0.00  0.00    +0.000 A 
ATOM     32  C   UNL     1      36.771   1.966  20.270  0.00  0.00    +0.000 A 
ATOM     33  C   UNL     1      35.922   3.062  20.302  0.00  0.00    +0.000 A 
ATOM     34  N   UNL     1      36.150   4.208  19.631  0.00  0.00    +0.000 NA
ATOM     35  C   UNL     1      37.283   4.264  18.899  0.00  0.00    +0.000 A 
ATOM     36  C   UNL     1      38.194   3.222  18.806  0.00  0.00    +0.000 A 
ENDBRANCH  30  31
ENDBRANCH  26  29
ENDBRANCH  24  25
ENDBRANCH   4  24
TORSDOF 7
ENDMDL
