MODEL 1
REMARK VINA RESULT:    -8.139      0.000      0.000
REMARK INTER + INTRA:         -12.039
REMARK INTER:                 -10.993
REMARK INTRA:                  -1.045
REMARK UNBOUND:                -1.045
REMARK  Name = 
REMARK  7 active torsions:
REMARK  status: ('A' for Active; 'I' for Inactive)
REMARK    1  A    between atoms: C_1  and  O_2
REMARK    2  A    between atoms: O_2  and  C_3
REMARK    3  A    between atoms: C_8  and  C_9
REMARK    4  A    between atoms: C_9  and  C_10
REMARK    5  A    between atoms: C_13  and  C_14
REMARK    6  A    between atoms: C_14  and  N_15
REMARK    7  A    between atoms: C_16  and  C_18
REMARK                            x       y       z     vdW  Elec       q    Type
REMARK                         _______ _______ _______ _____ _____    ______ ____
ROOT
ATOM      1  C   UNL     1      47.594   8.495  13.873  0.00  0.00    +0.000 C 
ENDROOT
BRANCH   1   5
ATOM      2  C   UNL     1      44.897   6.370  11.252  0.00  0.00    +0.000 A 
ATOM      3  C   UNL     1      46.088   5.771  11.679  0.00  0.00    +0.000 A 
ATOM      4  C   UNL     1      46.995   6.475  12.475  0.00  0.00    +0.000 A 
ATOM      5  C   UNL     1      46.722   7.791  12.868  0.00  0.00    +0.000 A 
ATOM      6  C   UNL     1      45.588   8.428  12.346  0.00  0.00    +0.000 A 
ATOM      7  C   UNL     1      44.680   7.722  11.551  0.00  0.00    +0.000 A 
BRANCH   2   8
ATOM      8  C   UNL     1      43.854   5.550  10.528  0.00  0.00    +0.000 C 
BRANCH   8  14
ATOM      9  C   UNL     1      44.108   3.030  10.100  0.00  0.00    +0.000 A 
ATOM     10  C   UNL     1      44.734   1.982   9.409  0.00  0.00    +0.000 A 
ATOM     11  C   UNL     1      45.628   2.244   8.370  0.00  0.00    +0.000 A 
ATOM     12  C   UNL     1      45.883   3.556   7.990  0.00  0.00    +0.000 A 
ATOM     13  C   UNL     1      45.272   4.607   8.672  0.00  0.00    +0.000 A 
ATOM     14  C   UNL     1      44.401   4.364   9.751  0.00  0.00    +0.000 A 
BRANCH   9  16
ATOM     15  C   UNL     1      43.704   2.843  12.438  0.00  0.00    +0.000 C 
ATOM     16  O   UNL     1      43.197   2.840  11.108  0.00  0.00    +0.000 OA
ENDBRANCH   9  16
ENDBRANCH   8  14
ENDBRANCH   2   8
ENDBRANCH   1   5
BRANCH   1  17
ATOM     17  N   UNL     1      47.874   7.681  15.024  0.00  0.00    +0.000 N 
ATOM     18  C   UNL     1      49.061   6.998  15.127  0.00  0.00    +0.000 C 
ATOM     19  O   UNL     1      49.942   7.085  14.276  0.00  0.00    +0.000 OA
ATOM     20  H   UNL     1      47.083   7.403  15.597  0.00  0.00    +0.000 HD
BRANCH  18  21
ATOM     21  C   UNL     1      49.250   6.201  16.343  0.00  0.00    +0.000 A 
ATOM     22  C   UNL     1      50.248   6.545  17.245  0.00  0.00    +0.000 A 
ATOM     23  S   UNL     1      50.292   5.549  18.627  0.00  0.00    +0.000 S 
ATOM     24  C   UNL     1      49.015   4.587  18.042  0.00  0.00    +0.000 A 
ATOM     25  N   UNL     1      48.567   3.517  18.747  0.00  0.00    +0.000 NA
ATOM     26  C   UNL     1      47.615   2.857  18.169  0.00  0.00    +0.000 A 
ATOM     27  N   UNL     1      47.067   3.181  16.956  0.00  0.00    +0.000 N 
ATOM     28  C   UNL     1      47.468   4.274  16.221  0.00  0.00    +0.000 A 
ATOM     29  O   UNL     1      46.924   4.557  15.156  0.00  0.00    +0.000 OA
ATOM     30  C   UNL     1      48.544   5.035  16.818  0.00  0.00    +0.000 A 
ATOM     31  H   UNL     1      46.314   2.631  16.564  0.00  0.00    +0.000 HD
ENDBRANCH  18  21
ENDBRANCH   1  17
TORSDOF 6
ENDMDL
MODEL 2
REMARK VINA RESULT:    -7.419      1.908      2.272
REMARK INTER + INTRA:         -11.067
REMARK INTER:                 -10.152
REMARK INTRA:                  -0.915
REMARK UNBOUND:                -1.045
REMARK  Name = 
REMARK  7 active torsions:
REMARK  status: ('A' for Active; 'I' for Inactive)
REMARK    1  A    between atoms: C_1  and  O_2
REMARK    2  A    between atoms: O_2  and  C_3
REMARK    3  A    between atoms: C_8  and  C_9
REMARK    4  A    between atoms: C_9  and  C_10
REMARK    5  A    between atoms: C_13  and  C_14
REMARK    6  A    between atoms: C_14  and  N_15
REMARK    7  A    between atoms: C_16  and  C_18
REMARK                            x       y       z     vdW  Elec       q    Type
REMARK                         _______ _______ _______ _____ _____    ______ ____
ROOT
ATOM      1  C   UNL     1      48.060   8.189  14.083  0.00  0.00    +0.000 C 
ENDROOT
BRANCH   1   5
ATOM      2  C   UNL     1      45.165   6.327  11.473  0.00  0.00    +0.000 A 
ATOM      3  C   UNL     1      46.319   5.635  11.860  0.00  0.00    +0.000 A 
ATOM      4  C   UNL     1      47.290   6.253  12.652  0.00  0.00    +0.000 A 
ATOM      5  C   UNL     1      47.120   7.575  13.081  0.00  0.00    +0.000 A 
ATOM      6  C   UNL     1      46.024   8.303  12.600  0.00  0.00    +0.000 A 
ATOM      7  C   UNL     1      45.051   7.683  11.809  0.00  0.00    +0.000 A 
BRANCH   2   8
ATOM      8  C   UNL     1      44.051   5.602  10.754  0.00  0.00    +0.000 C 
BRANCH   8  14
ATOM      9  C   UNL     1      44.107   3.112  10.124  0.00  0.00    +0.000 A 
ATOM     10  C   UNL     1      44.649   2.077   9.348  0.00  0.00    +0.000 A 
ATOM     11  C   UNL     1      45.562   2.351   8.329  0.00  0.00    +0.000 A 
ATOM     12  C   UNL     1      45.920   3.664   8.054  0.00  0.00    +0.000 A 
ATOM     13  C   UNL     1      45.392   4.702   8.822  0.00  0.00    +0.000 A 
ATOM     14  C   UNL     1      44.504   4.443   9.882  0.00  0.00    +0.000 A 
BRANCH   9  16
ATOM     15  C   UNL     1      43.684   2.808  12.447  0.00  0.00    +0.000 C 
ATOM     16  O   UNL     1      43.182   2.915  11.118  0.00  0.00    +0.000 OA
ENDBRANCH   9  16
ENDBRANCH   8  14
ENDBRANCH   2   8
ENDBRANCH   1   5
BRANCH   1  17
ATOM     17  N   UNL     1      47.968   7.570  15.377  0.00  0.00    +0.000 N 
ATOM     18  C   UNL     1      49.009   6.822  15.871  0.00  0.00    +0.000 C 
ATOM     19  O   UNL     1      50.065   6.687  15.260  0.00  0.00    +0.000 OA
ATOM     20  H   UNL     1      47.040   7.462  15.772  0.00  0.00    +0.000 HD
BRANCH  18  21
ATOM     21  C   UNL     1      48.816   6.237  17.202  0.00  0.00    +0.000 A 
ATOM     22  C   UNL     1      49.097   4.894  17.412  0.00  0.00    +0.000 A 
ATOM     23  S   UNL     1      48.872   4.394  19.027  0.00  0.00    +0.000 S 
ATOM     24  C   UNL     1      48.336   5.942  19.488  0.00  0.00    +0.000 A 
ATOM     25  N   UNL     1      47.948   6.194  20.764  0.00  0.00    +0.000 NA
ATOM     26  C   UNL     1      47.533   7.404  20.967  0.00  0.00    +0.000 A 
ATOM     27  N   UNL     1      47.483   8.382  20.010  0.00  0.00    +0.000 N 
ATOM     28  C   UNL     1      47.894   8.181  18.712  0.00  0.00    +0.000 A 
ATOM     29  O   UNL     1      47.874   9.094  17.889  0.00  0.00    +0.000 OA
ATOM     30  C   UNL     1      48.352   6.837  18.430  0.00  0.00    +0.000 A 
ATOM     31  H   UNL     1      47.160   9.313  20.236  0.00  0.00    +0.000 HD
ENDBRANCH  18  21
ENDBRANCH   1  17
TORSDOF 6
ENDMDL
MODEL 3
REMARK VINA RESULT:    -7.329      1.810      2.207
REMARK INTER + INTRA:         -10.945
REMARK INTER:                  -9.766
REMARK INTRA:                  -1.178
REMARK UNBOUND:                -1.045
REMARK  Name = 
REMARK  7 active torsions:
REMARK  status: ('A' for Active; 'I' for Inactive)
REMARK    1  A    between atoms: C_1  and  O_2
REMARK    2  A    between atoms: O_2  and  C_3
REMARK    3  A    between atoms: C_8  and  C_9
REMARK    4  A    between atoms: C_9  and  C_10
REMARK    5  A    between atoms: C_13  and  C_14
REMARK    6  A    between atoms: C_14  and  N_15
REMARK    7  A    between atoms: C_16  and  C_18
REMARK                            x       y       z     vdW  Elec       q    Type
REMARK                         _______ _______ _______ _____ _____    ______ ____
ROOT
ATOM      1  C   UNL     1      48.709   6.722  14.205  0.00  0.00    +0.000 C 
ENDROOT
BRANCH   1   5
ATOM      2  C   UNL     1      45.356   5.920  11.602  0.00  0.00    +0.000 A 
ATOM      3  C   UNL     1      46.183   7.027  11.372  0.00  0.00    +0.000 A 
ATOM      4  C   UNL     1      47.230   7.328  12.246  0.00  0.00    +0.000 A 
ATOM      5  C   UNL     1      47.477   6.521  13.363  0.00  0.00    +0.000 A 
ATOM      6  C   UNL     1      46.582   5.484  13.656  0.00  0.00    +0.000 A 
ATOM      7  C   UNL     1      45.535   5.182  12.780  0.00  0.00    +0.000 A 
BRANCH   2   8
ATOM      8  C   UNL     1      44.331   5.513  10.569  0.00  0.00    +0.000 C 
BRANCH   8  14
ATOM      9  C   UNL     1      44.227   3.032   9.909  0.00  0.00    +0.000 A 
ATOM     10  C   UNL     1      44.723   1.967   9.144  0.00  0.00    +0.000 A 
ATOM     11  C   UNL     1      45.699   2.181   8.169  0.00  0.00    +0.000 A 
ATOM     12  C   UNL     1      46.166   3.466   7.927  0.00  0.00    +0.000 A 
ATOM     13  C   UNL     1      45.685   4.534   8.685  0.00  0.00    +0.000 A 
ATOM     14  C   UNL     1      44.734   4.332   9.702  0.00  0.00    +0.000 A 
BRANCH   9  16
ATOM     15  C   UNL     1      43.637   2.326  12.104  0.00  0.00    +0.000 C 
ATOM     16  O   UNL     1      43.246   2.896  10.859  0.00  0.00    +0.000 OA
ENDBRANCH   9  16
ENDBRANCH   8  14
ENDBRANCH   2   8
ENDBRANCH   1   5
BRANCH   1  17
ATOM     17  N   UNL     1      48.431   6.652  15.614  0.00  0.00    +0.000 N 
ATOM     18  C   UNL     1      48.963   7.577  16.478  0.00  0.00    +0.000 C 
ATOM     19  O   UNL     1      49.651   8.516  16.089  0.00  0.00    +0.000 OA
ATOM     20  H   UNL     1      48.087   5.768  15.973  0.00  0.00    +0.000 HD
BRANCH  18  21
ATOM     21  C   UNL     1      48.615   7.419  17.894  0.00  0.00    +0.000 A 
ATOM     22  C   UNL     1      48.073   8.490  18.594  0.00  0.00    +0.000 A 
ATOM     23  S   UNL     1      47.676   8.117  20.210  0.00  0.00    +0.000 S 
ATOM     24  C   UNL     1      48.266   6.529  20.046  0.00  0.00    +0.000 A 
ATOM     25  N   UNL     1      48.249   5.667  21.094  0.00  0.00    +0.000 NA
ATOM     26  C   UNL     1      48.758   4.504  20.838  0.00  0.00    +0.000 A 
ATOM     27  N   UNL     1      49.271   4.128  19.625  0.00  0.00    +0.000 N 
ATOM     28  C   UNL     1      49.282   4.958  18.527  0.00  0.00    +0.000 A 
ATOM     29  O   UNL     1      49.714   4.572  17.443  0.00  0.00    +0.000 OA
ATOM     30  C   UNL     1      48.738   6.277  18.767  0.00  0.00    +0.000 A 
ATOM     31  H   UNL     1      49.644   3.198  19.486  0.00  0.00    +0.000 HD
ENDBRANCH  18  21
ENDBRANCH   1  17
TORSDOF 6
ENDMDL
MODEL 4
REMARK VINA RESULT:    -7.143      0.984      1.979
REMARK INTER + INTRA:         -10.694
REMARK INTER:                  -9.118
REMARK INTRA:                  -1.576
REMARK UNBOUND:                -1.045
REMARK  Name = 
REMARK  7 active torsions:
REMARK  status: ('A' for Active; 'I' for Inactive)
REMARK    1  A    between atoms: C_1  and  O_2
REMARK    2  A    between atoms: O_2  and  C_3
REMARK    3  A    between atoms: C_8  and  C_9
REMARK    4  A    between atoms: C_9  and  C_10
REMARK    5  A    between atoms: C_13  and  C_14
REMARK    6  A    between atoms: C_14  and  N_15
REMARK    7  A    between atoms: C_16  and  C_18
REMARK                            x       y       z     vdW  Elec       q    Type
REMARK                         _______ _______ _______ _____ _____    ______ ____
ROOT
ATOM      1  C   UNL     1      48.287   8.761  14.598  0.00  0.00    +0.000 C 
ENDROOT
BRANCH   1   5
ATOM      2  C   UNL     1      45.579   7.291  11.571  0.00  0.00    +0.000 A 
ATOM      3  C   UNL     1      46.866   6.751  11.694  0.00  0.00    +0.000 A 
ATOM      4  C   UNL     1      47.768   7.265  12.628  0.00  0.00    +0.000 A 
ATOM      5  C   UNL     1      47.397   8.323  13.466  0.00  0.00    +0.000 A 
ATOM      6  C   UNL     1      46.154   8.937  13.265  0.00  0.00    +0.000 A 
ATOM      7  C   UNL     1      45.250   8.422  12.331  0.00  0.00    +0.000 A 
BRANCH   2   8
ATOM      8  C   UNL     1      44.562   6.627  10.673  0.00  0.00    +0.000 C 
BRANCH   8  14
ATOM      9  C   UNL     1      44.425   4.132  10.074  0.00  0.00    +0.000 A 
ATOM     10  C   UNL     1      44.028   2.831  10.416  0.00  0.00    +0.000 A 
ATOM     11  C   UNL     1      43.493   2.554  11.675  0.00  0.00    +0.000 A 
ATOM     12  C   UNL     1      43.377   3.569  12.617  0.00  0.00    +0.000 A 
ATOM     13  C   UNL     1      43.763   4.868  12.288  0.00  0.00    +0.000 A 
ATOM     14  C   UNL     1      44.264   5.175  11.010  0.00  0.00    +0.000 A 
BRANCH   9  16
ATOM     15  C   UNL     1      45.503   3.393   8.086  0.00  0.00    +0.000 C 
ATOM     16  O   UNL     1      44.988   4.465   8.868  0.00  0.00    +0.000 OA
ENDBRANCH   9  16
ENDBRANCH   8  14
ENDBRANCH   2   8
ENDBRANCH   1   5
BRANCH   1  17
ATOM     17  N   UNL     1      48.410   7.759  15.623  0.00  0.00    +0.000 N 
ATOM     18  C   UNL     1      49.573   7.044  15.767  0.00  0.00    +0.000 C 
ATOM     19  O   UNL     1      50.561   7.255  15.070  0.00  0.00    +0.000 OA
ATOM     20  H   UNL     1      47.548   7.406  16.027  0.00  0.00    +0.000 HD
BRANCH  18  21
ATOM     21  C   UNL     1      49.596   6.050  16.844  0.00  0.00    +0.000 A 
ATOM     22  C   UNL     1      50.547   6.146  17.851  0.00  0.00    +0.000 A 
ATOM     23  S   UNL     1      50.396   4.944  19.051  0.00  0.00    +0.000 S 
ATOM     24  C   UNL     1      49.088   4.220  18.237  0.00  0.00    +0.000 A 
ATOM     25  N   UNL     1      48.494   3.102  18.726  0.00  0.00    +0.000 NA
ATOM     26  C   UNL     1      47.535   2.639  17.989  0.00  0.00    +0.000 A 
ATOM     27  N   UNL     1      47.113   3.205  16.815  0.00  0.00    +0.000 N 
ATOM     28  C   UNL     1      47.665   4.354  16.296  0.00  0.00    +0.000 A 
ATOM     29  O   UNL     1      47.233   4.855  15.260  0.00  0.00    +0.000 OA
ATOM     30  C   UNL     1      48.755   4.900  17.076  0.00  0.00    +0.000 A 
ATOM     31  H   UNL     1      46.348   2.801  16.291  0.00  0.00    +0.000 HD
ENDBRANCH  18  21
ENDBRANCH   1  17
TORSDOF 6
ENDMDL
MODEL 5
REMARK VINA RESULT:    -7.028      4.238      9.417
REMARK INTER + INTRA:         -10.538
REMARK INTER:                  -9.357
REMARK INTRA:                  -1.181
REMARK UNBOUND:                -1.045
REMARK  Name = 
REMARK  7 active torsions:
REMARK  status: ('A' for Active; 'I' for Inactive)
REMARK    1  A    between atoms: C_1  and  O_2
REMARK    2  A    between atoms: O_2  and  C_3
REMARK    3  A    between atoms: C_8  and  C_9
REMARK    4  A    between atoms: C_9  and  C_10
REMARK    5  A    between atoms: C_13  and  C_14
REMARK    6  A    between atoms: C_14  and  N_15
REMARK    7  A    between atoms: C_16  and  C_18
REMARK                            x       y       z     vdW  Elec       q    Type
REMARK                         _______ _______ _______ _____ _____    ______ ____
ROOT
ATOM      1  C   UNL     1      47.377   3.351  16.771  0.00  0.00    +0.000 C 
ENDROOT
BRANCH   1   5
ATOM      2  C   UNL     1      51.586   3.902  17.570  0.00  0.00    +0.000 A 
ATOM      3  C   UNL     1      51.070   2.620  17.344  0.00  0.00    +0.000 A 
ATOM      4  C   UNL     1      49.700   2.428  17.148  0.00  0.00    +0.000 A 
ATOM      5  C   UNL     1      48.821   3.518  17.164  0.00  0.00    +0.000 A 
ATOM      6  C   UNL     1      49.321   4.781  17.505  0.00  0.00    +0.000 A 
ATOM      7  C   UNL     1      50.692   4.974  17.699  0.00  0.00    +0.000 A 
BRANCH   2   8
ATOM      8  C   UNL     1      53.081   4.118  17.622  0.00  0.00    +0.000 C 
BRANCH   8  14
ATOM      9  C   UNL     1      54.516   2.191  18.532  0.00  0.00    +0.000 A 
ATOM     10  C   UNL     1      55.057   1.506  19.629  0.00  0.00    +0.000 A 
ATOM     11  C   UNL     1      54.903   1.998  20.926  0.00  0.00    +0.000 A 
ATOM     12  C   UNL     1      54.235   3.197  21.137  0.00  0.00    +0.000 A 
ATOM     13  C   UNL     1      53.687   3.886  20.055  0.00  0.00    +0.000 A 
ATOM     14  C   UNL     1      53.793   3.383  18.745  0.00  0.00    +0.000 A 
BRANCH   9  16
ATOM     15  C   UNL     1      54.195   0.469  16.921  0.00  0.00    +0.000 C 
ATOM     16  O   UNL     1      54.658   1.779  17.231  0.00  0.00    +0.000 OA
ENDBRANCH   9  16
ENDBRANCH   8  14
ENDBRANCH   2   8
ENDBRANCH   1   5
BRANCH   1  17
ATOM     17  N   UNL     1      46.933   4.371  15.860  0.00  0.00    +0.000 N 
ATOM     18  C   UNL     1      46.942   4.150  14.505  0.00  0.00    +0.000 C 
ATOM     19  O   UNL     1      47.280   3.075  14.019  0.00  0.00    +0.000 OA
ATOM     20  H   UNL     1      46.893   5.321  16.215  0.00  0.00    +0.000 HD
BRANCH  18  21
ATOM     21  C   UNL     1      46.465   5.252  13.663  0.00  0.00    +0.000 A 
ATOM     22  C   UNL     1      47.253   6.384  13.498  0.00  0.00    +0.000 A 
ATOM     23  S   UNL     1      46.573   7.541  12.446  0.00  0.00    +0.000 S 
ATOM     24  C   UNL     1      45.178   6.594  12.218  0.00  0.00    +0.000 A 
ATOM     25  N   UNL     1      44.160   7.029  11.432  0.00  0.00    +0.000 NA
ATOM     26  C   UNL     1      43.147   6.224  11.375  0.00  0.00    +0.000 A 
ATOM     27  N   UNL     1      43.071   5.020  12.025  0.00  0.00    +0.000 N 
ATOM     28  C   UNL     1      44.089   4.526  12.807  0.00  0.00    +0.000 A 
ATOM     29  O   UNL     1      44.002   3.423  13.342  0.00  0.00    +0.000 OA
ATOM     30  C   UNL     1      45.239   5.399  12.917  0.00  0.00    +0.000 A 
ATOM     31  H   UNL     1      42.255   4.431  11.929  0.00  0.00    +0.000 HD
ENDBRANCH  18  21
ENDBRANCH   1  17
TORSDOF 6
ENDMDL
MODEL 6
REMARK VINA RESULT:    -6.976      4.272      9.068
REMARK INTER + INTRA:         -10.468
REMARK INTER:                  -9.799
REMARK INTRA:                  -0.669
REMARK UNBOUND:                -1.045
REMARK  Name = 
REMARK  7 active torsions:
REMARK  status: ('A' for Active; 'I' for Inactive)
REMARK    1  A    between atoms: C_1  and  O_2
REMARK    2  A    between atoms: O_2  and  C_3
REMARK    3  A    between atoms: C_8  and  C_9
REMARK    4  A    between atoms: C_9  and  C_10
REMARK    5  A    between atoms: C_13  and  C_14
REMARK    6  A    between atoms: C_14  and  N_15
REMARK    7  A    between atoms: C_16  and  C_18
REMARK                            x       y       z     vdW  Elec       q    Type
REMARK                         _______ _______ _______ _____ _____    ______ ____
ROOT
ATOM      1  C   UNL     1      47.221   3.380  16.746  0.00  0.00    +0.000 C 
ENDROOT
BRANCH   1   5
ATOM      2  C   UNL     1      51.384   3.312  17.895  0.00  0.00    +0.000 A 
ATOM      3  C   UNL     1      50.682   4.523  17.846  0.00  0.00    +0.000 A 
ATOM      4  C   UNL     1      49.354   4.560  17.414  0.00  0.00    +0.000 A 
ATOM      5  C   UNL     1      48.698   3.383  17.032  0.00  0.00    +0.000 A 
ATOM      6  C   UNL     1      49.434   2.192  16.972  0.00  0.00    +0.000 A 
ATOM      7  C   UNL     1      50.762   2.155  17.405  0.00  0.00    +0.000 A 
BRANCH   2   8
ATOM      8  C   UNL     1      52.763   3.260  18.512  0.00  0.00    +0.000 C 
BRANCH   8  14
ATOM      9  C   UNL     1      54.817   2.909  17.010  0.00  0.00    +0.000 A 
ATOM     10  C   UNL     1      55.633   2.042  16.267  0.00  0.00    +0.000 A 
ATOM     11  C   UNL     1      55.420   0.663  16.292  0.00  0.00    +0.000 A 
ATOM     12  C   UNL     1      54.409   0.132  17.083  0.00  0.00    +0.000 A 
ATOM     13  C   UNL     1      53.587   0.983  17.821  0.00  0.00    +0.000 A 
ATOM     14  C   UNL     1      53.758   2.379  17.775  0.00  0.00    +0.000 A 
BRANCH   9  16
ATOM     15  C   UNL     1      55.774   4.847  16.014  0.00  0.00    +0.000 C 
ATOM     16  O   UNL     1      54.993   4.268  17.055  0.00  0.00    +0.000 OA
ENDBRANCH   9  16
ENDBRANCH   8  14
ENDBRANCH   2   8
ENDBRANCH   1   5
BRANCH   1  17
ATOM     17  N   UNL     1      46.842   4.384  15.789  0.00  0.00    +0.000 N 
ATOM     18  C   UNL     1      46.866   4.113  14.443  0.00  0.00    +0.000 C 
ATOM     19  O   UNL     1      47.163   3.006  14.004  0.00  0.00    +0.000 OA
ATOM     20  H   UNL     1      46.840   5.347  16.108  0.00  0.00    +0.000 HD
BRANCH  18  21
ATOM     21  C   UNL     1      46.458   5.204  13.553  0.00  0.00    +0.000 A 
ATOM     22  C   UNL     1      47.348   6.231  13.267  0.00  0.00    +0.000 A 
ATOM     23  S   UNL     1      46.732   7.384  12.173  0.00  0.00    +0.000 S 
ATOM     24  C   UNL     1      45.233   6.582  12.087  0.00  0.00    +0.000 A 
ATOM     25  N   UNL     1      44.221   7.073  11.327  0.00  0.00    +0.000 NA
ATOM     26  C   UNL     1      43.128   6.380  11.380  0.00  0.00    +0.000 A 
ATOM     27  N   UNL     1      42.965   5.236  12.117  0.00  0.00    +0.000 N 
ATOM     28  C   UNL     1      43.972   4.686  12.877  0.00  0.00    +0.000 A 
ATOM     29  O   UNL     1      43.802   3.636  13.492  0.00  0.00    +0.000 OA
ATOM     30  C   UNL     1      45.211   5.434  12.864  0.00  0.00    +0.000 A 
ATOM     31  H   UNL     1      42.088   4.734  12.105  0.00  0.00    +0.000 HD
ENDBRANCH  18  21
ENDBRANCH   1  17
TORSDOF 6
ENDMDL
MODEL 7
REMARK VINA RESULT:    -6.840      3.700      8.855
REMARK INTER + INTRA:         -10.284
REMARK INTER:                  -9.059
REMARK INTRA:                  -1.225
REMARK UNBOUND:                -1.045
REMARK  Name = 
REMARK  7 active torsions:
REMARK  status: ('A' for Active; 'I' for Inactive)
REMARK    1  A    between atoms: C_1  and  O_2
REMARK    2  A    between atoms: O_2  and  C_3
REMARK    3  A    between atoms: C_8  and  C_9
REMARK    4  A    between atoms: C_9  and  C_10
REMARK    5  A    between atoms: C_13  and  C_14
REMARK    6  A    between atoms: C_14  and  N_15
REMARK    7  A    between atoms: C_16  and  C_18
REMARK                            x       y       z     vdW  Elec       q    Type
REMARK                         _______ _______ _______ _____ _____    ______ ____
ROOT
ATOM      1  C   UNL     1      47.296   3.404  16.745  0.00  0.00    +0.000 C 
ENDROOT
BRANCH   1   5
ATOM      2  C   UNL     1      51.058   4.743  18.390  0.00  0.00    +0.000 A 
ATOM      3  C   UNL     1      50.956   3.482  17.788  0.00  0.00    +0.000 A 
ATOM      4  C   UNL     1      49.728   3.017  17.312  0.00  0.00    +0.000 A 
ATOM      5  C   UNL     1      48.579   3.810  17.418  0.00  0.00    +0.000 A 
ATOM      6  C   UNL     1      48.658   5.019  18.121  0.00  0.00    +0.000 A 
ATOM      7  C   UNL     1      49.887   5.485  18.597  0.00  0.00    +0.000 A 
BRANCH   2   8
ATOM      8  C   UNL     1      52.415   5.299  18.756  0.00  0.00    +0.000 C 
BRANCH   8  14
ATOM      9  C   UNL     1      54.538   4.395  17.627  0.00  0.00    +0.000 A 
ATOM     10  C   UNL     1      55.504   4.502  16.616  0.00  0.00    +0.000 A 
ATOM     11  C   UNL     1      55.380   5.459  15.608  0.00  0.00    +0.000 A 
ATOM     12  C   UNL     1      54.274   6.298  15.581  0.00  0.00    +0.000 A 
ATOM     13  C   UNL     1      53.309   6.206  16.584  0.00  0.00    +0.000 A 
ATOM     14  C   UNL     1      53.438   5.277  17.633  0.00  0.00    +0.000 A 
BRANCH   9  16
ATOM     15  C   UNL     1      54.379   2.101  18.242  0.00  0.00    +0.000 C 
ATOM     16  O   UNL     1      54.582   3.457  18.627  0.00  0.00    +0.000 OA
ENDBRANCH   9  16
ENDBRANCH   8  14
ENDBRANCH   2   8
ENDBRANCH   1   5
BRANCH   1  17
ATOM     17  N   UNL     1      46.817   4.399  15.824  0.00  0.00    +0.000 N 
ATOM     18  C   UNL     1      46.863   4.180  14.470  0.00  0.00    +0.000 C 
ATOM     19  O   UNL     1      47.267   3.124  13.991  0.00  0.00    +0.000 OA
ATOM     20  H   UNL     1      46.720   5.346  16.178  0.00  0.00    +0.000 HD
BRANCH  18  21
ATOM     21  C   UNL     1      46.347   5.256  13.619  0.00  0.00    +0.000 A 
ATOM     22  C   UNL     1      47.094   6.413  13.439  0.00  0.00    +0.000 A 
ATOM     23  S   UNL     1      46.372   7.534  12.376  0.00  0.00    +0.000 S 
ATOM     24  C   UNL     1      45.009   6.538  12.164  0.00  0.00    +0.000 A 
ATOM     25  N   UNL     1      43.974   6.929  11.378  0.00  0.00    +0.000 NA
ATOM     26  C   UNL     1      42.989   6.089  11.333  0.00  0.00    +0.000 A 
ATOM     27  N   UNL     1      42.956   4.891  11.996  0.00  0.00    +0.000 N 
ATOM     28  C   UNL     1      43.994   4.440  12.779  0.00  0.00    +0.000 A 
ATOM     29  O   UNL     1      43.946   3.341  13.327  0.00  0.00    +0.000 OA
ATOM     30  C   UNL     1      45.113   5.353  12.876  0.00  0.00    +0.000 A 
ATOM     31  H   UNL     1      42.160   4.273  11.909  0.00  0.00    +0.000 HD
ENDBRANCH  18  21
ENDBRANCH   1  17
TORSDOF 6
ENDMDL
MODEL 8
REMARK VINA RESULT:    -6.797      3.460      7.917
REMARK INTER + INTRA:         -10.227
REMARK INTER:                  -8.975
REMARK INTRA:                  -1.251
REMARK UNBOUND:                -1.045
REMARK  Name = 
REMARK  7 active torsions:
REMARK  status: ('A' for Active; 'I' for Inactive)
REMARK    1  A    between atoms: C_1  and  O_2
REMARK    2  A    between atoms: O_2  and  C_3
REMARK    3  A    between atoms: C_8  and  C_9
REMARK    4  A    between atoms: C_9  and  C_10
REMARK    5  A    between atoms: C_13  and  C_14
REMARK    6  A    between atoms: C_14  and  N_15
REMARK    7  A    between atoms: C_16  and  C_18
REMARK                            x       y       z     vdW  Elec       q    Type
REMARK                         _______ _______ _______ _____ _____    ______ ____
ROOT
ATOM      1  C   UNL     1      47.307   8.018  11.815  0.00  0.00    +0.000 C 
ENDROOT
BRANCH   1   5
ATOM      2  C   UNL     1      49.502   7.904  15.533  0.00  0.00    +0.000 A 
ATOM      3  C   UNL     1      48.322   8.651  15.429  0.00  0.00    +0.000 A 
ATOM      4  C   UNL     1      47.642   8.744  14.213  0.00  0.00    +0.000 A 
ATOM      5  C   UNL     1      48.124   8.081  13.077  0.00  0.00    +0.000 A 
ATOM      6  C   UNL     1      49.362   7.431  13.152  0.00  0.00    +0.000 A 
ATOM      7  C   UNL     1      50.042   7.337  14.370  0.00  0.00    +0.000 A 
BRANCH   2   8
ATOM      8  C   UNL     1      50.141   7.680  16.884  0.00  0.00    +0.000 C 
BRANCH   8  14
ATOM      9  C   UNL     1      49.810   5.177  17.355  0.00  0.00    +0.000 A 
ATOM     10  C   UNL     1      50.362   3.927  17.671  0.00  0.00    +0.000 A 
ATOM     11  C   UNL     1      51.745   3.751  17.735  0.00  0.00    +0.000 A 
ATOM     12  C   UNL     1      52.592   4.816  17.453  0.00  0.00    +0.000 A 
ATOM     13  C   UNL     1      52.056   6.066  17.143  0.00  0.00    +0.000 A 
ATOM     14  C   UNL     1      50.665   6.273  17.117  0.00  0.00    +0.000 A 
BRANCH   9  16
ATOM     15  C   UNL     1      47.764   4.657  16.257  0.00  0.00    +0.000 C 
ATOM     16  O   UNL     1      48.462   5.408  17.244  0.00  0.00    +0.000 OA
ENDBRANCH   9  16
ENDBRANCH   8  14
ENDBRANCH   2   8
ENDBRANCH   1   5
BRANCH   1  17
ATOM     17  N   UNL     1      46.674   6.740  11.630  0.00  0.00    +0.000 N 
ATOM     18  C   UNL     1      45.308   6.642  11.542  0.00  0.00    +0.000 C 
ATOM     19  O   UNL     1      44.577   7.629  11.570  0.00  0.00    +0.000 OA
ATOM     20  H   UNL     1      47.224   5.917  11.853  0.00  0.00    +0.000 HD
BRANCH  18  21
ATOM     21  C   UNL     1      44.763   5.294  11.351  0.00  0.00    +0.000 A 
ATOM     22  C   UNL     1      44.005   4.708  12.355  0.00  0.00    +0.000 A 
ATOM     23  S   UNL     1      43.405   3.166  11.945  0.00  0.00    +0.000 S 
ATOM     24  C   UNL     1      44.184   3.204  10.433  0.00  0.00    +0.000 A 
ATOM     25  N   UNL     1      44.099   2.154   9.577  0.00  0.00    +0.000 NA
ATOM     26  C   UNL     1      44.767   2.305   8.478  0.00  0.00    +0.000 A 
ATOM     27  N   UNL     1      45.501   3.417   8.158  0.00  0.00    +0.000 N 
ATOM     28  C   UNL     1      45.591   4.516   8.981  0.00  0.00    +0.000 A 
ATOM     29  O   UNL     1      46.226   5.513   8.643  0.00  0.00    +0.000 OA
ATOM     30  C   UNL     1      44.874   4.389  10.232  0.00  0.00    +0.000 A 
ATOM     31  H   UNL     1      45.991   3.478   7.276  0.00  0.00    +0.000 HD
ENDBRANCH  18  21
ENDBRANCH   1  17
TORSDOF 6
ENDMDL
MODEL 9
REMARK VINA RESULT:    -6.776      3.145      7.474
REMARK INTER + INTRA:         -10.198
REMARK INTER:                  -9.420
REMARK INTRA:                  -0.777
REMARK UNBOUND:                -1.045
REMARK  Name = 
REMARK  7 active torsions:
REMARK  status: ('A' for Active; 'I' for Inactive)
REMARK    1  A    between atoms: C_1  and  O_2
REMARK    2  A    between atoms: O_2  and  C_3
REMARK    3  A    between atoms: C_8  and  C_9
REMARK    4  A    between atoms: C_9  and  C_10
REMARK    5  A    between atoms: C_13  and  C_14
REMARK    6  A    between atoms: C_14  and  N_15
REMARK    7  A    between atoms: C_16  and  C_18
REMARK                            x       y       z     vdW  Elec       q    Type
REMARK                         _______ _______ _______ _____ _____    ______ ____
ROOT
ATOM      1  C   UNL     1      49.201   8.588  14.176  0.00  0.00    +0.000 C 
ENDROOT
BRANCH   1   5
ATOM      2  C   UNL     1      50.367   6.191  17.575  0.00  0.00    +0.000 A 
ATOM      3  C   UNL     1      49.122   6.831  17.554  0.00  0.00    +0.000 A 
ATOM      4  C   UNL     1      48.764   7.659  16.487  0.00  0.00    +0.000 A 
ATOM      5  C   UNL     1      49.643   7.854  15.414  0.00  0.00    +0.000 A 
ATOM      6  C   UNL     1      50.930   7.307  15.491  0.00  0.00    +0.000 A 
ATOM      7  C   UNL     1      51.287   6.477  16.558  0.00  0.00    +0.000 A 
BRANCH   2   8
ATOM      8  C   UNL     1      50.678   5.176  18.651  0.00  0.00    +0.000 C 
BRANCH   8  14
ATOM      9  C   UNL     1      50.273   2.987  17.369  0.00  0.00    +0.000 A 
ATOM     10  C   UNL     1      50.702   1.698  17.020  0.00  0.00    +0.000 A 
ATOM     11  C   UNL     1      51.959   1.234  17.408  0.00  0.00    +0.000 A 
ATOM     12  C   UNL     1      52.814   2.063  18.123  0.00  0.00    +0.000 A 
ATOM     13  C   UNL     1      52.398   3.345  18.481  0.00  0.00    +0.000 A 
ATOM     14  C   UNL     1      51.118   3.815  18.137  0.00  0.00    +0.000 A 
BRANCH   9  16
ATOM     15  C   UNL     1      47.900   2.869  17.492  0.00  0.00    +0.000 C 
ATOM     16  O   UNL     1      49.065   3.517  16.992  0.00  0.00    +0.000 OA
ENDBRANCH   9  16
ENDBRANCH   8  14
ENDBRANCH   2   8
ENDBRANCH   1   5
BRANCH   1  17
ATOM     17  N   UNL     1      47.948   8.103  13.666  0.00  0.00    +0.000 N 
ATOM     18  C   UNL     1      47.882   6.910  12.990  0.00  0.00    +0.000 C 
ATOM     19  O   UNL     1      48.866   6.192  12.833  0.00  0.00    +0.000 OA
ATOM     20  H   UNL     1      47.197   8.779  13.566  0.00  0.00    +0.000 HD
BRANCH  18  21
ATOM     21  C   UNL     1      46.556   6.503  12.514  0.00  0.00    +0.000 A 
ATOM     22  C   UNL     1      45.710   7.445  11.944  0.00  0.00    +0.000 A 
ATOM     23  S   UNL     1      44.233   6.793  11.395  0.00  0.00    +0.000 S 
ATOM     24  C   UNL     1      44.650   5.240  11.951  0.00  0.00    +0.000 A 
ATOM     25  N   UNL     1      43.792   4.196  11.817  0.00  0.00    +0.000 NA
ATOM     26  C   UNL     1      44.224   3.081  12.314  0.00  0.00    +0.000 A 
ATOM     27  N   UNL     1      45.441   2.918  12.921  0.00  0.00    +0.000 N 
ATOM     28  C   UNL     1      46.355   3.939  13.052  0.00  0.00    +0.000 A 
ATOM     29  O   UNL     1      47.454   3.746  13.566  0.00  0.00    +0.000 OA
ATOM     30  C   UNL     1      45.911   5.213  12.527  0.00  0.00    +0.000 A 
ATOM     31  H   UNL     1      45.725   2.016  13.278  0.00  0.00    +0.000 HD
ENDBRANCH  18  21
ENDBRANCH   1  17
TORSDOF 6
ENDMDL
