MODEL 1
REMARK VINA RESULT:    -8.137      0.000      0.000
REMARK INTER + INTRA:         -12.483
REMARK INTER:                 -11.705
REMARK INTRA:                  -0.778
REMARK UNBOUND:                -0.778
REMARK  Name = 
REMARK  8 active torsions:
REMARK  status: ('A' for Active; 'I' for Inactive)
REMARK    1  A    between atoms: N_1  and  C_2
REMARK    2  A    between atoms: C_2  and  C_3
REMARK    3  A    between atoms: C_2  and  C_18
REMARK    4  A    between atoms: C_3  and  C_4
REMARK    5  A    between atoms: C_7  and  C_8
REMARK    6  A    between atoms: C_8  and  N_9
REMARK    7  A    between atoms: N_9  and  C_10
REMARK    8  A    between atoms: C_10  and  C_11
REMARK                            x       y       z     vdW  Elec       q    Type
REMARK                         _______ _______ _______ _____ _____    ______ ____
ROOT
ATOM      1  C   UNL     1      47.898   5.504  15.345  0.00  0.00    +0.000 C 
ENDROOT
BRANCH   1   2
ATOM      2  C   UNL     1      47.082   5.077  14.151  0.00  0.00    +0.000 A 
ATOM      3  C   UNL     1      46.832   3.720  13.914  0.00  0.00    +0.000 A 
ATOM      4  C   UNL     1      46.071   3.322  12.816  0.00  0.00    +0.000 A 
ATOM      5  C   UNL     1      45.531   4.277  11.942  0.00  0.00    +0.000 A 
ATOM      6  C   UNL     1      45.788   5.634  12.179  0.00  0.00    +0.000 A 
ATOM      7  C   UNL     1      46.562   6.030  13.270  0.00  0.00    +0.000 A 
BRANCH   5   8
ATOM      8  C   UNL     1      44.703   3.848  10.756  0.00  0.00    +0.000 C 
BRANCH   8   9
ATOM      9  N   UNL     1      45.054   2.493  10.324  0.00  0.00    +0.000 NA
ATOM     10  H   UNL     1      44.515   1.836  10.890  0.00  0.00    +0.000 HD
BRANCH   9  11
ATOM     11  C   UNL     1      44.701   2.307   8.921  0.00  0.00    +0.000 C 
BRANCH  11  12
ATOM     12  C   UNL     1      45.923   2.216   8.086  0.00  0.00    +0.000 A 
ATOM     13  C   UNL     1      46.627   3.165   7.378  0.00  0.00    +0.000 A 
ATOM     14  C   UNL     1      47.708   2.462   6.812  0.00  0.00    +0.000 A 
ATOM     15  N   UNL     1      47.700   1.170   7.139  0.00  0.00    +0.000 NA
ATOM     16  N   UNL     1      46.611   1.044   7.918  0.00  0.00    +0.000 N 
ATOM     17  H   UNL     1      46.368   0.134   8.293  0.00  0.00    +0.000 HD
ENDBRANCH  11  12
ENDBRANCH   9  11
ENDBRANCH   8   9
ENDBRANCH   5   8
ENDBRANCH   1   2
BRANCH   1  18
ATOM     18  C   UNL     1      47.878   4.504  16.527  0.00  0.00    +0.000 C 
BRANCH  18  19
ATOM     19  C   UNL     1      49.187   4.510  17.281  0.00  0.00    +0.000 A 
ATOM     20  C   UNL     1      49.636   5.590  18.027  0.00  0.00    +0.000 A 
ATOM     21  S   UNL     1      51.136   5.305  18.791  0.00  0.00    +0.000 S 
ATOM     22  C   UNL     1      51.239   3.733  18.140  0.00  0.00    +0.000 A 
ATOM     23  N   UNL     1      52.303   2.927  18.404  0.00  0.00    +0.000 NA
ATOM     24  C   UNL     1      52.238   1.765  17.845  0.00  0.00    +0.000 A 
ATOM     25  N   UNL     1      51.207   1.331  17.050  0.00  0.00    +0.000 N 
ATOM     26  C   UNL     1      50.126   2.118  16.731  0.00  0.00    +0.000 A 
ATOM     27  O   UNL     1      49.245   1.711  15.978  0.00  0.00    +0.000 OA
ATOM     28  C   UNL     1      50.145   3.430  17.354  0.00  0.00    +0.000 A 
ATOM     29  H   UNL     1      51.223   0.411  16.636  0.00  0.00    +0.000 HD
ENDBRANCH  18  19
BRANCH  18  30
ATOM     30  N   UNL     1      46.813   4.721  17.510  0.00  0.00    +0.000 NA
ATOM     31  H   UNL     1      47.073   5.515  18.096  0.00  0.00    +0.000 HD
ATOM     32  H   UNL     1      46.806   3.919  18.147  0.00  0.00    +0.000 HD
ENDBRANCH  18  30
ENDBRANCH   1  18
TORSDOF 8
ENDMDL
MODEL 2
REMARK VINA RESULT:    -7.332      1.852      2.400
REMARK INTER + INTRA:         -11.324
REMARK INTER:                 -10.362
REMARK INTRA:                  -0.962
REMARK UNBOUND:                -0.778
REMARK  Name = 
REMARK  8 active torsions:
REMARK  status: ('A' for Active; 'I' for Inactive)
REMARK    1  A    between atoms: N_1  and  C_2
REMARK    2  A    between atoms: C_2  and  C_3
REMARK    3  A    between atoms: C_2  and  C_18
REMARK    4  A    between atoms: C_3  and  C_4
REMARK    5  A    between atoms: C_7  and  C_8
REMARK    6  A    between atoms: C_8  and  N_9
REMARK    7  A    between atoms: N_9  and  C_10
REMARK    8  A    between atoms: C_10  and  C_11
REMARK                            x       y       z     vdW  Elec       q    Type
REMARK                         _______ _______ _______ _____ _____    ______ ____
ROOT
ATOM      1  C   UNL     1      48.188   6.823  13.130  0.00  0.00    +0.000 C 
ENDROOT
BRANCH   1   2
ATOM      2  C   UNL     1      47.055   6.115  12.429  0.00  0.00    +0.000 A 
ATOM      3  C   UNL     1      46.414   5.030  13.040  0.00  0.00    +0.000 A 
ATOM      4  C   UNL     1      45.361   4.380  12.399  0.00  0.00    +0.000 A 
ATOM      5  C   UNL     1      44.917   4.813  11.141  0.00  0.00    +0.000 A 
ATOM      6  C   UNL     1      45.565   5.895  10.531  0.00  0.00    +0.000 A 
ATOM      7  C   UNL     1      46.628   6.537  11.166  0.00  0.00    +0.000 A 
BRANCH   5   8
ATOM      8  C   UNL     1      43.775   4.112  10.449  0.00  0.00    +0.000 C 
BRANCH   8   9
ATOM      9  N   UNL     1      44.174   3.624   9.126  0.00  0.00    +0.000 NA
ATOM     10  H   UNL     1      44.827   4.301   8.728  0.00  0.00    +0.000 HD
BRANCH   9  11
ATOM     11  C   UNL     1      44.848   2.336   9.250  0.00  0.00    +0.000 C 
BRANCH  11  12
ATOM     12  C   UNL     1      45.925   2.215   8.238  0.00  0.00    +0.000 A 
ATOM     13  C   UNL     1      46.568   3.152   7.461  0.00  0.00    +0.000 A 
ATOM     14  C   UNL     1      47.511   2.418   6.717  0.00  0.00    +0.000 A 
ATOM     15  N   UNL     1      47.479   1.116   7.001  0.00  0.00    +0.000 NA
ATOM     16  N   UNL     1      46.513   1.017   7.932  0.00  0.00    +0.000 N 
ATOM     17  H   UNL     1      46.277   0.106   8.311  0.00  0.00    +0.000 HD
ENDBRANCH  11  12
ENDBRANCH   9  11
ENDBRANCH   8   9
ENDBRANCH   5   8
ENDBRANCH   1   2
BRANCH   1  18
ATOM     18  C   UNL     1      47.921   7.142  14.621  0.00  0.00    +0.000 C 
BRANCH  18  19
ATOM     19  C   UNL     1      49.128   6.841  15.478  0.00  0.00    +0.000 A 
ATOM     20  C   UNL     1      50.306   7.571  15.426  0.00  0.00    +0.000 A 
ATOM     21  S   UNL     1      51.491   7.019  16.524  0.00  0.00    +0.000 S 
ATOM     22  C   UNL     1      50.473   5.779  17.096  0.00  0.00    +0.000 A 
ATOM     23  N   UNL     1      50.885   4.917  18.065  0.00  0.00    +0.000 NA
ATOM     24  C   UNL     1      50.002   4.034  18.398  0.00  0.00    +0.000 A 
ATOM     25  N   UNL     1      48.745   3.935  17.856  0.00  0.00    +0.000 N 
ATOM     26  C   UNL     1      48.295   4.763  16.856  0.00  0.00    +0.000 A 
ATOM     27  O   UNL     1      47.179   4.614  16.363  0.00  0.00    +0.000 OA
ATOM     28  C   UNL     1      49.247   5.786  16.461  0.00  0.00    +0.000 A 
ATOM     29  H   UNL     1      48.106   3.215  18.157  0.00  0.00    +0.000 HD
ENDBRANCH  18  19
BRANCH  18  30
ATOM     30  N   UNL     1      47.527   8.526  14.903  0.00  0.00    +0.000 NA
ATOM     31  H   UNL     1      47.837   8.762  15.846  0.00  0.00    +0.000 HD
ATOM     32  H   UNL     1      46.504   8.557  14.950  0.00  0.00    +0.000 HD
ENDBRANCH  18  30
ENDBRANCH   1  18
TORSDOF 8
ENDMDL
MODEL 3
REMARK VINA RESULT:    -7.219      3.541      8.563
REMARK INTER + INTRA:         -11.161
REMARK INTER:                 -10.153
REMARK INTRA:                  -1.009
REMARK UNBOUND:                -0.778
REMARK  Name = 
REMARK  8 active torsions:
REMARK  status: ('A' for Active; 'I' for Inactive)
REMARK    1  A    between atoms: N_1  and  C_2
REMARK    2  A    between atoms: C_2  and  C_3
REMARK    3  A    between atoms: C_2  and  C_18
REMARK    4  A    between atoms: C_3  and  C_4
REMARK    5  A    between atoms: C_7  and  C_8
REMARK    6  A    between atoms: C_8  and  N_9
REMARK    7  A    between atoms: N_9  and  C_10
REMARK    8  A    between atoms: C_10  and  C_11
REMARK                            x       y       z     vdW  Elec       q    Type
REMARK                         _______ _______ _______ _____ _____    ______ ____
ROOT
ATOM      1  C   UNL     1      46.955   6.952  11.412  0.00  0.00    +0.000 C 
ENDROOT
BRANCH   1   2
ATOM      2  C   UNL     1      47.526   7.088  12.802  0.00  0.00    +0.000 A 
ATOM      3  C   UNL     1      47.666   5.962  13.623  0.00  0.00    +0.000 A 
ATOM      4  C   UNL     1      48.201   6.084  14.904  0.00  0.00    +0.000 A 
ATOM      5  C   UNL     1      48.622   7.332  15.384  0.00  0.00    +0.000 A 
ATOM      6  C   UNL     1      48.474   8.458  14.562  0.00  0.00    +0.000 A 
ATOM      7  C   UNL     1      47.926   8.338  13.285  0.00  0.00    +0.000 A 
BRANCH   5   8
ATOM      8  C   UNL     1      49.205   7.465  16.769  0.00  0.00    +0.000 C 
BRANCH   8   9
ATOM      9  N   UNL     1      48.170   7.326  17.797  0.00  0.00    +0.000 NA
ATOM     10  H   UNL     1      47.295   7.085  17.328  0.00  0.00    +0.000 HD
BRANCH   9  11
ATOM     11  C   UNL     1      48.522   6.253  18.720  0.00  0.00    +0.000 C 
BRANCH  11  12
ATOM     12  C   UNL     1      48.142   4.937  18.153  0.00  0.00    +0.000 A 
ATOM     13  C   UNL     1      48.884   3.818  17.844  0.00  0.00    +0.000 A 
ATOM     14  C   UNL     1      47.946   2.886  17.362  0.00  0.00    +0.000 A 
ATOM     15  N   UNL     1      46.703   3.366  17.369  0.00  0.00    +0.000 NA
ATOM     16  N   UNL     1      46.845   4.611  17.859  0.00  0.00    +0.000 N 
ATOM     17  H   UNL     1      46.029   5.206  17.954  0.00  0.00    +0.000 HD
ENDBRANCH  11  12
ENDBRANCH   9  11
ENDBRANCH   8   9
ENDBRANCH   5   8
ENDBRANCH   1   2
BRANCH   1  18
ATOM     18  C   UNL     1      45.410   7.004  11.345  0.00  0.00    +0.000 C 
BRANCH  18  19
ATOM     19  C   UNL     1      44.802   5.627  11.484  0.00  0.00    +0.000 A 
ATOM     20  C   UNL     1      44.142   5.193  12.624  0.00  0.00    +0.000 A 
ATOM     21  S   UNL     1      43.538   3.601  12.488  0.00  0.00    +0.000 S 
ATOM     22  C   UNL     1      44.150   3.437  10.906  0.00  0.00    +0.000 A 
ATOM     23  N   UNL     1      43.980   2.288  10.198  0.00  0.00    +0.000 NA
ATOM     24  C   UNL     1      44.495   2.315   9.014  0.00  0.00    +0.000 A 
ATOM     25  N   UNL     1      45.160   3.385   8.469  0.00  0.00    +0.000 N 
ATOM     26  C   UNL     1      45.382   4.555   9.155  0.00  0.00    +0.000 A 
ATOM     27  O   UNL     1      46.023   5.475   8.651  0.00  0.00    +0.000 OA
ATOM     28  C   UNL     1      44.804   4.580  10.487  0.00  0.00    +0.000 A 
ATOM     29  H   UNL     1      45.547   3.336   7.539  0.00  0.00    +0.000 HD
ENDBRANCH  18  19
BRANCH  18  30
ATOM     30  N   UNL     1      44.770   7.860  12.348  0.00  0.00    +0.000 NA
ATOM     31  H   UNL     1      43.764   7.694  12.317  0.00  0.00    +0.000 HD
ATOM     32  H   UNL     1      44.883   8.833  12.047  0.00  0.00    +0.000 HD
ENDBRANCH  18  30
ENDBRANCH   1  18
TORSDOF 8
ENDMDL
MODEL 4
REMARK VINA RESULT:    -7.202      4.718      5.992
REMARK INTER + INTRA:         -11.137
REMARK INTER:                 -10.095
REMARK INTRA:                  -1.042
REMARK UNBOUND:                -0.778
REMARK  Name = 
REMARK  8 active torsions:
REMARK  status: ('A' for Active; 'I' for Inactive)
REMARK    1  A    between atoms: N_1  and  C_2
REMARK    2  A    between atoms: C_2  and  C_3
REMARK    3  A    between atoms: C_2  and  C_18
REMARK    4  A    between atoms: C_3  and  C_4
REMARK    5  A    between atoms: C_7  and  C_8
REMARK    6  A    between atoms: C_8  and  N_9
REMARK    7  A    between atoms: N_9  and  C_10
REMARK    8  A    between atoms: C_10  and  C_11
REMARK                            x       y       z     vdW  Elec       q    Type
REMARK                         _______ _______ _______ _____ _____    ______ ____
ROOT
ATOM      1  C   UNL     1      47.317   7.204  13.220  0.00  0.00    +0.000 C 
ENDROOT
BRANCH   1   2
ATOM      2  C   UNL     1      46.474   6.165  12.524  0.00  0.00    +0.000 A 
ATOM      3  C   UNL     1      46.244   4.922  13.126  0.00  0.00    +0.000 A 
ATOM      4  C   UNL     1      45.457   3.963  12.489  0.00  0.00    +0.000 A 
ATOM      5  C   UNL     1      44.872   4.236  11.244  0.00  0.00    +0.000 A 
ATOM      6  C   UNL     1      45.109   5.479  10.642  0.00  0.00    +0.000 A 
ATOM      7  C   UNL     1      45.908   6.433  11.273  0.00  0.00    +0.000 A 
BRANCH   5   8
ATOM      8  C   UNL     1      44.017   3.201  10.556  0.00  0.00    +0.000 C 
BRANCH   8   9
ATOM      9  N   UNL     1      44.392   3.053   9.148  0.00  0.00    +0.000 NA
ATOM     10  H   UNL     1      45.021   3.822   8.910  0.00  0.00    +0.000 HD
BRANCH   9  11
ATOM     11  C   UNL     1      45.095   1.790   8.947  0.00  0.00    +0.000 C 
BRANCH  11  12
ATOM     12  C   UNL     1      46.230   1.972   8.010  0.00  0.00    +0.000 A 
ATOM     13  C   UNL     1      46.732   3.088   7.376  0.00  0.00    +0.000 A 
ATOM     14  C   UNL     1      47.833   2.617   6.637  0.00  0.00    +0.000 A 
ATOM     15  N   UNL     1      48.026   1.307   6.791  0.00  0.00    +0.000 NA
ATOM     16  N   UNL     1      47.044   0.938   7.633  0.00  0.00    +0.000 N 
ATOM     17  H   UNL     1      46.960  -0.036   7.905  0.00  0.00    +0.000 HD
ENDBRANCH  11  12
ENDBRANCH   9  11
ENDBRANCH   8   9
ENDBRANCH   5   8
ENDBRANCH   1   2
BRANCH   1  18
ATOM     18  C   UNL     1      48.737   7.378  12.629  0.00  0.00    +0.000 C 
BRANCH  18  19
ATOM     19  C   UNL     1      48.978   8.799  12.174  0.00  0.00    +0.000 A 
ATOM     20  C   UNL     1      48.146   9.859  12.500  0.00  0.00    +0.000 A 
ATOM     21  S   UNL     1      48.678  11.353  11.867  0.00  0.00    +0.000 S 
ATOM     22  C   UNL     1      50.032  10.629  11.128  0.00  0.00    +0.000 A 
ATOM     23  N   UNL     1      50.921  11.364  10.407  0.00  0.00    +0.000 NA
ATOM     24  C   UNL     1      51.897  10.678   9.912  0.00  0.00    +0.000 A 
ATOM     25  N   UNL     1      52.070   9.326  10.074  0.00  0.00    +0.000 N 
ATOM     26  C   UNL     1      51.184   8.537  10.769  0.00  0.00    +0.000 A 
ATOM     27  O   UNL     1      51.348   7.322  10.853  0.00  0.00    +0.000 OA
ATOM     28  C   UNL     1      50.079   9.268  11.362  0.00  0.00    +0.000 A 
ATOM     29  H   UNL     1      52.852   8.849   9.652  0.00  0.00    +0.000 HD
ENDBRANCH  18  19
BRANCH  18  30
ATOM     30  N   UNL     1      49.837   7.023  13.531  0.00  0.00    +0.000 NA
ATOM     31  H   UNL     1      50.351   6.243  13.120  0.00  0.00    +0.000 HD
ATOM     32  H   UNL     1      49.427   6.641  14.390  0.00  0.00    +0.000 HD
ENDBRANCH  18  30
ENDBRANCH   1  18
TORSDOF 8
ENDMDL
MODEL 5
REMARK VINA RESULT:    -7.106      1.670      2.306
REMARK INTER + INTRA:         -10.999
REMARK INTER:                 -10.273
REMARK INTRA:                  -0.725
REMARK UNBOUND:                -0.778
REMARK  Name = 
REMARK  8 active torsions:
REMARK  status: ('A' for Active; 'I' for Inactive)
REMARK    1  A    between atoms: N_1  and  C_2
REMARK    2  A    between atoms: C_2  and  C_3
REMARK    3  A    between atoms: C_2  and  C_18
REMARK    4  A    between atoms: C_3  and  C_4
REMARK    5  A    between atoms: C_7  and  C_8
REMARK    6  A    between atoms: C_8  and  N_9
REMARK    7  A    between atoms: N_9  and  C_10
REMARK    8  A    between atoms: C_10  and  C_11
REMARK                            x       y       z     vdW  Elec       q    Type
REMARK                         _______ _______ _______ _____ _____    ______ ____
ROOT
ATOM      1  C   UNL     1      49.039   5.856  16.545  0.00  0.00    +0.000 C 
ENDROOT
BRANCH   1   2
ATOM      2  C   UNL     1      48.185   5.785  15.304  0.00  0.00    +0.000 A 
ATOM      3  C   UNL     1      47.276   4.734  15.130  0.00  0.00    +0.000 A 
ATOM      4  C   UNL     1      46.479   4.671  13.988  0.00  0.00    +0.000 A 
ATOM      5  C   UNL     1      46.562   5.668  13.006  0.00  0.00    +0.000 A 
ATOM      6  C   UNL     1      47.477   6.716  13.182  0.00  0.00    +0.000 A 
ATOM      7  C   UNL     1      48.285   6.771  14.317  0.00  0.00    +0.000 A 
BRANCH   5   8
ATOM      8  C   UNL     1      45.697   5.604  11.773  0.00  0.00    +0.000 C 
BRANCH   8   9
ATOM      9  N   UNL     1      44.327   5.203  12.104  0.00  0.00    +0.000 NA
ATOM     10  H   UNL     1      43.941   5.906  12.737  0.00  0.00    +0.000 HD
BRANCH   9  11
ATOM     11  C   UNL     1      43.512   5.158  10.896  0.00  0.00    +0.000 C 
BRANCH  11  12
ATOM     12  C   UNL     1      44.005   4.104   9.976  0.00  0.00    +0.000 A 
ATOM     13  C   UNL     1      44.285   2.769  10.170  0.00  0.00    +0.000 A 
ATOM     14  C   UNL     1      44.695   2.300   8.908  0.00  0.00    +0.000 A 
ATOM     15  N   UNL     1      44.672   3.256   7.979  0.00  0.00    +0.000 NA
ATOM     16  N   UNL     1      44.244   4.341   8.649  0.00  0.00    +0.000 N 
ATOM     17  H   UNL     1      44.152   5.225   8.160  0.00  0.00    +0.000 HD
ENDBRANCH  11  12
ENDBRANCH   9  11
ENDBRANCH   8   9
ENDBRANCH   5   8
ENDBRANCH   1   2
BRANCH   1  18
ATOM     18  C   UNL     1      48.953   4.607  17.455  0.00  0.00    +0.000 C 
BRANCH  18  19
ATOM     19  C   UNL     1      50.305   4.237  18.020  0.00  0.00    +0.000 A 
ATOM     20  C   UNL     1      51.034   5.062  18.864  0.00  0.00    +0.000 A 
ATOM     21  S   UNL     1      52.514   4.376  19.365  0.00  0.00    +0.000 S 
ATOM     22  C   UNL     1      52.234   2.958  18.462  0.00  0.00    +0.000 A 
ATOM     23  N   UNL     1      53.135   1.939  18.449  0.00  0.00    +0.000 NA
ATOM     24  C   UNL     1      52.782   0.930  17.724  0.00  0.00    +0.000 A 
ATOM     25  N   UNL     1      51.611   0.843  17.013  0.00  0.00    +0.000 N 
ATOM     26  C   UNL     1      50.685   1.857  16.972  0.00  0.00    +0.000 A 
ATOM     27  O   UNL     1      49.669   1.761  16.287  0.00  0.00    +0.000 OA
ATOM     28  C   UNL     1      51.029   3.007  17.790  0.00  0.00    +0.000 A 
ATOM     29  H   UNL     1      51.401   0.027  16.458  0.00  0.00    +0.000 HD
ENDBRANCH  18  19
BRANCH  18  30
ATOM     30  N   UNL     1      48.030   4.722  18.588  0.00  0.00    +0.000 NA
ATOM     31  H   UNL     1      47.159   4.251  18.342  0.00  0.00    +0.000 HD
ATOM     32  H   UNL     1      47.773   5.710  18.683  0.00  0.00    +0.000 HD
ENDBRANCH  18  30
ENDBRANCH   1  18
TORSDOF 8
ENDMDL
MODEL 6
REMARK VINA RESULT:    -6.790      3.114      8.746
REMARK INTER + INTRA:         -10.544
REMARK INTER:                 -10.448
REMARK INTRA:                  -0.096
REMARK UNBOUND:                -0.778
REMARK  Name = 
REMARK  8 active torsions:
REMARK  status: ('A' for Active; 'I' for Inactive)
REMARK    1  A    between atoms: N_1  and  C_2
REMARK    2  A    between atoms: C_2  and  C_3
REMARK    3  A    between atoms: C_2  and  C_18
REMARK    4  A    between atoms: C_3  and  C_4
REMARK    5  A    between atoms: C_7  and  C_8
REMARK    6  A    between atoms: C_8  and  N_9
REMARK    7  A    between atoms: N_9  and  C_10
REMARK    8  A    between atoms: C_10  and  C_11
REMARK                            x       y       z     vdW  Elec       q    Type
REMARK                         _______ _______ _______ _____ _____    ______ ____
ROOT
ATOM      1  C   UNL     1      46.850   6.588  11.627  0.00  0.00    +0.000 C 
ENDROOT
BRANCH   1   2
ATOM      2  C   UNL     1      47.323   6.226  13.013  0.00  0.00    +0.000 A 
ATOM      3  C   UNL     1      48.150   7.099  13.729  0.00  0.00    +0.000 A 
ATOM      4  C   UNL     1      48.581   6.772  15.013  0.00  0.00    +0.000 A 
ATOM      5  C   UNL     1      48.178   5.570  15.614  0.00  0.00    +0.000 A 
ATOM      6  C   UNL     1      47.354   4.696  14.892  0.00  0.00    +0.000 A 
ATOM      7  C   UNL     1      46.935   5.017  13.601  0.00  0.00    +0.000 A 
BRANCH   5   8
ATOM      8  C   UNL     1      48.640   5.216  17.005  0.00  0.00    +0.000 C 
BRANCH   8   9
ATOM      9  N   UNL     1      49.433   3.984  17.005  0.00  0.00    +0.000 NA
ATOM     10  H   UNL     1      49.738   3.810  16.046  0.00  0.00    +0.000 HD
BRANCH   9  11
ATOM     11  C   UNL     1      50.610   4.146  17.851  0.00  0.00    +0.000 C 
BRANCH  11  12
ATOM     12  C   UNL     1      51.442   2.919  17.823  0.00  0.00    +0.000 A 
ATOM     13  C   UNL     1      52.798   2.721  17.967  0.00  0.00    +0.000 A 
ATOM     14  C   UNL     1      52.971   1.328  17.867  0.00  0.00    +0.000 A 
ATOM     15  N   UNL     1      51.818   0.685  17.682  0.00  0.00    +0.000 NA
ATOM     16  N   UNL     1      50.903   1.670  17.665  0.00  0.00    +0.000 N 
ATOM     17  H   UNL     1      49.925   1.440  17.520  0.00  0.00    +0.000 HD
ENDBRANCH  11  12
ENDBRANCH   9  11
ENDBRANCH   8   9
ENDBRANCH   5   8
ENDBRANCH   1   2
BRANCH   1  18
ATOM     18  C   UNL     1      45.311   6.624  11.463  0.00  0.00    +0.000 C 
BRANCH  18  19
ATOM     19  C   UNL     1      44.729   5.232  11.383  0.00  0.00    +0.000 A 
ATOM     20  C   UNL     1      44.013   4.641  12.413  0.00  0.00    +0.000 A 
ATOM     21  S   UNL     1      43.456   3.072  12.033  0.00  0.00    +0.000 S 
ATOM     22  C   UNL     1      44.164   3.127  10.484  0.00  0.00    +0.000 A 
ATOM     23  N   UNL     1      44.064   2.079   9.623  0.00  0.00    +0.000 NA
ATOM     24  C   UNL     1      44.647   2.270   8.486  0.00  0.00    +0.000 A 
ATOM     25  N   UNL     1      45.318   3.413   8.129  0.00  0.00    +0.000 N 
ATOM     26  C   UNL     1      45.471   4.486   8.974  0.00  0.00    +0.000 A 
ATOM     27  O   UNL     1      46.118   5.474   8.635  0.00  0.00    +0.000 OA
ATOM     28  C   UNL     1      44.814   4.325  10.260  0.00  0.00    +0.000 A 
ATOM     29  H   UNL     1      45.760   3.494   7.225  0.00  0.00    +0.000 HD
ENDBRANCH  18  19
BRANCH  18  30
ATOM     30  N   UNL     1      44.587   7.333  12.523  0.00  0.00    +0.000 NA
ATOM     31  H   UNL     1      43.624   7.472  12.216  0.00  0.00    +0.000 HD
ATOM     32  H   UNL     1      44.978   8.278  12.591  0.00  0.00    +0.000 HD
ENDBRANCH  18  30
ENDBRANCH   1  18
TORSDOF 8
ENDMDL
MODEL 7
REMARK VINA RESULT:    -6.643      5.435      8.068
REMARK INTER + INTRA:         -10.334
REMARK INTER:                  -9.553
REMARK INTRA:                  -0.781
REMARK UNBOUND:                -0.778
REMARK  Name = 
REMARK  8 active torsions:
REMARK  status: ('A' for Active; 'I' for Inactive)
REMARK    1  A    between atoms: N_1  and  C_2
REMARK    2  A    between atoms: C_2  and  C_3
REMARK    3  A    between atoms: C_2  and  C_18
REMARK    4  A    between atoms: C_3  and  C_4
REMARK    5  A    between atoms: C_7  and  C_8
REMARK    6  A    between atoms: C_8  and  N_9
REMARK    7  A    between atoms: N_9  and  C_10
REMARK    8  A    between atoms: C_10  and  C_11
REMARK                            x       y       z     vdW  Elec       q    Type
REMARK                         _______ _______ _______ _____ _____    ______ ____
ROOT
ATOM      1  C   UNL     1      45.253   7.240  12.774  0.00  0.00    +0.000 C 
ENDROOT
BRANCH   1   2
ATOM      2  C   UNL     1      46.709   7.636  12.746  0.00  0.00    +0.000 A 
ATOM      3  C   UNL     1      47.569   7.100  11.780  0.00  0.00    +0.000 A 
ATOM      4  C   UNL     1      48.912   7.471  11.746  0.00  0.00    +0.000 A 
ATOM      5  C   UNL     1      49.418   8.399  12.667  0.00  0.00    +0.000 A 
ATOM      6  C   UNL     1      48.555   8.930  13.636  0.00  0.00    +0.000 A 
ATOM      7  C   UNL     1      47.214   8.548  13.679  0.00  0.00    +0.000 A 
BRANCH   5   8
ATOM      8  C   UNL     1      50.870   8.805  12.629  0.00  0.00    +0.000 C 
BRANCH   8   9
ATOM      9  N   UNL     1      51.684   7.802  11.938  0.00  0.00    +0.000 NA
ATOM     10  H   UNL     1      51.130   6.948  11.864  0.00  0.00    +0.000 HD
BRANCH   9  11
ATOM     11  C   UNL     1      52.017   8.266  10.595  0.00  0.00    +0.000 C 
BRANCH  11  12
ATOM     12  C   UNL     1      52.689   7.190   9.827  0.00  0.00    +0.000 A 
ATOM     13  C   UNL     1      52.826   6.972   8.474  0.00  0.00    +0.000 A 
ATOM     14  C   UNL     1      53.592   5.795   8.375  0.00  0.00    +0.000 A 
ATOM     15  N   UNL     1      53.926   5.304   9.569  0.00  0.00    +0.000 NA
ATOM     16  N   UNL     1      53.372   6.171  10.436  0.00  0.00    +0.000 N 
ATOM     17  H   UNL     1      53.471   6.011  11.433  0.00  0.00    +0.000 HD
ENDBRANCH  11  12
ENDBRANCH   9  11
ENDBRANCH   8   9
ENDBRANCH   5   8
ENDBRANCH   1   2
BRANCH   1  18
ATOM     18  C   UNL     1      44.672   6.837  11.397  0.00  0.00    +0.000 C 
BRANCH  18  19
ATOM     19  C   UNL     1      44.355   5.361  11.340  0.00  0.00    +0.000 A 
ATOM     20  C   UNL     1      43.627   4.695  12.315  0.00  0.00    +0.000 A 
ATOM     21  S   UNL     1      43.403   3.037  11.975  0.00  0.00    +0.000 S 
ATOM     22  C   UNL     1      44.281   3.153  10.519  0.00  0.00    +0.000 A 
ATOM     23  N   UNL     1      44.474   2.068   9.721  0.00  0.00    +0.000 NA
ATOM     24  C   UNL     1      45.154   2.312   8.650  0.00  0.00    +0.000 A 
ATOM     25  N   UNL     1      45.656   3.540   8.301  0.00  0.00    +0.000 N 
ATOM     26  C   UNL     1      45.513   4.658   9.087  0.00  0.00    +0.000 A 
ATOM     27  O   UNL     1      46.017   5.731   8.763  0.00  0.00    +0.000 OA
ATOM     28  C   UNL     1      44.737   4.437  10.295  0.00  0.00    +0.000 A 
ATOM     29  H   UNL     1      46.188   3.660   7.452  0.00  0.00    +0.000 HD
ENDBRANCH  18  19
BRANCH  18  30
ATOM     30  N   UNL     1      43.457   7.554  10.999  0.00  0.00    +0.000 NA
ATOM     31  H   UNL     1      42.930   6.961  10.357  0.00  0.00    +0.000 HD
ATOM     32  H   UNL     1      43.741   8.361  10.434  0.00  0.00    +0.000 HD
ENDBRANCH  18  30
ENDBRANCH   1  18
TORSDOF 8
ENDMDL
MODEL 8
REMARK VINA RESULT:    -6.280      4.171      8.210
REMARK INTER + INTRA:          -9.811
REMARK INTER:                  -8.257
REMARK INTRA:                  -1.554
REMARK UNBOUND:                -0.778
REMARK  Name = 
REMARK  8 active torsions:
REMARK  status: ('A' for Active; 'I' for Inactive)
REMARK    1  A    between atoms: N_1  and  C_2
REMARK    2  A    between atoms: C_2  and  C_3
REMARK    3  A    between atoms: C_2  and  C_18
REMARK    4  A    between atoms: C_3  and  C_4
REMARK    5  A    between atoms: C_7  and  C_8
REMARK    6  A    between atoms: C_8  and  N_9
REMARK    7  A    between atoms: N_9  and  C_10
REMARK    8  A    between atoms: C_10  and  C_11
REMARK                            x       y       z     vdW  Elec       q    Type
REMARK                         _______ _______ _______ _____ _____    ______ ____
ROOT
ATOM      1  C   UNL     1      49.216   8.674  13.768  0.00  0.00    +0.000 C 
ENDROOT
BRANCH   1   2
ATOM      2  C   UNL     1      49.364   8.196  15.191  0.00  0.00    +0.000 A 
ATOM      3  C   UNL     1      48.581   8.754  16.210  0.00  0.00    +0.000 A 
ATOM      4  C   UNL     1      48.709   8.308  17.524  0.00  0.00    +0.000 A 
ATOM      5  C   UNL     1      49.611   7.283  17.843  0.00  0.00    +0.000 A 
ATOM      6  C   UNL     1      50.397   6.730  16.822  0.00  0.00    +0.000 A 
ATOM      7  C   UNL     1      50.278   7.187  15.509  0.00  0.00    +0.000 A 
BRANCH   5   8
ATOM      8  C   UNL     1      49.748   6.796  19.264  0.00  0.00    +0.000 C 
BRANCH   8   9
ATOM      9  N   UNL     1      48.591   5.991  19.664  0.00  0.00    +0.000 NA
ATOM     10  H   UNL     1      47.850   6.148  18.978  0.00  0.00    +0.000 HD
BRANCH   9  11
ATOM     11  C   UNL     1      48.941   4.575  19.663  0.00  0.00    +0.000 C 
BRANCH  11  12
ATOM     12  C   UNL     1      48.404   3.909  18.452  0.00  0.00    +0.000 A 
ATOM     13  C   UNL     1      48.994   3.098  17.507  0.00  0.00    +0.000 A 
ATOM     14  C   UNL     1      47.954   2.763  16.619  0.00  0.00    +0.000 A 
ATOM     15  N   UNL     1      46.790   3.310  16.971  0.00  0.00    +0.000 NA
ATOM     16  N   UNL     1      47.086   3.996  18.090  0.00  0.00    +0.000 N 
ATOM     17  H   UNL     1      46.357   4.524  18.558  0.00  0.00    +0.000 HD
ENDBRANCH  11  12
ENDBRANCH   9  11
ENDBRANCH   8   9
ENDBRANCH   5   8
ENDBRANCH   1   2
BRANCH   1  18
ATOM     18  C   UNL     1      48.820   7.570  12.759  0.00  0.00    +0.000 C 
BRANCH  18  19
ATOM     19  C   UNL     1      47.325   7.526  12.542  0.00  0.00    +0.000 A 
ATOM     20  C   UNL     1      46.593   8.588  12.034  0.00  0.00    +0.000 A 
ATOM     21  S   UNL     1      44.928   8.246  11.875  0.00  0.00    +0.000 S 
ATOM     22  C   UNL     1      45.130   6.670  12.491  0.00  0.00    +0.000 A 
ATOM     23  N   UNL     1      44.074   5.823  12.626  0.00  0.00    +0.000 NA
ATOM     24  C   UNL     1      44.383   4.662  13.101  0.00  0.00    +0.000 A 
ATOM     25  N   UNL     1      45.650   4.268  13.450  0.00  0.00    +0.000 N 
ATOM     26  C   UNL     1      46.743   5.096  13.360  0.00  0.00    +0.000 A 
ATOM     27  O   UNL     1      47.855   4.723  13.726  0.00  0.00    +0.000 OA
ATOM     28  C   UNL     1      46.448   6.408  12.811  0.00  0.00    +0.000 A 
ATOM     29  H   UNL     1      45.822   3.347  13.825  0.00  0.00    +0.000 HD
ENDBRANCH  18  19
BRANCH  18  30
ATOM     30  N   UNL     1      49.443   7.680  11.437  0.00  0.00    +0.000 NA
ATOM     31  H   UNL     1      50.007   6.844  11.276  0.00  0.00    +0.000 HD
ATOM     32  H   UNL     1      50.121   8.448  11.473  0.00  0.00    +0.000 HD
ENDBRANCH  18  30
ENDBRANCH   1  18
TORSDOF 8
ENDMDL
MODEL 9
REMARK VINA RESULT:    -6.247      2.025      2.737
REMARK INTER + INTRA:          -9.763
REMARK INTER:                  -8.771
REMARK INTRA:                  -0.992
REMARK UNBOUND:                -0.778
REMARK  Name = 
REMARK  8 active torsions:
REMARK  status: ('A' for Active; 'I' for Inactive)
REMARK    1  A    between atoms: N_1  and  C_2
REMARK    2  A    between atoms: C_2  and  C_3
REMARK    3  A    between atoms: C_2  and  C_18
REMARK    4  A    between atoms: C_3  and  C_4
REMARK    5  A    between atoms: C_7  and  C_8
REMARK    6  A    between atoms: C_8  and  N_9
REMARK    7  A    between atoms: N_9  and  C_10
REMARK    8  A    between atoms: C_10  and  C_11
REMARK                            x       y       z     vdW  Elec       q    Type
REMARK                         _______ _______ _______ _____ _____    ______ ____
ROOT
ATOM      1  C   UNL     1      49.234   7.966  15.059  0.00  0.00    +0.000 C 
ENDROOT
BRANCH   1   2
ATOM      2  C   UNL     1      48.139   7.583  14.095  0.00  0.00    +0.000 A 
ATOM      3  C   UNL     1      48.132   6.315  13.499  0.00  0.00    +0.000 A 
ATOM      4  C   UNL     1      47.116   5.955  12.615  0.00  0.00    +0.000 A 
ATOM      5  C   UNL     1      46.078   6.851  12.321  0.00  0.00    +0.000 A 
ATOM      6  C   UNL     1      46.092   8.121  12.915  0.00  0.00    +0.000 A 
ATOM      7  C   UNL     1      47.116   8.486  13.788  0.00  0.00    +0.000 A 
BRANCH   5   8
ATOM      8  C   UNL     1      44.976   6.461  11.368  0.00  0.00    +0.000 C 
BRANCH   8   9
ATOM      9  N   UNL     1      44.375   5.180  11.746  0.00  0.00    +0.000 NA
ATOM     10  H   UNL     1      43.793   5.340  12.570  0.00  0.00    +0.000 HD
BRANCH   9  11
ATOM     11  C   UNL     1      43.533   4.683  10.663  0.00  0.00    +0.000 C 
BRANCH  11  12
ATOM     12  C   UNL     1      44.321   3.828   9.743  0.00  0.00    +0.000 A 
ATOM     13  C   UNL     1      44.832   4.056   8.484  0.00  0.00    +0.000 A 
ATOM     14  C   UNL     1      45.507   2.867   8.149  0.00  0.00    +0.000 A 
ATOM     15  N   UNL     1      45.439   1.954   9.118  0.00  0.00    +0.000 NA
ATOM     16  N   UNL     1      44.720   2.562  10.079  0.00  0.00    +0.000 N 
ATOM     17  H   UNL     1      44.511   2.063  10.937  0.00  0.00    +0.000 HD
ENDBRANCH  11  12
ENDBRANCH   9  11
ENDBRANCH   8   9
ENDBRANCH   5   8
ENDBRANCH   1   2
BRANCH   1  18
ATOM     18  C   UNL     1      49.022   7.455  16.505  0.00  0.00    +0.000 C 
BRANCH  18  19
ATOM     19  C   UNL     1      50.019   6.377  16.864  0.00  0.00    +0.000 A 
ATOM     20  C   UNL     1      51.357   6.629  17.129  0.00  0.00    +0.000 A 
ATOM     21  S   UNL     1      52.241   5.224  17.530  0.00  0.00    +0.000 S 
ATOM     22  C   UNL     1      50.867   4.233  17.351  0.00  0.00    +0.000 A 
ATOM     23  N   UNL     1      50.934   2.889  17.551  0.00  0.00    +0.000 NA
ATOM     24  C   UNL     1      49.812   2.272  17.383  0.00  0.00    +0.000 A 
ATOM     25  N   UNL     1      48.627   2.873  17.038  0.00  0.00    +0.000 N 
ATOM     26  C   UNL     1      48.516   4.222  16.797  0.00  0.00    +0.000 A 
ATOM     27  O   UNL     1      47.448   4.718  16.444  0.00  0.00    +0.000 OA
ATOM     28  C   UNL     1      49.750   4.962  16.992  0.00  0.00    +0.000 A 
ATOM     29  H   UNL     1      47.786   2.330  16.914  0.00  0.00    +0.000 HD
ENDBRANCH  18  19
BRANCH  18  30
ATOM     30  N   UNL     1      49.104   8.481  17.548  0.00  0.00    +0.000 NA
ATOM     31  H   UNL     1      49.613   9.281  17.172  0.00  0.00    +0.000 HD
ATOM     32  H   UNL     1      49.703   8.120  18.297  0.00  0.00    +0.000 HD
ENDBRANCH  18  30
ENDBRANCH   1  18
TORSDOF 8
ENDMDL
