MODEL 1
REMARK VINA RESULT:    -7.704      0.000      0.000
REMARK INTER + INTRA:         -11.755
REMARK INTER:                 -10.857
REMARK INTRA:                  -0.898
REMARK UNBOUND:                -0.898
REMARK  Name = 
REMARK  10 active torsions:
REMARK  status: ('A' for Active; 'I' for Inactive)
REMARK    1  A    between atoms: C_1  and  C_2
REMARK    2  A    between atoms: C_3  and  C_4
REMARK    3  A    between atoms: C_7  and  C_8
REMARK    4  A    between atoms: C_12  and  N_13
REMARK    5  A    between atoms: N_13  and  C_14
REMARK    6  A    between atoms: C_14  and  C_15
REMARK    7  A    between atoms: C_15  and  C_16
REMARK    8  A    between atoms: C_15  and  C_17
REMARK    9  A    between atoms: C_15  and  C_18
REMARK   10  A    between atoms: C_22  and  C_23
REMARK                            x       y       z     vdW  Elec       q    Type
REMARK                         _______ _______ _______ _____ _____    ______ ____
ROOT
ATOM      1  C   UNL     1      47.665   6.473  14.005  0.00  0.00    +0.000 A 
ATOM      2  C   UNL     1      48.408   6.451  15.189  0.00  0.00    +0.000 A 
ATOM      3  N   UNL     1      48.379   5.455  16.113  0.00  0.00    +0.000 NA
ATOM      4  C   UNL     1      47.561   4.414  15.821  0.00  0.00    +0.000 A 
ATOM      5  C   UNL     1      46.758   4.356  14.692  0.00  0.00    +0.000 A 
ATOM      6  C   UNL     1      46.760   5.414  13.770  0.00  0.00    +0.000 A 
ENDROOT
BRANCH   4   7
ATOM      7  C   UNL     1      47.557   3.241  16.754  0.00  0.00    +0.000 C 
ATOM      8  N   UNL     1      48.683   2.466  16.745  0.00  0.00    +0.000 N 
ATOM      9  O   UNL     1      46.607   2.974  17.478  0.00  0.00    +0.000 OA
ATOM     10  H   UNL     1      49.435   2.681  16.103  0.00  0.00    +0.000 HD
ATOM     11  H   UNL     1      48.701   1.623  17.299  0.00  0.00    +0.000 HD
ENDBRANCH   4   7
BRANCH   1  14
ATOM     12  C   UNL     1      48.347   9.764  11.382  0.00  0.00    +0.000 C 
ATOM     13  C   UNL     1      48.088   8.580  12.300  0.00  0.00    +0.000 C 
ATOM     14  C   UNL     1      47.866   7.565  13.086  0.00  0.00    +0.000 C 
ENDBRANCH   1  14
BRANCH   6  15
ATOM     15  N   UNL     1      45.970   5.334  12.594  0.00  0.00    +0.000 N 
ATOM     16  H   UNL     1      45.377   6.156  12.490  0.00  0.00    +0.000 HD
BRANCH  15  17
ATOM     17  C   UNL     1      45.252   4.059  12.385  0.00  0.00    +0.000 C 
BRANCH  17  18
ATOM     18  C   UNL     1      44.394   3.984  11.083  0.00  0.00    +0.000 C 
ATOM     19  C   UNL     1      43.381   2.830  11.335  0.00  0.00    +0.000 C 
ATOM     20  C   UNL     1      43.596   5.298  10.935  0.00  0.00    +0.000 C 
BRANCH  18  21
ATOM     21  C   UNL     1      45.172   3.654   9.792  0.00  0.00    +0.000 A 
ATOM     22  C   UNL     1      45.505   4.678   8.883  0.00  0.00    +0.000 A 
ATOM     23  C   UNL     1      46.141   4.406   7.668  0.00  0.00    +0.000 A 
ATOM     24  C   UNL     1      46.463   3.095   7.328  0.00  0.00    +0.000 A 
ATOM     25  C   UNL     1      46.162   2.060   8.209  0.00  0.00    +0.000 A 
ATOM     26  C   UNL     1      45.526   2.339   9.431  0.00  0.00    +0.000 A 
BRANCH  25  27
ATOM     27  C   UNL     1      46.484   0.702   7.860  0.00  0.00    +0.000 C 
ATOM     28  N   UNL     1      46.751  -0.394   7.591  0.00  0.00    +0.000 NA
ENDBRANCH  25  27
ENDBRANCH  18  21
ENDBRANCH  17  18
ENDBRANCH  15  17
ENDBRANCH   6  15
TORSDOF 7
ENDMDL
MODEL 2
REMARK VINA RESULT:    -7.188      1.345      1.951
REMARK INTER + INTRA:         -11.028
REMARK INTER:                  -9.865
REMARK INTRA:                  -1.162
REMARK UNBOUND:                -0.898
REMARK  Name = 
REMARK  10 active torsions:
REMARK  status: ('A' for Active; 'I' for Inactive)
REMARK    1  A    between atoms: C_1  and  C_2
REMARK    2  A    between atoms: C_3  and  C_4
REMARK    3  A    between atoms: C_7  and  C_8
REMARK    4  A    between atoms: C_12  and  N_13
REMARK    5  A    between atoms: N_13  and  C_14
REMARK    6  A    between atoms: C_14  and  C_15
REMARK    7  A    between atoms: C_15  and  C_16
REMARK    8  A    between atoms: C_15  and  C_17
REMARK    9  A    between atoms: C_15  and  C_18
REMARK   10  A    between atoms: C_22  and  C_23
REMARK                            x       y       z     vdW  Elec       q    Type
REMARK                         _______ _______ _______ _____ _____    ______ ____
ROOT
ATOM      1  C   UNL     1      48.010   6.183  14.462  0.00  0.00    +0.000 A 
ATOM      2  C   UNL     1      48.643   6.314  15.701  0.00  0.00    +0.000 A 
ATOM      3  N   UNL     1      48.526   5.441  16.735  0.00  0.00    +0.000 NA
ATOM      4  C   UNL     1      47.733   4.366  16.502  0.00  0.00    +0.000 A 
ATOM      5  C   UNL     1      47.035   4.163  15.322  0.00  0.00    +0.000 A 
ATOM      6  C   UNL     1      47.125   5.098  14.280  0.00  0.00    +0.000 A 
ENDROOT
BRANCH   4   7
ATOM      7  C   UNL     1      47.640   3.319  17.571  0.00  0.00    +0.000 C 
ATOM      8  N   UNL     1      48.680   3.273  18.455  0.00  0.00    +0.000 N 
ATOM      9  O   UNL     1      46.701   2.537  17.651  0.00  0.00    +0.000 OA
ATOM     10  H   UNL     1      49.467   3.899  18.339  0.00  0.00    +0.000 HD
ATOM     11  H   UNL     1      48.702   2.538  19.147  0.00  0.00    +0.000 HD
ENDBRANCH   4   7
BRANCH   1  14
ATOM     12  C   UNL     1      48.847   9.159  11.524  0.00  0.00    +0.000 C 
ATOM     13  C   UNL     1      48.551   8.079  12.553  0.00  0.00    +0.000 C 
ATOM     14  C   UNL     1      48.298   7.154  13.436  0.00  0.00    +0.000 C 
ENDBRANCH   1  14
BRANCH   6  15
ATOM     15  N   UNL     1      46.444   4.867  13.056  0.00  0.00    +0.000 N 
ATOM     16  H   UNL     1      46.994   5.186  12.261  0.00  0.00    +0.000 HD
BRANCH  15  17
ATOM     17  C   UNL     1      45.033   5.305  13.012  0.00  0.00    +0.000 C 
BRANCH  17  18
ATOM     18  C   UNL     1      44.478   5.616  11.586  0.00  0.00    +0.000 C 
ATOM     19  C   UNL     1      42.963   5.906  11.798  0.00  0.00    +0.000 C 
ATOM     20  C   UNL     1      45.143   6.906  11.061  0.00  0.00    +0.000 C 
BRANCH  18  21
ATOM     21  C   UNL     1      44.597   4.467  10.561  0.00  0.00    +0.000 A 
ATOM     22  C   UNL     1      44.048   3.201  10.847  0.00  0.00    +0.000 A 
ATOM     23  C   UNL     1      44.203   2.118   9.978  0.00  0.00    +0.000 A 
ATOM     24  C   UNL     1      44.915   2.273   8.792  0.00  0.00    +0.000 A 
ATOM     25  C   UNL     1      45.459   3.513   8.470  0.00  0.00    +0.000 A 
ATOM     26  C   UNL     1      45.296   4.601   9.346  0.00  0.00    +0.000 A 
BRANCH  25  27
ATOM     27  C   UNL     1      46.203   3.677   7.250  0.00  0.00    +0.000 C 
ATOM     28  N   UNL     1      46.795   3.822   6.264  0.00  0.00    +0.000 NA
ENDBRANCH  25  27
ENDBRANCH  18  21
ENDBRANCH  17  18
ENDBRANCH  15  17
ENDBRANCH   6  15
TORSDOF 7
ENDMDL
MODEL 3
REMARK VINA RESULT:    -7.071      2.572      3.406
REMARK INTER + INTRA:         -10.862
REMARK INTER:                  -9.581
REMARK INTRA:                  -1.280
REMARK UNBOUND:                -0.898
REMARK  Name = 
REMARK  10 active torsions:
REMARK  status: ('A' for Active; 'I' for Inactive)
REMARK    1  A    between atoms: C_1  and  C_2
REMARK    2  A    between atoms: C_3  and  C_4
REMARK    3  A    between atoms: C_7  and  C_8
REMARK    4  A    between atoms: C_12  and  N_13
REMARK    5  A    between atoms: N_13  and  C_14
REMARK    6  A    between atoms: C_14  and  C_15
REMARK    7  A    between atoms: C_15  and  C_16
REMARK    8  A    between atoms: C_15  and  C_17
REMARK    9  A    between atoms: C_15  and  C_18
REMARK   10  A    between atoms: C_22  and  C_23
REMARK                            x       y       z     vdW  Elec       q    Type
REMARK                         _______ _______ _______ _____ _____    ______ ____
ROOT
ATOM      1  C   UNL     1      45.677   8.764  12.117  0.00  0.00    +0.000 A 
ATOM      2  C   UNL     1      46.875   9.485  12.108  0.00  0.00    +0.000 A 
ATOM      3  N   UNL     1      48.054   9.049  12.622  0.00  0.00    +0.000 NA
ATOM      4  C   UNL     1      48.028   7.808  13.167  0.00  0.00    +0.000 A 
ATOM      5  C   UNL     1      46.885   7.028  13.257  0.00  0.00    +0.000 A 
ATOM      6  C   UNL     1      45.662   7.510  12.767  0.00  0.00    +0.000 A 
ENDROOT
BRANCH   4   7
ATOM      7  C   UNL     1      49.320   7.233  13.665  0.00  0.00    +0.000 C 
ATOM      8  N   UNL     1      50.396   7.375  12.835  0.00  0.00    +0.000 N 
ATOM      9  O   UNL     1      49.417   6.658  14.742  0.00  0.00    +0.000 OA
ATOM     10  H   UNL     1      50.279   7.812  11.930  0.00  0.00    +0.000 HD
ATOM     11  H   UNL     1      51.270   6.940  13.090  0.00  0.00    +0.000 HD
ENDBRANCH   4   7
BRANCH   1  14
ATOM     12  C   UNL     1      42.194  10.407  10.286  0.00  0.00    +0.000 C 
ATOM     13  C   UNL     1      43.450   9.828  10.918  0.00  0.00    +0.000 C 
ATOM     14  C   UNL     1      44.526   9.332  11.459  0.00  0.00    +0.000 C 
ENDBRANCH   1  14
BRANCH   6  15
ATOM     15  N   UNL     1      44.503   6.694  12.821  0.00  0.00    +0.000 N 
ATOM     16  H   UNL     1      43.870   6.998  13.560  0.00  0.00    +0.000 HD
BRANCH  15  17
ATOM     17  C   UNL     1      44.741   5.235  12.812  0.00  0.00    +0.000 C 
BRANCH  17  18
ATOM     18  C   UNL     1      44.006   4.448  11.681  0.00  0.00    +0.000 C 
ATOM     19  C   UNL     1      43.644   3.074  12.316  0.00  0.00    +0.000 C 
ATOM     20  C   UNL     1      42.690   5.179  11.339  0.00  0.00    +0.000 C 
BRANCH  18  21
ATOM     21  C   UNL     1      44.840   4.174  10.411  0.00  0.00    +0.000 A 
ATOM     22  C   UNL     1      45.296   5.246   9.617  0.00  0.00    +0.000 A 
ATOM     23  C   UNL     1      45.988   5.033   8.421  0.00  0.00    +0.000 A 
ATOM     24  C   UNL     1      46.244   3.736   7.985  0.00  0.00    +0.000 A 
ATOM     25  C   UNL     1      45.822   2.654   8.752  0.00  0.00    +0.000 A 
ATOM     26  C   UNL     1      45.130   2.873   9.956  0.00  0.00    +0.000 A 
BRANCH  25  27
ATOM     27  C   UNL     1      46.075   1.312   8.303  0.00  0.00    +0.000 C 
ATOM     28  N   UNL     1      46.295   0.233   7.940  0.00  0.00    +0.000 NA
ENDBRANCH  25  27
ENDBRANCH  18  21
ENDBRANCH  17  18
ENDBRANCH  15  17
ENDBRANCH   6  15
TORSDOF 7
ENDMDL
MODEL 4
REMARK VINA RESULT:    -6.572      3.123      7.784
REMARK INTER + INTRA:         -10.159
REMARK INTER:                  -8.887
REMARK INTRA:                  -1.272
REMARK UNBOUND:                -0.898
REMARK  Name = 
REMARK  10 active torsions:
REMARK  status: ('A' for Active; 'I' for Inactive)
REMARK    1  A    between atoms: C_1  and  C_2
REMARK    2  A    between atoms: C_3  and  C_4
REMARK    3  A    between atoms: C_7  and  C_8
REMARK    4  A    between atoms: C_12  and  N_13
REMARK    5  A    between atoms: N_13  and  C_14
REMARK    6  A    between atoms: C_14  and  C_15
REMARK    7  A    between atoms: C_15  and  C_16
REMARK    8  A    between atoms: C_15  and  C_17
REMARK    9  A    between atoms: C_15  and  C_18
REMARK   10  A    between atoms: C_22  and  C_23
REMARK                            x       y       z     vdW  Elec       q    Type
REMARK                         _______ _______ _______ _____ _____    ______ ____
ROOT
ATOM      1  C   UNL     1      47.031   5.880  13.274  0.00  0.00    +0.000 A 
ATOM      2  C   UNL     1      46.824   6.265  11.946  0.00  0.00    +0.000 A 
ATOM      3  N   UNL     1      45.858   5.770  11.129  0.00  0.00    +0.000 NA
ATOM      4  C   UNL     1      45.043   4.840  11.688  0.00  0.00    +0.000 A 
ATOM      5  C   UNL     1      45.187   4.367  12.983  0.00  0.00    +0.000 A 
ATOM      6  C   UNL     1      46.220   4.850  13.801  0.00  0.00    +0.000 A 
ENDROOT
BRANCH   4   7
ATOM      7  C   UNL     1      43.899   4.326  10.868  0.00  0.00    +0.000 C 
ATOM      8  N   UNL     1      43.839   4.775   9.578  0.00  0.00    +0.000 N 
ATOM      9  O   UNL     1      43.055   3.560  11.315  0.00  0.00    +0.000 OA
ATOM     10  H   UNL     1      44.522   5.445   9.247  0.00  0.00    +0.000 HD
ATOM     11  H   UNL     1      43.047   4.519   9.008  0.00  0.00    +0.000 HD
ENDBRANCH   4   7
BRANCH   1  14
ATOM     12  C   UNL     1      50.034   7.780  15.630  0.00  0.00    +0.000 C 
ATOM     13  C   UNL     1      48.965   7.121  14.772  0.00  0.00    +0.000 C 
ATOM     14  C   UNL     1      48.050   6.557  14.037  0.00  0.00    +0.000 C 
ENDBRANCH   1  14
BRANCH   6  15
ATOM     15  N   UNL     1      46.339   4.396  15.140  0.00  0.00    +0.000 N 
ATOM     16  H   UNL     1      46.191   5.156  15.802  0.00  0.00    +0.000 HD
BRANCH  15  17
ATOM     17  C   UNL     1      47.531   3.575  15.439  0.00  0.00    +0.000 C 
BRANCH  17  18
ATOM     18  C   UNL     1      47.986   3.583  16.932  0.00  0.00    +0.000 C 
ATOM     19  C   UNL     1      47.652   5.013  17.448  0.00  0.00    +0.000 C 
ATOM     20  C   UNL     1      47.124   2.576  17.723  0.00  0.00    +0.000 C 
BRANCH  18  21
ATOM     21  C   UNL     1      49.492   3.338  17.170  0.00  0.00    +0.000 A 
ATOM     22  C   UNL     1      50.018   2.033  17.091  0.00  0.00    +0.000 A 
ATOM     23  C   UNL     1      51.360   1.763  17.375  0.00  0.00    +0.000 A 
ATOM     24  C   UNL     1      52.216   2.795  17.747  0.00  0.00    +0.000 A 
ATOM     25  C   UNL     1      51.733   4.099  17.821  0.00  0.00    +0.000 A 
ATOM     26  C   UNL     1      50.384   4.366  17.530  0.00  0.00    +0.000 A 
BRANCH  25  27
ATOM     27  C   UNL     1      52.609   5.169  18.213  0.00  0.00    +0.000 C 
ATOM     28  N   UNL     1      53.317   6.036  18.516  0.00  0.00    +0.000 NA
ENDBRANCH  25  27
ENDBRANCH  18  21
ENDBRANCH  17  18
ENDBRANCH  15  17
ENDBRANCH   6  15
TORSDOF 7
ENDMDL
MODEL 5
REMARK VINA RESULT:    -6.550      2.355      4.117
REMARK INTER + INTRA:         -10.129
REMARK INTER:                  -9.069
REMARK INTRA:                  -1.060
REMARK UNBOUND:                -0.898
REMARK  Name = 
REMARK  10 active torsions:
REMARK  status: ('A' for Active; 'I' for Inactive)
REMARK    1  A    between atoms: C_1  and  C_2
REMARK    2  A    between atoms: C_3  and  C_4
REMARK    3  A    between atoms: C_7  and  C_8
REMARK    4  A    between atoms: C_12  and  N_13
REMARK    5  A    between atoms: N_13  and  C_14
REMARK    6  A    between atoms: C_14  and  C_15
REMARK    7  A    between atoms: C_15  and  C_16
REMARK    8  A    between atoms: C_15  and  C_17
REMARK    9  A    between atoms: C_15  and  C_18
REMARK   10  A    between atoms: C_22  and  C_23
REMARK                            x       y       z     vdW  Elec       q    Type
REMARK                         _______ _______ _______ _____ _____    ______ ____
ROOT
ATOM      1  C   UNL     1      47.850   5.897  14.468  0.00  0.00    +0.000 A 
ATOM      2  C   UNL     1      48.652   7.000  14.777  0.00  0.00    +0.000 A 
ATOM      3  N   UNL     1      48.840   8.079  13.974  0.00  0.00    +0.000 NA
ATOM      4  C   UNL     1      48.171   8.052  12.795  0.00  0.00    +0.000 A 
ATOM      5  C   UNL     1      47.380   6.992  12.381  0.00  0.00    +0.000 A 
ATOM      6  C   UNL     1      47.233   5.860  13.198  0.00  0.00    +0.000 A 
ENDROOT
BRANCH   4   7
ATOM      7  C   UNL     1      48.262   9.257  11.909  0.00  0.00    +0.000 C 
ATOM      8  N   UNL     1      47.156  10.058  11.872  0.00  0.00    +0.000 N 
ATOM      9  O   UNL     1      49.257   9.515  11.242  0.00  0.00    +0.000 OA
ATOM     10  H   UNL     1      46.329   9.798  12.395  0.00  0.00    +0.000 HD
ATOM     11  H   UNL     1      47.138  10.840  11.234  0.00  0.00    +0.000 HD
ENDBRANCH   4   7
BRANCH   1  14
ATOM     12  C   UNL     1      47.236   2.887  17.425  0.00  0.00    +0.000 C 
ATOM     13  C   UNL     1      47.479   3.952  16.367  0.00  0.00    +0.000 C 
ATOM     14  C   UNL     1      47.688   4.864  15.460  0.00  0.00    +0.000 C 
ENDBRANCH   1  14
BRANCH   6  15
ATOM     15  N   UNL     1      46.388   4.795  12.791  0.00  0.00    +0.000 N 
ATOM     16  H   UNL     1      46.839   4.215  12.085  0.00  0.00    +0.000 HD
BRANCH  15  17
ATOM     17  C   UNL     1      44.999   5.167  12.451  0.00  0.00    +0.000 C 
BRANCH  17  18
ATOM     18  C   UNL     1      44.280   4.210  11.449  0.00  0.00    +0.000 C 
ATOM     19  C   UNL     1      44.122   2.867  12.217  0.00  0.00    +0.000 C 
ATOM     20  C   UNL     1      42.869   4.763  11.154  0.00  0.00    +0.000 C 
BRANCH  18  21
ATOM     21  C   UNL     1      45.050   3.917  10.142  0.00  0.00    +0.000 A 
ATOM     22  C   UNL     1      45.404   4.971   9.276  0.00  0.00    +0.000 A 
ATOM     23  C   UNL     1      46.032   4.735   8.049  0.00  0.00    +0.000 A 
ATOM     24  C   UNL     1      46.325   3.433   7.655  0.00  0.00    +0.000 A 
ATOM     25  C   UNL     1      46.003   2.369   8.493  0.00  0.00    +0.000 A 
ATOM     26  C   UNL     1      45.375   2.611   9.727  0.00  0.00    +0.000 A 
BRANCH  25  27
ATOM     27  C   UNL     1      46.295   1.020   8.087  0.00  0.00    +0.000 C 
ATOM     28  N   UNL     1      46.544  -0.065   7.765  0.00  0.00    +0.000 NA
ENDBRANCH  25  27
ENDBRANCH  18  21
ENDBRANCH  17  18
ENDBRANCH  15  17
ENDBRANCH   6  15
TORSDOF 7
ENDMDL
MODEL 6
REMARK VINA RESULT:    -6.537      3.125      7.845
REMARK INTER + INTRA:         -10.109
REMARK INTER:                  -8.419
REMARK INTRA:                  -1.691
REMARK UNBOUND:                -0.898
REMARK  Name = 
REMARK  10 active torsions:
REMARK  status: ('A' for Active; 'I' for Inactive)
REMARK    1  A    between atoms: C_1  and  C_2
REMARK    2  A    between atoms: C_3  and  C_4
REMARK    3  A    between atoms: C_7  and  C_8
REMARK    4  A    between atoms: C_12  and  N_13
REMARK    5  A    between atoms: N_13  and  C_14
REMARK    6  A    between atoms: C_14  and  C_15
REMARK    7  A    between atoms: C_15  and  C_16
REMARK    8  A    between atoms: C_15  and  C_17
REMARK    9  A    between atoms: C_15  and  C_18
REMARK   10  A    between atoms: C_22  and  C_23
REMARK                            x       y       z     vdW  Elec       q    Type
REMARK                         _______ _______ _______ _____ _____    ______ ____
ROOT
ATOM      1  C   UNL     1      47.112   5.957  13.208  0.00  0.00    +0.000 A 
ATOM      2  C   UNL     1      46.805   6.357  11.904  0.00  0.00    +0.000 A 
ATOM      3  N   UNL     1      45.804   5.843  11.143  0.00  0.00    +0.000 NA
ATOM      4  C   UNL     1      45.060   4.877  11.736  0.00  0.00    +0.000 A 
ATOM      5  C   UNL     1      45.305   4.386  13.009  0.00  0.00    +0.000 A 
ATOM      6  C   UNL     1      46.373   4.890  13.766  0.00  0.00    +0.000 A 
ENDROOT
BRANCH   4   7
ATOM      7  C   UNL     1      43.881   4.338  10.982  0.00  0.00    +0.000 C 
ATOM      8  N   UNL     1      43.795   4.702   9.668  0.00  0.00    +0.000 N 
ATOM      9  O   UNL     1      43.034   3.623  11.502  0.00  0.00    +0.000 OA
ATOM     10  H   UNL     1      44.483   5.332   9.275  0.00  0.00    +0.000 HD
ATOM     11  H   UNL     1      42.982   4.428   9.137  0.00  0.00    +0.000 HD
ENDBRANCH   4   7
BRANCH   1  14
ATOM     12  C   UNL     1      50.256   8.063  15.173  0.00  0.00    +0.000 C 
ATOM     13  C   UNL     1      49.126   7.305  14.495  0.00  0.00    +0.000 C 
ATOM     14  C   UNL     1      48.156   6.655  13.915  0.00  0.00    +0.000 C 
ENDBRANCH   1  14
BRANCH   6  15
ATOM     15  N   UNL     1      46.595   4.418  15.085  0.00  0.00    +0.000 N 
ATOM     16  H   UNL     1      46.640   5.187  15.751  0.00  0.00    +0.000 HD
BRANCH  15  17
ATOM     17  C   UNL     1      47.690   3.437  15.242  0.00  0.00    +0.000 C 
BRANCH  17  18
ATOM     18  C   UNL     1      48.262   3.305  16.689  0.00  0.00    +0.000 C 
ATOM     19  C   UNL     1      47.039   2.926  17.573  0.00  0.00    +0.000 C 
ATOM     20  C   UNL     1      49.263   2.131  16.726  0.00  0.00    +0.000 C 
BRANCH  18  21
ATOM     21  C   UNL     1      48.886   4.590  17.276  0.00  0.00    +0.000 A 
ATOM     22  C   UNL     1      50.284   4.697  17.422  0.00  0.00    +0.000 A 
ATOM     23  C   UNL     1      50.879   5.812  18.020  0.00  0.00    +0.000 A 
ATOM     24  C   UNL     1      50.087   6.856  18.490  0.00  0.00    +0.000 A 
ATOM     25  C   UNL     1      48.703   6.790  18.349  0.00  0.00    +0.000 A 
ATOM     26  C   UNL     1      48.111   5.669  17.744  0.00  0.00    +0.000 A 
BRANCH  25  27
ATOM     27  C   UNL     1      47.879   7.861  18.841  0.00  0.00    +0.000 C 
ATOM     28  N   UNL     1      47.222   8.734  19.228  0.00  0.00    +0.000 NA
ENDBRANCH  25  27
ENDBRANCH  18  21
ENDBRANCH  17  18
ENDBRANCH  15  17
ENDBRANCH   6  15
TORSDOF 7
ENDMDL
MODEL 7
REMARK VINA RESULT:    -6.414      3.705      7.761
REMARK INTER + INTRA:          -9.937
REMARK INTER:                  -8.607
REMARK INTRA:                  -1.330
REMARK UNBOUND:                -0.898
REMARK  Name = 
REMARK  10 active torsions:
REMARK  status: ('A' for Active; 'I' for Inactive)
REMARK    1  A    between atoms: C_1  and  C_2
REMARK    2  A    between atoms: C_3  and  C_4
REMARK    3  A    between atoms: C_7  and  C_8
REMARK    4  A    between atoms: C_12  and  N_13
REMARK    5  A    between atoms: N_13  and  C_14
REMARK    6  A    between atoms: C_14  and  C_15
REMARK    7  A    between atoms: C_15  and  C_16
REMARK    8  A    between atoms: C_15  and  C_17
REMARK    9  A    between atoms: C_15  and  C_18
REMARK   10  A    between atoms: C_22  and  C_23
REMARK                            x       y       z     vdW  Elec       q    Type
REMARK                         _______ _______ _______ _____ _____    ______ ____
ROOT
ATOM      1  C   UNL     1      44.947   3.407   9.796  0.00  0.00    +0.000 A 
ATOM      2  C   UNL     1      45.044   2.097   9.318  0.00  0.00    +0.000 A 
ATOM      3  N   UNL     1      45.732   1.719   8.209  0.00  0.00    +0.000 NA
ATOM      4  C   UNL     1      46.371   2.718   7.551  0.00  0.00    +0.000 A 
ATOM      5  C   UNL     1      46.308   4.051   7.924  0.00  0.00    +0.000 A 
ATOM      6  C   UNL     1      45.553   4.436   9.042  0.00  0.00    +0.000 A 
ENDROOT
BRANCH   4   7
ATOM      7  C   UNL     1      47.224   2.350   6.375  0.00  0.00    +0.000 C 
ATOM      8  N   UNL     1      47.110   3.156   5.278  0.00  0.00    +0.000 N 
ATOM      9  O   UNL     1      47.974   1.382   6.379  0.00  0.00    +0.000 OA
ATOM     10  H   UNL     1      46.448   3.921   5.284  0.00  0.00    +0.000 HD
ATOM     11  H   UNL     1      47.606   2.908   4.435  0.00  0.00    +0.000 HD
ENDBRANCH   4   7
BRANCH   1  14
ATOM     12  C   UNL     1      42.942   4.211  13.473  0.00  0.00    +0.000 C 
ATOM     13  C   UNL     1      43.644   3.902  12.160  0.00  0.00    +0.000 C 
ATOM     14  C   UNL     1      44.244   3.637  11.034  0.00  0.00    +0.000 C 
ENDBRANCH   1  14
BRANCH   6  15
ATOM     15  N   UNL     1      45.525   5.796   9.448  0.00  0.00    +0.000 N 
ATOM     16  H   UNL     1      45.380   6.416   8.652  0.00  0.00    +0.000 HD
BRANCH  15  17
ATOM     17  C   UNL     1      46.623   6.225  10.340  0.00  0.00    +0.000 C 
BRANCH  17  18
ATOM     18  C   UNL     1      46.179   7.035  11.599  0.00  0.00    +0.000 C 
ATOM     19  C   UNL     1      44.678   7.368  11.355  0.00  0.00    +0.000 C 
ATOM     20  C   UNL     1      46.271   6.120  12.839  0.00  0.00    +0.000 C 
BRANCH  18  21
ATOM     21  C   UNL     1      46.924   8.367  11.829  0.00  0.00    +0.000 A 
ATOM     22  C   UNL     1      46.200   9.564  12.002  0.00  0.00    +0.000 A 
ATOM     23  C   UNL     1      46.841  10.799  12.136  0.00  0.00    +0.000 A 
ATOM     24  C   UNL     1      48.231  10.870  12.102  0.00  0.00    +0.000 A 
ATOM     25  C   UNL     1      48.978   9.706  11.948  0.00  0.00    +0.000 A 
ATOM     26  C   UNL     1      48.329   8.466  11.817  0.00  0.00    +0.000 A 
BRANCH  25  27
ATOM     27  C   UNL     1      50.414   9.774  11.902  0.00  0.00    +0.000 C 
ATOM     28  N   UNL     1      51.572   9.815  11.871  0.00  0.00    +0.000 NA
ENDBRANCH  25  27
ENDBRANCH  18  21
ENDBRANCH  17  18
ENDBRANCH  15  17
ENDBRANCH   6  15
TORSDOF 7
ENDMDL
MODEL 8
REMARK VINA RESULT:    -6.405      3.023      7.634
REMARK INTER + INTRA:          -9.924
REMARK INTER:                  -8.021
REMARK INTRA:                  -1.903
REMARK UNBOUND:                -0.898
REMARK  Name = 
REMARK  10 active torsions:
REMARK  status: ('A' for Active; 'I' for Inactive)
REMARK    1  A    between atoms: C_1  and  C_2
REMARK    2  A    between atoms: C_3  and  C_4
REMARK    3  A    between atoms: C_7  and  C_8
REMARK    4  A    between atoms: C_12  and  N_13
REMARK    5  A    between atoms: N_13  and  C_14
REMARK    6  A    between atoms: C_14  and  C_15
REMARK    7  A    between atoms: C_15  and  C_16
REMARK    8  A    between atoms: C_15  and  C_17
REMARK    9  A    between atoms: C_15  and  C_18
REMARK   10  A    between atoms: C_22  and  C_23
REMARK                            x       y       z     vdW  Elec       q    Type
REMARK                         _______ _______ _______ _____ _____    ______ ____
ROOT
ATOM      1  C   UNL     1      46.250   4.696  13.450  0.00  0.00    +0.000 A 
ATOM      2  C   UNL     1      45.945   3.536  12.733  0.00  0.00    +0.000 A 
ATOM      3  N   UNL     1      45.542   3.501  11.436  0.00  0.00    +0.000 NA
ATOM      4  C   UNL     1      45.453   4.707  10.821  0.00  0.00    +0.000 A 
ATOM      5  C   UNL     1      45.700   5.916  11.455  0.00  0.00    +0.000 A 
ATOM      6  C   UNL     1      46.067   5.941  12.809  0.00  0.00    +0.000 A 
ENDROOT
BRANCH   4   7
ATOM      7  C   UNL     1      45.106   4.728   9.364  0.00  0.00    +0.000 C 
ATOM      8  N   UNL     1      43.825   4.367   9.049  0.00  0.00    +0.000 N 
ATOM      9  O   UNL     1      45.912   5.036   8.495  0.00  0.00    +0.000 OA
ATOM     10  H   UNL     1      43.193   4.072   9.781  0.00  0.00    +0.000 HD
ATOM     11  H   UNL     1      43.564   4.292   8.078  0.00  0.00    +0.000 HD
ENDBRANCH   4   7
BRANCH   1  14
ATOM     12  C   UNL     1      47.761   4.173  17.403  0.00  0.00    +0.000 C 
ATOM     13  C   UNL     1      47.212   4.382  16.001  0.00  0.00    +0.000 C 
ATOM     14  C   UNL     1      46.742   4.562  14.799  0.00  0.00    +0.000 C 
ENDBRANCH   1  14
BRANCH   6  15
ATOM     15  N   UNL     1      46.361   7.176  13.443  0.00  0.00    +0.000 N 
ATOM     16  H   UNL     1      45.527   7.583  13.864  0.00  0.00    +0.000 HD
BRANCH  15  17
ATOM     17  C   UNL     1      47.151   8.138  12.645  0.00  0.00    +0.000 C 
BRANCH  17  18
ATOM     18  C   UNL     1      48.627   8.335  13.112  0.00  0.00    +0.000 C 
ATOM     19  C   UNL     1      49.447   7.281  12.312  0.00  0.00    +0.000 C 
ATOM     20  C   UNL     1      49.104   9.739  12.683  0.00  0.00    +0.000 C 
BRANCH  18  21
ATOM     21  C   UNL     1      48.888   8.091  14.615  0.00  0.00    +0.000 A 
ATOM     22  C   UNL     1      48.283   8.919  15.583  0.00  0.00    +0.000 A 
ATOM     23  C   UNL     1      48.556   8.776  16.946  0.00  0.00    +0.000 A 
ATOM     24  C   UNL     1      49.444   7.796  17.381  0.00  0.00    +0.000 A 
ATOM     25  C   UNL     1      50.048   6.951  16.453  0.00  0.00    +0.000 A 
ATOM     26  C   UNL     1      49.767   7.096  15.084  0.00  0.00    +0.000 A 
BRANCH  25  27
ATOM     27  C   UNL     1      50.973   5.943  16.895  0.00  0.00    +0.000 C 
ATOM     28  N   UNL     1      51.731   5.138  17.246  0.00  0.00    +0.000 NA
ENDBRANCH  25  27
ENDBRANCH  18  21
ENDBRANCH  17  18
ENDBRANCH  15  17
ENDBRANCH   6  15
TORSDOF 7
ENDMDL
MODEL 9
REMARK VINA RESULT:    -6.276      3.198      6.876
REMARK INTER + INTRA:          -9.742
REMARK INTER:                  -8.402
REMARK INTRA:                  -1.340
REMARK UNBOUND:                -0.898
REMARK  Name = 
REMARK  10 active torsions:
REMARK  status: ('A' for Active; 'I' for Inactive)
REMARK    1  A    between atoms: C_1  and  C_2
REMARK    2  A    between atoms: C_3  and  C_4
REMARK    3  A    between atoms: C_7  and  C_8
REMARK    4  A    between atoms: C_12  and  N_13
REMARK    5  A    between atoms: N_13  and  C_14
REMARK    6  A    between atoms: C_14  and  C_15
REMARK    7  A    between atoms: C_15  and  C_16
REMARK    8  A    between atoms: C_15  and  C_17
REMARK    9  A    between atoms: C_15  and  C_18
REMARK   10  A    between atoms: C_22  and  C_23
REMARK                            x       y       z     vdW  Elec       q    Type
REMARK                         _______ _______ _______ _____ _____    ______ ____
ROOT
ATOM      1  C   UNL     1      45.239   7.502  11.923  0.00  0.00    +0.000 A 
ATOM      2  C   UNL     1      44.276   6.505  11.737  0.00  0.00    +0.000 A 
ATOM      3  N   UNL     1      44.456   5.185  12.003  0.00  0.00    +0.000 NA
ATOM      4  C   UNL     1      45.674   4.851  12.496  0.00  0.00    +0.000 A 
ATOM      5  C   UNL     1      46.706   5.758  12.684  0.00  0.00    +0.000 A 
ATOM      6  C   UNL     1      46.524   7.111  12.359  0.00  0.00    +0.000 A 
ENDROOT
BRANCH   4   7
ATOM      7  C   UNL     1      45.901   3.425  12.898  0.00  0.00    +0.000 C 
ATOM      8  N   UNL     1      44.967   2.526  12.465  0.00  0.00    +0.000 N 
ATOM      9  O   UNL     1      46.854   3.073  13.582  0.00  0.00    +0.000 OA
ATOM     10  H   UNL     1      44.164   2.850  11.941  0.00  0.00    +0.000 HD
ATOM     11  H   UNL     1      45.033   1.567  12.771  0.00  0.00    +0.000 HD
ENDBRANCH   4   7
BRANCH   1  14
ATOM     12  C   UNL     1      44.097  11.515  11.045  0.00  0.00    +0.000 C 
ATOM     13  C   UNL     1      44.513  10.092  11.381  0.00  0.00    +0.000 C 
ATOM     14  C   UNL     1      44.869   8.872  11.670  0.00  0.00    +0.000 C 
ENDBRANCH   1  14
BRANCH   6  15
ATOM     15  N   UNL     1      47.567   8.044  12.592  0.00  0.00    +0.000 N 
ATOM     16  H   UNL     1      48.415   7.785  12.090  0.00  0.00    +0.000 HD
BRANCH  15  17
ATOM     17  C   UNL     1      47.804   8.405  14.006  0.00  0.00    +0.000 C 
BRANCH  17  18
ATOM     18  C   UNL     1      49.261   8.172  14.516  0.00  0.00    +0.000 C 
ATOM     19  C   UNL     1      50.070   7.764  13.250  0.00  0.00    +0.000 C 
ATOM     20  C   UNL     1      49.829   9.510  15.037  0.00  0.00    +0.000 C 
BRANCH  18  21
ATOM     21  C   UNL     1      49.428   7.048  15.562  0.00  0.00    +0.000 A 
ATOM     22  C   UNL     1      50.655   6.884  16.236  0.00  0.00    +0.000 A 
ATOM     23  C   UNL     1      50.866   5.832  17.132  0.00  0.00    +0.000 A 
ATOM     24  C   UNL     1      49.851   4.912  17.379  0.00  0.00    +0.000 A 
ATOM     25  C   UNL     1      48.621   5.053  16.742  0.00  0.00    +0.000 A 
ATOM     26  C   UNL     1      48.412   6.115  15.845  0.00  0.00    +0.000 A 
BRANCH  25  27
ATOM     27  C   UNL     1      47.572   4.101  16.986  0.00  0.00    +0.000 C 
ATOM     28  N   UNL     1      46.716   3.344  17.187  0.00  0.00    +0.000 NA
ENDBRANCH  25  27
ENDBRANCH  18  21
ENDBRANCH  17  18
ENDBRANCH  15  17
ENDBRANCH   6  15
TORSDOF 7
ENDMDL
