MODEL 1
REMARK VINA RESULT:    -7.652      0.000      0.000
REMARK INTER + INTRA:         -10.135
REMARK INTER:                  -9.666
REMARK INTRA:                  -0.469
REMARK UNBOUND:                -0.469
REMARK  Name = 
REMARK  5 active torsions:
REMARK  status: ('A' for Active; 'I' for Inactive)
REMARK    1  A    between atoms: N_1  and  C_2
REMARK    2  A    between atoms: C_2  and  C_3
REMARK    3  A    between atoms: C_3  and  C_4
REMARK    4  A    between atoms: C_7  and  C_8
REMARK    5  A    between atoms: C_8  and  N_9
REMARK                            x       y       z     vdW  Elec       q    Type
REMARK                         _______ _______ _______ _____ _____    ______ ____
ROOT
ATOM      1  C   UNL     1      46.124   2.206   7.782  0.00  0.00    +0.000 A 
ATOM      2  C   UNL     1      45.330   1.636   8.779  0.00  0.00    +0.000 A 
ATOM      3  C   UNL     1      44.542   2.447   9.594  0.00  0.00    +0.000 A 
ATOM      4  C   UNL     1      44.565   3.825   9.396  0.00  0.00    +0.000 A 
ATOM      5  N   UNL     1      45.295   4.398   8.403  0.00  0.00    +0.000 NA
ATOM      6  C   UNL     1      46.050   3.585   7.627  0.00  0.00    +0.000 A 
ENDROOT
BRANCH   1   7
ATOM      7  C   UNL     1      47.047   1.364   6.940  0.00  0.00    +0.000 C 
BRANCH   7   8
ATOM      8  C   UNL     1      48.328   2.091   6.520  0.00  0.00    +0.000 C 
BRANCH   8   9
ATOM      9  N   UNL     1      48.382   2.249   5.067  0.00  0.00    +0.000 NA
ATOM     10  H   UNL     1      48.716   3.186   4.838  0.00  0.00    +0.000 HD
ATOM     11  H   UNL     1      47.442   2.182   4.674  0.00  0.00    +0.000 HD
ENDBRANCH   8   9
ENDBRANCH   7   8
ENDBRANCH   1   7
BRANCH   4  12
ATOM     12  C   UNL     1      43.794   4.761  10.291  0.00  0.00    +0.000 C 
BRANCH  12  13
ATOM     13  N   UNL     1      44.375   4.864  11.622  0.00  0.00    +0.000 N 
ATOM     14  C   UNL     1      43.951   4.164  12.724  0.00  0.00    +0.000 A 
ATOM     15  N   UNL     1      44.735   4.357  13.759  0.00  0.00    +0.000 NA
ATOM     16  C   UNL     1      45.731   5.187  13.307  0.00  0.00    +0.000 A 
ATOM     17  C   UNL     1      46.856   5.677  13.988  0.00  0.00    +0.000 A 
ATOM     18  C   UNL     1      47.763   6.490  13.297  0.00  0.00    +0.000 A 
ATOM     19  C   UNL     1      47.542   6.823  11.961  0.00  0.00    +0.000 A 
ATOM     20  C   UNL     1      46.418   6.357  11.267  0.00  0.00    +0.000 A 
ATOM     21  C   UNL     1      45.529   5.530  11.970  0.00  0.00    +0.000 A 
ENDBRANCH  12  13
ENDBRANCH   4  12
TORSDOF 5
ENDMDL
MODEL 2
REMARK VINA RESULT:    -7.222      1.706      2.080
REMARK INTER + INTRA:          -9.590
REMARK INTER:                  -9.117
REMARK INTRA:                  -0.473
REMARK UNBOUND:                -0.469
REMARK  Name = 
REMARK  5 active torsions:
REMARK  status: ('A' for Active; 'I' for Inactive)
REMARK    1  A    between atoms: N_1  and  C_2
REMARK    2  A    between atoms: C_2  and  C_3
REMARK    3  A    between atoms: C_3  and  C_4
REMARK    4  A    between atoms: C_7  and  C_8
REMARK    5  A    between atoms: C_8  and  N_9
REMARK                            x       y       z     vdW  Elec       q    Type
REMARK                         _______ _______ _______ _____ _____    ______ ____
ROOT
ATOM      1  C   UNL     1      46.044   2.436   7.977  0.00  0.00    +0.000 A 
ATOM      2  C   UNL     1      46.133   3.828   7.922  0.00  0.00    +0.000 A 
ATOM      3  C   UNL     1      45.382   4.611   8.798  0.00  0.00    +0.000 A 
ATOM      4  C   UNL     1      44.548   3.982   9.718  0.00  0.00    +0.000 A 
ATOM      5  N   UNL     1      44.479   2.629   9.819  0.00  0.00    +0.000 NA
ATOM      6  C   UNL     1      45.220   1.894   8.955  0.00  0.00    +0.000 A 
ENDROOT
BRANCH   1   7
ATOM      7  C   UNL     1      46.780   1.566   6.992  0.00  0.00    +0.000 C 
BRANCH   7   8
ATOM      8  C   UNL     1      48.173   2.090   6.633  0.00  0.00    +0.000 C 
BRANCH   8   9
ATOM      9  N   UNL     1      48.379   2.068   5.184  0.00  0.00    +0.000 NA
ATOM     10  H   UNL     1      49.158   2.680   4.941  0.00  0.00    +0.000 HD
ATOM     11  H   UNL     1      47.561   2.452   4.711  0.00  0.00    +0.000 HD
ENDBRANCH   8   9
ENDBRANCH   7   8
ENDBRANCH   1   7
BRANCH   4  12
ATOM     12  C   UNL     1      43.655   4.773  10.639  0.00  0.00    +0.000 C 
BRANCH  12  13
ATOM     13  N   UNL     1      44.405   5.495  11.657  0.00  0.00    +0.000 N 
ATOM     14  C   UNL     1      45.192   4.912  12.618  0.00  0.00    +0.000 A 
ATOM     15  N   UNL     1      45.850   5.805  13.322  0.00  0.00    +0.000 NA
ATOM     16  C   UNL     1      45.505   7.017  12.776  0.00  0.00    +0.000 A 
ATOM     17  C   UNL     1      45.953   8.303  13.117  0.00  0.00    +0.000 A 
ATOM     18  C   UNL     1      45.481   9.398  12.384  0.00  0.00    +0.000 A 
ATOM     19  C   UNL     1      44.567   9.218  11.346  0.00  0.00    +0.000 A 
ATOM     20  C   UNL     1      44.097   7.944  11.000  0.00  0.00    +0.000 A 
ATOM     21  C   UNL     1      44.593   6.857  11.734  0.00  0.00    +0.000 A 
ENDBRANCH  12  13
ENDBRANCH   4  12
TORSDOF 5
ENDMDL
MODEL 3
REMARK VINA RESULT:    -7.080      1.186      1.777
REMARK INTER + INTRA:          -9.411
REMARK INTER:                  -8.931
REMARK INTRA:                  -0.480
REMARK UNBOUND:                -0.469
REMARK  Name = 
REMARK  5 active torsions:
REMARK  status: ('A' for Active; 'I' for Inactive)
REMARK    1  A    between atoms: N_1  and  C_2
REMARK    2  A    between atoms: C_2  and  C_3
REMARK    3  A    between atoms: C_3  and  C_4
REMARK    4  A    between atoms: C_7  and  C_8
REMARK    5  A    between atoms: C_8  and  N_9
REMARK                            x       y       z     vdW  Elec       q    Type
REMARK                         _______ _______ _______ _____ _____    ______ ____
ROOT
ATOM      1  C   UNL     1      45.875   2.490   8.052  0.00  0.00    +0.000 A 
ATOM      2  C   UNL     1      45.047   1.939   9.032  0.00  0.00    +0.000 A 
ATOM      3  C   UNL     1      44.374   2.771   9.926  0.00  0.00    +0.000 A 
ATOM      4  C   UNL     1      44.545   4.149   9.823  0.00  0.00    +0.000 A 
ATOM      5  N   UNL     1      45.310   4.708   8.849  0.00  0.00    +0.000 NA
ATOM      6  C   UNL     1      45.951   3.875   7.995  0.00  0.00    +0.000 A 
ENDROOT
BRANCH   1   7
ATOM      7  C   UNL     1      46.677   1.615   7.125  0.00  0.00    +0.000 C 
BRANCH   7   8
ATOM      8  C   UNL     1      47.278   2.370   5.935  0.00  0.00    +0.000 C 
BRANCH   8   9
ATOM      9  N   UNL     1      48.578   1.808   5.567  0.00  0.00    +0.000 NA
ATOM     10  H   UNL     1      48.814   2.090   4.615  0.00  0.00    +0.000 HD
ATOM     11  H   UNL     1      48.526   0.790   5.555  0.00  0.00    +0.000 HD
ENDBRANCH   8   9
ENDBRANCH   7   8
ENDBRANCH   1   7
BRANCH   4  12
ATOM     12  C   UNL     1      43.906   5.096  10.805  0.00  0.00    +0.000 C 
BRANCH  12  13
ATOM     13  N   UNL     1      44.883   5.927  11.495  0.00  0.00    +0.000 N 
ATOM     14  C   UNL     1      44.984   7.290  11.376  0.00  0.00    +0.000 A 
ATOM     15  N   UNL     1      45.868   7.791  12.207  0.00  0.00    +0.000 NA
ATOM     16  C   UNL     1      46.337   6.717  12.923  0.00  0.00    +0.000 A 
ATOM     17  C   UNL     1      47.267   6.690  13.974  0.00  0.00    +0.000 A 
ATOM     18  C   UNL     1      47.564   5.463  14.581  0.00  0.00    +0.000 A 
ATOM     19  C   UNL     1      46.961   4.287  14.136  0.00  0.00    +0.000 A 
ATOM     20  C   UNL     1      46.042   4.291  13.080  0.00  0.00    +0.000 A 
ATOM     21  C   UNL     1      45.744   5.531  12.495  0.00  0.00    +0.000 A 
ENDBRANCH  12  13
ENDBRANCH   4  12
TORSDOF 5
ENDMDL
MODEL 4
REMARK VINA RESULT:    -6.904      1.886      6.586
REMARK INTER + INTRA:          -9.189
REMARK INTER:                  -8.797
REMARK INTRA:                  -0.392
REMARK UNBOUND:                -0.469
REMARK  Name = 
REMARK  5 active torsions:
REMARK  status: ('A' for Active; 'I' for Inactive)
REMARK    1  A    between atoms: N_1  and  C_2
REMARK    2  A    between atoms: C_2  and  C_3
REMARK    3  A    between atoms: C_3  and  C_4
REMARK    4  A    between atoms: C_7  and  C_8
REMARK    5  A    between atoms: C_8  and  N_9
REMARK                            x       y       z     vdW  Elec       q    Type
REMARK                         _______ _______ _______ _____ _____    ______ ____
ROOT
ATOM      1  C   UNL     1      46.341   4.477  14.101  0.00  0.00    +0.000 A 
ATOM      2  C   UNL     1      45.408   5.365  13.561  0.00  0.00    +0.000 A 
ATOM      3  C   UNL     1      44.691   5.014  12.417  0.00  0.00    +0.000 A 
ATOM      4  C   UNL     1      44.923   3.773  11.831  0.00  0.00    +0.000 A 
ATOM      5  N   UNL     1      45.793   2.876  12.366  0.00  0.00    +0.000 NA
ATOM      6  C   UNL     1      46.475   3.244  13.476  0.00  0.00    +0.000 A 
ENDROOT
BRANCH   1   7
ATOM      7  C   UNL     1      47.188   4.860  15.286  0.00  0.00    +0.000 C 
BRANCH   7   8
ATOM      8  C   UNL     1      47.567   3.673  16.178  0.00  0.00    +0.000 C 
BRANCH   8   9
ATOM      9  N   UNL     1      46.619   3.530  17.282  0.00  0.00    +0.000 NA
ATOM     10  H   UNL     1      46.819   2.671  17.795  0.00  0.00    +0.000 HD
ATOM     11  H   UNL     1      45.672   3.425  16.916  0.00  0.00    +0.000 HD
ENDBRANCH   8   9
ENDBRANCH   7   8
ENDBRANCH   1   7
BRANCH   4  12
ATOM     12  C   UNL     1      44.236   3.366  10.553  0.00  0.00    +0.000 C 
BRANCH  12  13
ATOM     13  N   UNL     1      45.054   3.619   9.375  0.00  0.00    +0.000 N 
ATOM     14  C   UNL     1      45.446   4.859   8.939  0.00  0.00    +0.000 A 
ATOM     15  N   UNL     1      46.281   4.782   7.929  0.00  0.00    +0.000 NA
ATOM     16  C   UNL     1      46.470   3.439   7.720  0.00  0.00    +0.000 A 
ATOM     17  C   UNL     1      47.301   2.793   6.790  0.00  0.00    +0.000 A 
ATOM     18  C   UNL     1      47.355   1.394   6.790  0.00  0.00    +0.000 A 
ATOM     19  C   UNL     1      46.583   0.654   7.685  0.00  0.00    +0.000 A 
ATOM     20  C   UNL     1      45.736   1.278   8.610  0.00  0.00    +0.000 A 
ATOM     21  C   UNL     1      45.707   2.681   8.607  0.00  0.00    +0.000 A 
ENDBRANCH  12  13
ENDBRANCH   4  12
TORSDOF 5
ENDMDL
MODEL 5
REMARK VINA RESULT:    -6.297      2.362      6.228
REMARK INTER + INTRA:          -8.422
REMARK INTER:                  -8.111
REMARK INTRA:                  -0.311
REMARK UNBOUND:                -0.469
REMARK  Name = 
REMARK  5 active torsions:
REMARK  status: ('A' for Active; 'I' for Inactive)
REMARK    1  A    between atoms: N_1  and  C_2
REMARK    2  A    between atoms: C_2  and  C_3
REMARK    3  A    between atoms: C_3  and  C_4
REMARK    4  A    between atoms: C_7  and  C_8
REMARK    5  A    between atoms: C_8  and  N_9
REMARK                            x       y       z     vdW  Elec       q    Type
REMARK                         _______ _______ _______ _____ _____    ______ ____
ROOT
ATOM      1  C   UNL     1      47.392   7.620  13.629  0.00  0.00    +0.000 A 
ATOM      2  C   UNL     1      47.250   6.250  13.399  0.00  0.00    +0.000 A 
ATOM      3  C   UNL     1      46.151   5.772  12.686  0.00  0.00    +0.000 A 
ATOM      4  C   UNL     1      45.207   6.680  12.214  0.00  0.00    +0.000 A 
ATOM      5  N   UNL     1      45.349   8.020  12.388  0.00  0.00    +0.000 NA
ATOM      6  C   UNL     1      46.426   8.455  13.084  0.00  0.00    +0.000 A 
ENDROOT
BRANCH   1   7
ATOM      7  C   UNL     1      48.524   8.158  14.464  0.00  0.00    +0.000 C 
BRANCH   7   8
ATOM      8  C   UNL     1      49.096   7.137  15.452  0.00  0.00    +0.000 C 
BRANCH   8   9
ATOM      9  N   UNL     1      50.511   6.885  15.176  0.00  0.00    +0.000 NA
ATOM     10  H   UNL     1      51.085   7.377  15.861  0.00  0.00    +0.000 HD
ATOM     11  H   UNL     1      50.762   7.274  14.267  0.00  0.00    +0.000 HD
ENDBRANCH   8   9
ENDBRANCH   7   8
ENDBRANCH   1   7
BRANCH   4  12
ATOM     12  C   UNL     1      43.960   6.221  11.503  0.00  0.00    +0.000 C 
BRANCH  12  13
ATOM     13  N   UNL     1      44.019   4.815  11.127  0.00  0.00    +0.000 N 
ATOM     14  C   UNL     1      43.278   3.814  11.702  0.00  0.00    +0.000 A 
ATOM     15  N   UNL     1      43.438   2.667  11.082  0.00  0.00    +0.000 NA
ATOM     16  C   UNL     1      44.290   2.938  10.040  0.00  0.00    +0.000 A 
ATOM     17  C   UNL     1      44.762   2.080   9.034  0.00  0.00    +0.000 A 
ATOM     18  C   UNL     1      45.604   2.601   8.043  0.00  0.00    +0.000 A 
ATOM     19  C   UNL     1      45.983   3.942   8.067  0.00  0.00    +0.000 A 
ATOM     20  C   UNL     1      45.535   4.811   9.071  0.00  0.00    +0.000 A 
ATOM     21  C   UNL     1      44.679   4.277  10.045  0.00  0.00    +0.000 A 
ENDBRANCH  12  13
ENDBRANCH   4  12
TORSDOF 5
ENDMDL
MODEL 6
REMARK VINA RESULT:    -6.278      1.770      6.041
REMARK INTER + INTRA:          -8.398
REMARK INTER:                  -7.950
REMARK INTRA:                  -0.448
REMARK UNBOUND:                -0.469
REMARK  Name = 
REMARK  5 active torsions:
REMARK  status: ('A' for Active; 'I' for Inactive)
REMARK    1  A    between atoms: N_1  and  C_2
REMARK    2  A    between atoms: C_2  and  C_3
REMARK    3  A    between atoms: C_3  and  C_4
REMARK    4  A    between atoms: C_7  and  C_8
REMARK    5  A    between atoms: C_8  and  N_9
REMARK                            x       y       z     vdW  Elec       q    Type
REMARK                         _______ _______ _______ _____ _____    ______ ____
ROOT
ATOM      1  C   UNL     1      46.651   5.922  12.983  0.00  0.00    +0.000 A 
ATOM      2  C   UNL     1      46.366   6.729  11.880  0.00  0.00    +0.000 A 
ATOM      3  C   UNL     1      45.575   6.239  10.841  0.00  0.00    +0.000 A 
ATOM      4  C   UNL     1      45.081   4.940  10.926  0.00  0.00    +0.000 A 
ATOM      5  N   UNL     1      45.308   4.153  12.011  0.00  0.00    +0.000 NA
ATOM      6  C   UNL     1      46.080   4.656  13.004  0.00  0.00    +0.000 A 
ENDROOT
BRANCH   1   7
ATOM      7  C   UNL     1      47.567   6.394  14.081  0.00  0.00    +0.000 C 
BRANCH   7   8
ATOM      8  C   UNL     1      48.614   7.409  13.611  0.00  0.00    +0.000 C 
BRANCH   8   9
ATOM      9  N   UNL     1      49.665   6.749  12.837  0.00  0.00    +0.000 NA
ATOM     10  H   UNL     1      49.438   5.761  12.726  0.00  0.00    +0.000 HD
ATOM     11  H   UNL     1      50.547   6.780  13.349  0.00  0.00    +0.000 HD
ENDBRANCH   8   9
ENDBRANCH   7   8
ENDBRANCH   1   7
BRANCH   4  12
ATOM     12  C   UNL     1      44.284   4.326   9.804  0.00  0.00    +0.000 C 
BRANCH  12  13
ATOM     13  N   UNL     1      44.932   3.152   9.237  0.00  0.00    +0.000 N 
ATOM     14  C   UNL     1      44.564   1.853   9.481  0.00  0.00    +0.000 A 
ATOM     15  N   UNL     1      45.237   1.004   8.741  0.00  0.00    +0.000 NA
ATOM     16  C   UNL     1      46.054   1.780   7.956  0.00  0.00    +0.000 A 
ATOM     17  C   UNL     1      46.954   1.389   6.953  0.00  0.00    +0.000 A 
ATOM     18  C   UNL     1      47.659   2.378   6.255  0.00  0.00    +0.000 A 
ATOM     19  C   UNL     1      47.484   3.726   6.564  0.00  0.00    +0.000 A 
ATOM     20  C   UNL     1      46.601   4.137   7.572  0.00  0.00    +0.000 A 
ATOM     21  C   UNL     1      45.892   3.134   8.249  0.00  0.00    +0.000 A 
ENDBRANCH  12  13
ENDBRANCH   4  12
TORSDOF 5
ENDMDL
MODEL 7
REMARK VINA RESULT:    -5.594      4.253      6.831
REMARK INTER + INTRA:          -7.534
REMARK INTER:                  -7.061
REMARK INTRA:                  -0.473
REMARK UNBOUND:                -0.469
REMARK  Name = 
REMARK  5 active torsions:
REMARK  status: ('A' for Active; 'I' for Inactive)
REMARK    1  A    between atoms: N_1  and  C_2
REMARK    2  A    between atoms: C_2  and  C_3
REMARK    3  A    between atoms: C_3  and  C_4
REMARK    4  A    between atoms: C_7  and  C_8
REMARK    5  A    between atoms: C_8  and  N_9
REMARK                            x       y       z     vdW  Elec       q    Type
REMARK                         _______ _______ _______ _____ _____    ______ ____
ROOT
ATOM      1  C   UNL     1      46.853   5.762  12.778  0.00  0.00    +0.000 A 
ATOM      2  C   UNL     1      47.732   6.334  13.699  0.00  0.00    +0.000 A 
ATOM      3  C   UNL     1      47.890   5.762  14.961  0.00  0.00    +0.000 A 
ATOM      4  C   UNL     1      47.160   4.621  15.281  0.00  0.00    +0.000 A 
ATOM      5  N   UNL     1      46.333   4.022  14.384  0.00  0.00    +0.000 NA
ATOM      6  C   UNL     1      46.199   4.599  13.166  0.00  0.00    +0.000 A 
ENDROOT
BRANCH   1   7
ATOM      7  C   UNL     1      46.599   6.402  11.438  0.00  0.00    +0.000 C 
BRANCH   7   8
ATOM      8  C   UNL     1      45.345   5.875  10.734  0.00  0.00    +0.000 C 
BRANCH   8   9
ATOM      9  N   UNL     1      45.628   5.566   9.333  0.00  0.00    +0.000 NA
ATOM     10  H   UNL     1      46.123   4.676   9.273  0.00  0.00    +0.000 HD
ATOM     11  H   UNL     1      46.258   6.266   8.942  0.00  0.00    +0.000 HD
ENDBRANCH   8   9
ENDBRANCH   7   8
ENDBRANCH   1   7
BRANCH   4  12
ATOM     12  C   UNL     1      47.230   4.000  16.652  0.00  0.00    +0.000 C 
BRANCH  12  13
ATOM     13  N   UNL     1      48.474   3.275  16.872  0.00  0.00    +0.000 N 
ATOM     14  C   UNL     1      48.824   2.104  16.249  0.00  0.00    +0.000 A 
ATOM     15  N   UNL     1      50.052   1.741  16.540  0.00  0.00    +0.000 NA
ATOM     16  C   UNL     1      50.534   2.732  17.359  0.00  0.00    +0.000 A 
ATOM     17  C   UNL     1      51.810   2.869  17.928  0.00  0.00    +0.000 A 
ATOM     18  C   UNL     1      52.082   4.000  18.709  0.00  0.00    +0.000 A 
ATOM     19  C   UNL     1      51.098   4.962  18.932  0.00  0.00    +0.000 A 
ATOM     20  C   UNL     1      49.815   4.836  18.385  0.00  0.00    +0.000 A 
ATOM     21  C   UNL     1      49.565   3.706  17.592  0.00  0.00    +0.000 A 
ENDBRANCH  12  13
ENDBRANCH   4  12
TORSDOF 5
ENDMDL
MODEL 8
REMARK VINA RESULT:    -5.579      2.189      3.301
REMARK INTER + INTRA:          -7.516
REMARK INTER:                  -7.266
REMARK INTRA:                  -0.250
REMARK UNBOUND:                -0.469
REMARK  Name = 
REMARK  5 active torsions:
REMARK  status: ('A' for Active; 'I' for Inactive)
REMARK    1  A    between atoms: N_1  and  C_2
REMARK    2  A    between atoms: C_2  and  C_3
REMARK    3  A    between atoms: C_3  and  C_4
REMARK    4  A    between atoms: C_7  and  C_8
REMARK    5  A    between atoms: C_8  and  N_9
REMARK                            x       y       z     vdW  Elec       q    Type
REMARK                         _______ _______ _______ _____ _____    ______ ____
ROOT
ATOM      1  C   UNL     1      44.784   3.302   9.725  0.00  0.00    +0.000 A 
ATOM      2  C   UNL     1      44.342   2.937  10.999  0.00  0.00    +0.000 A 
ATOM      3  C   UNL     1      44.396   3.855  12.047  0.00  0.00    +0.000 A 
ATOM      4  C   UNL     1      44.897   5.130  11.800  0.00  0.00    +0.000 A 
ATOM      5  N   UNL     1      45.290   5.521  10.559  0.00  0.00    +0.000 NA
ATOM      6  C   UNL     1      45.226   4.608   9.561  0.00  0.00    +0.000 A 
ENDROOT
BRANCH   1   7
ATOM      7  C   UNL     1      44.813   2.308   8.594  0.00  0.00    +0.000 C 
BRANCH   7   8
ATOM      8  C   UNL     1      46.223   2.021   8.067  0.00  0.00    +0.000 C 
BRANCH   8   9
ATOM      9  N   UNL     1      46.471   0.581   8.008  0.00  0.00    +0.000 NA
ATOM     10  H   UNL     1      46.919   0.347   7.122  0.00  0.00    +0.000 HD
ATOM     11  H   UNL     1      45.586   0.074   8.019  0.00  0.00    +0.000 HD
ENDBRANCH   8   9
ENDBRANCH   7   8
ENDBRANCH   1   7
BRANCH   4  12
ATOM     12  C   UNL     1      45.051   6.142  12.905  0.00  0.00    +0.000 C 
BRANCH  12  13
ATOM     13  N   UNL     1      45.742   7.347  12.466  0.00  0.00    +0.000 N 
ATOM     14  C   UNL     1      45.140   8.556  12.224  0.00  0.00    +0.000 A 
ATOM     15  N   UNL     1      46.018   9.497  11.965  0.00  0.00    +0.000 NA
ATOM     16  C   UNL     1      47.243   8.887  12.076  0.00  0.00    +0.000 A 
ATOM     17  C   UNL     1      48.526   9.441  11.943  0.00  0.00    +0.000 A 
ATOM     18  C   UNL     1      49.641   8.617  12.140  0.00  0.00    +0.000 A 
ATOM     19  C   UNL     1      49.480   7.266  12.444  0.00  0.00    +0.000 A 
ATOM     20  C   UNL     1      48.209   6.690  12.567  0.00  0.00    +0.000 A 
ATOM     21  C   UNL     1      47.103   7.534  12.383  0.00  0.00    +0.000 A 
ENDBRANCH  12  13
ENDBRANCH   4  12
TORSDOF 5
ENDMDL
MODEL 9
REMARK VINA RESULT:    -5.330      3.819      7.700
REMARK INTER + INTRA:          -7.201
REMARK INTER:                  -6.893
REMARK INTRA:                  -0.308
REMARK UNBOUND:                -0.469
REMARK  Name = 
REMARK  5 active torsions:
REMARK  status: ('A' for Active; 'I' for Inactive)
REMARK    1  A    between atoms: N_1  and  C_2
REMARK    2  A    between atoms: C_2  and  C_3
REMARK    3  A    between atoms: C_3  and  C_4
REMARK    4  A    between atoms: C_7  and  C_8
REMARK    5  A    between atoms: C_8  and  N_9
REMARK                            x       y       z     vdW  Elec       q    Type
REMARK                         _______ _______ _______ _____ _____    ______ ____
ROOT
ATOM      1  C   UNL     1      48.324   5.495  17.095  0.00  0.00    +0.000 A 
ATOM      2  C   UNL     1      48.721   6.687  16.486  0.00  0.00    +0.000 A 
ATOM      3  C   UNL     1      48.521   6.874  15.119  0.00  0.00    +0.000 A 
ATOM      4  C   UNL     1      47.925   5.856  14.380  0.00  0.00    +0.000 A 
ATOM      5  N   UNL     1      47.490   4.707  14.960  0.00  0.00    +0.000 NA
ATOM      6  C   UNL     1      47.697   4.553  16.289  0.00  0.00    +0.000 A 
ENDROOT
BRANCH   1   7
ATOM      7  C   UNL     1      48.600   5.232  18.552  0.00  0.00    +0.000 C 
BRANCH   7   8
ATOM      8  C   UNL     1      48.447   3.760  18.949  0.00  0.00    +0.000 C 
BRANCH   8   9
ATOM      9  N   UNL     1      48.528   3.604  20.401  0.00  0.00    +0.000 NA
ATOM     10  H   UNL     1      49.506   3.551  20.685  0.00  0.00    +0.000 HD
ATOM     11  H   UNL     1      48.106   2.718  20.680  0.00  0.00    +0.000 HD
ENDBRANCH   8   9
ENDBRANCH   7   8
ENDBRANCH   1   7
BRANCH   4  12
ATOM     12  C   UNL     1      47.749   5.966  12.888  0.00  0.00    +0.000 C 
BRANCH  12  13
ATOM     13  N   UNL     1      46.367   6.221  12.506  0.00  0.00    +0.000 N 
ATOM     14  C   UNL     1      45.859   7.446  12.156  0.00  0.00    +0.000 A 
ATOM     15  N   UNL     1      44.617   7.360  11.737  0.00  0.00    +0.000 NA
ATOM     16  C   UNL     1      44.315   6.022  11.781  0.00  0.00    +0.000 A 
ATOM     17  C   UNL     1      43.133   5.366  11.399  0.00  0.00    +0.000 A 
ATOM     18  C   UNL     1      43.072   3.971  11.503  0.00  0.00    +0.000 A 
ATOM     19  C   UNL     1      44.158   3.247  11.994  0.00  0.00    +0.000 A 
ATOM     20  C   UNL     1      45.341   3.884  12.393  0.00  0.00    +0.000 A 
ATOM     21  C   UNL     1      45.391   5.280  12.267  0.00  0.00    +0.000 A 
ENDBRANCH  12  13
ENDBRANCH   4  12
TORSDOF 5
ENDMDL
