MODEL 1
REMARK VINA RESULT:    -8.287      0.000      0.000
REMARK INTER + INTRA:         -14.275
REMARK INTER:                 -12.406
REMARK INTRA:                  -1.869
REMARK UNBOUND:                -1.869
REMARK  Name = 
REMARK  9 active torsions:
REMARK  status: ('A' for Active; 'I' for Inactive)
REMARK    1  A    between atoms: N_1  and  C_2
REMARK    2  A    between atoms: C_2  and  C_3
REMARK    3  A    between atoms: C_3  and  O_4
REMARK    4  A    between atoms: O_4  and  C_5
REMARK    5  A    between atoms: C_7  and  C_8
REMARK    6  A    between atoms: C_8  and  N_9
REMARK    7  A    between atoms: C_10  and  C_12
REMARK    8  A    between atoms: C_24  and  C_25
REMARK    9  A    between atoms: C_25  and  N_26
REMARK                            x       y       z     vdW  Elec       q    Type
REMARK                         _______ _______ _______ _____ _____    ______ ____
ROOT
ATOM      1  C   UNL     1      44.328   5.774  11.655  0.00  0.00    +0.000 A 
ATOM      2  C   UNL     1      44.941   6.690  12.515  0.00  0.00    +0.000 A 
ATOM      3  C   UNL     1      46.162   7.256  12.164  0.00  0.00    +0.000 A 
ATOM      4  N   UNL     1      46.800   6.933  11.015  0.00  0.00    +0.000 NA
ATOM      5  C   UNL     1      46.186   6.047  10.193  0.00  0.00    +0.000 A 
ATOM      6  C   UNL     1      44.961   5.435  10.452  0.00  0.00    +0.000 A 
ENDROOT
BRANCH   1   7
ATOM      7  O   UNL     1      43.128   5.160  11.924  0.00  0.00    +0.000 OA
BRANCH   7   8
ATOM      8  C   UNL     1      43.077   4.362  13.111  0.00  0.00    +0.000 C 
BRANCH   8   9
ATOM      9  C   UNL     1      43.651   2.972  12.825  0.00  0.00    +0.000 C 
BRANCH   9  10
ATOM     10  N   UNL     1      42.975   2.337  11.692  0.00  0.00    +0.000 NA
ATOM     11  H   UNL     1      42.480   3.049  11.155  0.00  0.00    +0.000 HD
ATOM     12  H   UNL     1      42.260   1.695  12.034  0.00  0.00    +0.000 HD
ENDBRANCH   9  10
ENDBRANCH   8   9
ENDBRANCH   7   8
ENDBRANCH   1   7
BRANCH   3  13
ATOM     13  C   UNL     1      46.845   8.206  13.125  0.00  0.00    +0.000 C 
BRANCH  13  14
ATOM     14  N   UNL     1      47.338   7.497  14.287  0.00  0.00    +0.000 N 
ATOM     15  C   UNL     1      48.571   6.902  14.328  0.00  0.00    +0.000 C 
ATOM     16  O   UNL     1      49.367   6.990  13.397  0.00  0.00    +0.000 OA
ATOM     17  H   UNL     1      46.629   7.241  14.968  0.00  0.00    +0.000 HD
BRANCH  15  18
ATOM     18  C   UNL     1      48.926   6.210  15.574  0.00  0.00    +0.000 A 
ATOM     19  C   UNL     1      50.025   6.632  16.309  0.00  0.00    +0.000 A 
ATOM     20  S   UNL     1      50.266   5.754  17.751  0.00  0.00    +0.000 S 
ATOM     21  C   UNL     1      48.940   4.743  17.421  0.00  0.00    +0.000 A 
ATOM     22  N   UNL     1      48.599   3.735  18.271  0.00  0.00    +0.000 NA
ATOM     23  C   UNL     1      47.589   3.030  17.884  0.00  0.00    +0.000 A 
ATOM     24  N   UNL     1      46.885   3.243  16.728  0.00  0.00    +0.000 N 
ATOM     25  C   UNL     1      47.177   4.263  15.854  0.00  0.00    +0.000 A 
ATOM     26  O   UNL     1      46.504   4.448  14.846  0.00  0.00    +0.000 OA
ATOM     27  C   UNL     1      48.310   5.082  16.236  0.00  0.00    +0.000 A 
ATOM     28  H   UNL     1      46.100   2.659  16.482  0.00  0.00    +0.000 HD
ENDBRANCH  15  18
ENDBRANCH  13  14
ENDBRANCH   3  13
BRANCH   6  29
ATOM     29  C   UNL     1      44.379   4.467   9.448  0.00  0.00    +0.000 C 
BRANCH  29  30
ATOM     30  N   UNL     1      44.954   3.151   9.632  0.00  0.00    +0.000 N 
ATOM     31  C   UNL     1      45.745   2.655   8.614  0.00  0.00    +0.000 A 
ATOM     32  N   UNL     1      46.409   3.481   7.791  0.00  0.00    +0.000 NA
ATOM     33  C   UNL     1      47.226   2.924   6.873  0.00  0.00    +0.000 A 
ATOM     34  C   UNL     1      47.394   1.575   6.737  0.00  0.00    +0.000 A 
ATOM     35  C   UNL     1      46.648   0.829   7.607  0.00  0.00    +0.000 A 
ATOM     36 CL   UNL     1      46.727  -0.889   7.573  0.00  0.00    +0.000 Cl
ATOM     37  N   UNL     1      45.817   1.325   8.538  0.00  0.00    +0.000 NA
ATOM     38  H   UNL     1      44.330   2.414   9.935  0.00  0.00    +0.000 HD
ENDBRANCH  29  30
ENDBRANCH   6  29
TORSDOF 9
ENDMDL
MODEL 2
REMARK VINA RESULT:    -7.552      1.940      2.739
REMARK INTER + INTRA:         -13.174
REMARK INTER:                 -11.575
REMARK INTRA:                  -1.599
REMARK UNBOUND:                -1.869
REMARK  Name = 
REMARK  9 active torsions:
REMARK  status: ('A' for Active; 'I' for Inactive)
REMARK    1  A    between atoms: N_1  and  C_2
REMARK    2  A    between atoms: C_2  and  C_3
REMARK    3  A    between atoms: C_3  and  O_4
REMARK    4  A    between atoms: O_4  and  C_5
REMARK    5  A    between atoms: C_7  and  C_8
REMARK    6  A    between atoms: C_8  and  N_9
REMARK    7  A    between atoms: C_10  and  C_12
REMARK    8  A    between atoms: C_24  and  C_25
REMARK    9  A    between atoms: C_25  and  N_26
REMARK                            x       y       z     vdW  Elec       q    Type
REMARK                         _______ _______ _______ _____ _____    ______ ____
ROOT
ATOM      1  C   UNL     1      45.254   5.244  12.735  0.00  0.00    +0.000 A 
ATOM      2  C   UNL     1      45.863   6.432  13.153  0.00  0.00    +0.000 A 
ATOM      3  C   UNL     1      45.594   7.619  12.480  0.00  0.00    +0.000 A 
ATOM      4  N   UNL     1      44.770   7.667  11.407  0.00  0.00    +0.000 NA
ATOM      5  C   UNL     1      44.185   6.505  11.022  0.00  0.00    +0.000 A 
ATOM      6  C   UNL     1      44.384   5.271  11.636  0.00  0.00    +0.000 A 
ENDROOT
BRANCH   1   7
ATOM      7  O   UNL     1      45.467   4.025  13.334  0.00  0.00    +0.000 OA
BRANCH   7   8
ATOM      8  C   UNL     1      46.824   3.713  13.667  0.00  0.00    +0.000 C 
BRANCH   8   9
ATOM      9  C   UNL     1      46.990   3.688  15.188  0.00  0.00    +0.000 C 
BRANCH   9  10
ATOM     10  N   UNL     1      48.205   2.971  15.581  0.00  0.00    +0.000 NA
ATOM     11  H   UNL     1      49.003   3.366  15.086  0.00  0.00    +0.000 HD
ATOM     12  H   UNL     1      48.141   1.998  15.281  0.00  0.00    +0.000 HD
ENDBRANCH   9  10
ENDBRANCH   8   9
ENDBRANCH   7   8
ENDBRANCH   1   7
BRANCH   3  13
ATOM     13  C   UNL     1      46.298   8.891  12.905  0.00  0.00    +0.000 C 
BRANCH  13  14
ATOM     14  N   UNL     1      46.788   8.777  14.262  0.00  0.00    +0.000 N 
ATOM     15  C   UNL     1      48.083   9.055  14.611  0.00  0.00    +0.000 C 
ATOM     16  O   UNL     1      48.899   9.482  13.798  0.00  0.00    +0.000 OA
ATOM     17  H   UNL     1      46.199   8.238  14.889  0.00  0.00    +0.000 HD
BRANCH  15  18
ATOM     18  C   UNL     1      48.434   8.884  16.027  0.00  0.00    +0.000 A 
ATOM     19  C   UNL     1      48.319   9.956  16.901  0.00  0.00    +0.000 A 
ATOM     20  S   UNL     1      48.718   9.572  18.515  0.00  0.00    +0.000 S 
ATOM     21  C   UNL     1      49.109   7.971  18.095  0.00  0.00    +0.000 A 
ATOM     22  N   UNL     1      49.551   7.090  19.035  0.00  0.00    +0.000 NA
ATOM     23  C   UNL     1      49.836   5.918  18.573  0.00  0.00    +0.000 A 
ATOM     24  N   UNL     1      49.713   5.545  17.260  0.00  0.00    +0.000 N 
ATOM     25  C   UNL     1      49.246   6.393  16.284  0.00  0.00    +0.000 A 
ATOM     26  O   UNL     1      49.115   6.015  15.125  0.00  0.00    +0.000 OA
ATOM     27  C   UNL     1      48.919   7.727  16.746  0.00  0.00    +0.000 A 
ATOM     28  H   UNL     1      49.947   4.611  16.961  0.00  0.00    +0.000 HD
ENDBRANCH  15  18
ENDBRANCH  13  14
ENDBRANCH   3  13
BRANCH   6  29
ATOM     29  C   UNL     1      43.667   4.048  11.113  0.00  0.00    +0.000 C 
BRANCH  29  30
ATOM     30  N   UNL     1      44.615   2.985  10.855  0.00  0.00    +0.000 N 
ATOM     31  C   UNL     1      45.182   2.930   9.597  0.00  0.00    +0.000 A 
ATOM     32  N   UNL     1      45.321   4.039   8.853  0.00  0.00    +0.000 NA
ATOM     33  C   UNL     1      45.958   3.921   7.670  0.00  0.00    +0.000 A 
ATOM     34  C   UNL     1      46.451   2.739   7.196  0.00  0.00    +0.000 A 
ATOM     35  C   UNL     1      46.229   1.671   8.021  0.00  0.00    +0.000 A 
ATOM     36 CL   UNL     1      46.772   0.100   7.580  0.00  0.00    +0.000 Cl
ATOM     37  N   UNL     1      45.599   1.725   9.206  0.00  0.00    +0.000 NA
ATOM     38  H   UNL     1      44.338   2.048  11.117  0.00  0.00    +0.000 HD
ENDBRANCH  29  30
ENDBRANCH   6  29
TORSDOF 9
ENDMDL
MODEL 3
REMARK VINA RESULT:    -7.462      2.716      3.535
REMARK INTER + INTRA:         -13.039
REMARK INTER:                 -11.652
REMARK INTRA:                  -1.387
REMARK UNBOUND:                -1.869
REMARK  Name = 
REMARK  9 active torsions:
REMARK  status: ('A' for Active; 'I' for Inactive)
REMARK    1  A    between atoms: N_1  and  C_2
REMARK    2  A    between atoms: C_2  and  C_3
REMARK    3  A    between atoms: C_3  and  O_4
REMARK    4  A    between atoms: O_4  and  C_5
REMARK    5  A    between atoms: C_7  and  C_8
REMARK    6  A    between atoms: C_8  and  N_9
REMARK    7  A    between atoms: C_10  and  C_12
REMARK    8  A    between atoms: C_24  and  C_25
REMARK    9  A    between atoms: C_25  and  N_26
REMARK                            x       y       z     vdW  Elec       q    Type
REMARK                         _______ _______ _______ _____ _____    ______ ____
ROOT
ATOM      1  C   UNL     1      44.861   7.125  11.846  0.00  0.00    +0.000 A 
ATOM      2  C   UNL     1      45.934   7.689  12.543  0.00  0.00    +0.000 A 
ATOM      3  C   UNL     1      46.861   6.863  13.170  0.00  0.00    +0.000 A 
ATOM      4  N   UNL     1      46.752   5.515  13.149  0.00  0.00    +0.000 NA
ATOM      5  C   UNL     1      45.708   4.988  12.463  0.00  0.00    +0.000 A 
ATOM      6  C   UNL     1      44.735   5.730  11.796  0.00  0.00    +0.000 A 
ENDROOT
BRANCH   1   7
ATOM      7  O   UNL     1      43.895   7.863  11.205  0.00  0.00    +0.000 OA
BRANCH   7   8
ATOM      8  C   UNL     1      44.153   9.264  11.071  0.00  0.00    +0.000 C 
BRANCH   8   9
ATOM      9  C   UNL     1      42.912   9.969  10.519  0.00  0.00    +0.000 C 
BRANCH   9  10
ATOM     10  N   UNL     1      41.682   9.388  11.060  0.00  0.00    +0.000 NA
ATOM     11  H   UNL     1      41.891   8.475  11.461  0.00  0.00    +0.000 HD
ATOM     12  H   UNL     1      41.020   9.218  10.302  0.00  0.00    +0.000 HD
ENDBRANCH   9  10
ENDBRANCH   8   9
ENDBRANCH   7   8
ENDBRANCH   1   7
BRANCH   3  13
ATOM     13  C   UNL     1      47.990   7.483  13.967  0.00  0.00    +0.000 C 
BRANCH  13  14
ATOM     14  N   UNL     1      47.982   6.998  15.331  0.00  0.00    +0.000 N 
ATOM     15  C   UNL     1      49.113   6.573  15.975  0.00  0.00    +0.000 C 
ATOM     16  O   UNL     1      50.223   6.638  15.454  0.00  0.00    +0.000 OA
ATOM     17  H   UNL     1      47.067   6.746  15.693  0.00  0.00    +0.000 HD
BRANCH  15  18
ATOM     18  C   UNL     1      48.945   6.098  17.356  0.00  0.00    +0.000 A 
ATOM     19  C   UNL     1      49.300   4.798  17.687  0.00  0.00    +0.000 A 
ATOM     20  S   UNL     1      49.088   4.428  19.338  0.00  0.00    +0.000 S 
ATOM     21  C   UNL     1      48.465   5.976  19.662  0.00  0.00    +0.000 A 
ATOM     22  N   UNL     1      48.060   6.320  20.916  0.00  0.00    +0.000 NA
ATOM     23  C   UNL     1      47.584   7.516  21.013  0.00  0.00    +0.000 A 
ATOM     24  N   UNL     1      47.481   8.403  19.973  0.00  0.00    +0.000 N 
ATOM     25  C   UNL     1      47.900   8.108  18.697  0.00  0.00    +0.000 A 
ATOM     26  O   UNL     1      47.827   8.937  17.798  0.00  0.00    +0.000 OA
ATOM     27  C   UNL     1      48.437   6.772  18.529  0.00  0.00    +0.000 A 
ATOM     28  H   UNL     1      47.103   9.327  20.114  0.00  0.00    +0.000 HD
ENDBRANCH  15  18
ENDBRANCH  13  14
ENDBRANCH   3  13
BRANCH   6  29
ATOM     29  C   UNL     1      43.622   5.021  11.061  0.00  0.00    +0.000 C 
BRANCH  29  30
ATOM     30  N   UNL     1      43.888   5.014   9.638  0.00  0.00    +0.000 N 
ATOM     31  C   UNL     1      44.624   3.961   9.133  0.00  0.00    +0.000 A 
ATOM     32  N   UNL     1      44.622   2.763   9.739  0.00  0.00    +0.000 NA
ATOM     33  C   UNL     1      45.299   1.760   9.143  0.00  0.00    +0.000 A 
ATOM     34  C   UNL     1      45.989   1.910   7.974  0.00  0.00    +0.000 A 
ATOM     35  C   UNL     1      45.947   3.177   7.460  0.00  0.00    +0.000 A 
ATOM     36 CL   UNL     1      46.768   3.552   5.995  0.00  0.00    +0.000 Cl
ATOM     37  N   UNL     1      45.294   4.215   8.008  0.00  0.00    +0.000 NA
ATOM     38  H   UNL     1      44.242   5.870   9.232  0.00  0.00    +0.000 HD
ENDBRANCH  29  30
ENDBRANCH   6  29
TORSDOF 9
ENDMDL
MODEL 4
REMARK VINA RESULT:    -7.431      2.070      2.781
REMARK INTER + INTRA:         -12.993
REMARK INTER:                 -11.635
REMARK INTRA:                  -1.358
REMARK UNBOUND:                -1.869
REMARK  Name = 
REMARK  9 active torsions:
REMARK  status: ('A' for Active; 'I' for Inactive)
REMARK    1  A    between atoms: N_1  and  C_2
REMARK    2  A    between atoms: C_2  and  C_3
REMARK    3  A    between atoms: C_3  and  O_4
REMARK    4  A    between atoms: O_4  and  C_5
REMARK    5  A    between atoms: C_7  and  C_8
REMARK    6  A    between atoms: C_8  and  N_9
REMARK    7  A    between atoms: C_10  and  C_12
REMARK    8  A    between atoms: C_24  and  C_25
REMARK    9  A    between atoms: C_25  and  N_26
REMARK                            x       y       z     vdW  Elec       q    Type
REMARK                         _______ _______ _______ _____ _____    ______ ____
ROOT
ATOM      1  C   UNL     1      44.808   7.270  11.718  0.00  0.00    +0.000 A 
ATOM      2  C   UNL     1      45.851   7.951  12.353  0.00  0.00    +0.000 A 
ATOM      3  C   UNL     1      46.909   7.234  12.904  0.00  0.00    +0.000 A 
ATOM      4  N   UNL     1      46.956   5.882  12.867  0.00  0.00    +0.000 NA
ATOM      5  C   UNL     1      45.938   5.242  12.242  0.00  0.00    +0.000 A 
ATOM      6  C   UNL     1      44.843   5.870  11.653  0.00  0.00    +0.000 A 
ENDROOT
BRANCH   1   7
ATOM      7  O   UNL     1      43.721   7.895  11.153  0.00  0.00    +0.000 OA
BRANCH   7   8
ATOM      8  C   UNL     1      43.802   9.318  11.032  0.00  0.00    +0.000 C 
BRANCH   8   9
ATOM      9  C   UNL     1      42.524   9.856  10.384  0.00  0.00    +0.000 C 
BRANCH   9  10
ATOM     10  N   UNL     1      41.334   9.460  11.139  0.00  0.00    +0.000 NA
ATOM     11  H   UNL     1      41.378   8.461  11.335  0.00  0.00    +0.000 HD
ATOM     12  H   UNL     1      40.502   9.599  10.566  0.00  0.00    +0.000 HD
ENDBRANCH   9  10
ENDBRANCH   8   9
ENDBRANCH   7   8
ENDBRANCH   1   7
BRANCH   3  13
ATOM     13  C   UNL     1      48.007   7.975  13.636  0.00  0.00    +0.000 C 
BRANCH  13  14
ATOM     14  N   UNL     1      48.239   7.392  14.941  0.00  0.00    +0.000 N 
ATOM     15  C   UNL     1      49.489   7.082  15.406  0.00  0.00    +0.000 C 
ATOM     16  O   UNL     1      50.504   7.341  14.766  0.00  0.00    +0.000 OA
ATOM     17  H   UNL     1      47.418   6.989  15.384  0.00  0.00    +0.000 HD
BRANCH  15  18
ATOM     18  C   UNL     1      49.563   6.487  16.747  0.00  0.00    +0.000 A 
ATOM     19  C   UNL     1      50.308   7.109  17.739  0.00  0.00    +0.000 A 
ATOM     20  S   UNL     1      50.246   6.314  19.246  0.00  0.00    +0.000 S 
ATOM     21  C   UNL     1      49.261   5.079  18.616  0.00  0.00    +0.000 A 
ATOM     22  N   UNL     1      48.849   4.044  19.399  0.00  0.00    +0.000 NA
ATOM     23  C   UNL     1      48.130   3.165  18.785  0.00  0.00    +0.000 A 
ATOM     24  N   UNL     1      47.779   3.230  17.461  0.00  0.00    +0.000 N 
ATOM     25  C   UNL     1      48.150   4.268  16.641  0.00  0.00    +0.000 A 
ATOM     26  O   UNL     1      47.788   4.313  15.471  0.00  0.00    +0.000 OA
ATOM     27  C   UNL     1      48.968   5.281  17.278  0.00  0.00    +0.000 A 
ATOM     28  H   UNL     1      47.209   2.512  17.039  0.00  0.00    +0.000 HD
ENDBRANCH  15  18
ENDBRANCH  13  14
ENDBRANCH   3  13
BRANCH   6  29
ATOM     29  C   UNL     1      43.774   5.041  10.980  0.00  0.00    +0.000 C 
BRANCH  29  30
ATOM     30  N   UNL     1      44.001   4.999   9.550  0.00  0.00    +0.000 N 
ATOM     31  C   UNL     1      44.732   3.938   9.054  0.00  0.00    +0.000 A 
ATOM     32  N   UNL     1      44.757   2.757   9.692  0.00  0.00    +0.000 NA
ATOM     33  C   UNL     1      45.427   1.745   9.104  0.00  0.00    +0.000 A 
ATOM     34  C   UNL     1      46.083   1.868   7.912  0.00  0.00    +0.000 A 
ATOM     35  C   UNL     1      46.016   3.120   7.366  0.00  0.00    +0.000 A 
ATOM     36 CL   UNL     1      46.793   3.462   5.870  0.00  0.00    +0.000 Cl
ATOM     37  N   UNL     1      45.369   4.167   7.904  0.00  0.00    +0.000 NA
ATOM     38  H   UNL     1      44.336   5.846   9.112  0.00  0.00    +0.000 HD
ENDBRANCH  29  30
ENDBRANCH   6  29
TORSDOF 9
ENDMDL
MODEL 5
REMARK VINA RESULT:    -7.286      2.853      4.278
REMARK INTER + INTRA:         -12.776
REMARK INTER:                 -11.482
REMARK INTRA:                  -1.294
REMARK UNBOUND:                -1.869
REMARK  Name = 
REMARK  9 active torsions:
REMARK  status: ('A' for Active; 'I' for Inactive)
REMARK    1  A    between atoms: N_1  and  C_2
REMARK    2  A    between atoms: C_2  and  C_3
REMARK    3  A    between atoms: C_3  and  O_4
REMARK    4  A    between atoms: O_4  and  C_5
REMARK    5  A    between atoms: C_7  and  C_8
REMARK    6  A    between atoms: C_8  and  N_9
REMARK    7  A    between atoms: C_10  and  C_12
REMARK    8  A    between atoms: C_24  and  C_25
REMARK    9  A    between atoms: C_25  and  N_26
REMARK                            x       y       z     vdW  Elec       q    Type
REMARK                         _______ _______ _______ _____ _____    ______ ____
ROOT
ATOM      1  C   UNL     1      45.403   6.138  12.374  0.00  0.00    +0.000 A 
ATOM      2  C   UNL     1      46.484   6.004  13.251  0.00  0.00    +0.000 A 
ATOM      3  C   UNL     1      46.684   4.801  13.922  0.00  0.00    +0.000 A 
ATOM      4  N   UNL     1      45.848   3.747  13.772  0.00  0.00    +0.000 NA
ATOM      5  C   UNL     1      44.810   3.897  12.913  0.00  0.00    +0.000 A 
ATOM      6  C   UNL     1      44.533   5.055  12.190  0.00  0.00    +0.000 A 
ENDROOT
BRANCH   1   7
ATOM      7  O   UNL     1      45.124   7.289  11.677  0.00  0.00    +0.000 OA
BRANCH   7   8
ATOM      8  C   UNL     1      45.752   8.485  12.153  0.00  0.00    +0.000 C 
BRANCH   8   9
ATOM      9  C   UNL     1      45.042   9.709  11.570  0.00  0.00    +0.000 C 
BRANCH   9  10
ATOM     10  N   UNL     1      44.047  10.244  12.503  0.00  0.00    +0.000 NA
ATOM     11  H   UNL     1      44.003   9.644  13.326  0.00  0.00    +0.000 HD
ATOM     12  H   UNL     1      43.122  10.206  12.076  0.00  0.00    +0.000 HD
ENDBRANCH   9  10
ENDBRANCH   8   9
ENDBRANCH   7   8
ENDBRANCH   1   7
BRANCH   3  13
ATOM     13  C   UNL     1      47.825   4.682  14.910  0.00  0.00    +0.000 C 
BRANCH  13  14
ATOM     14  N   UNL     1      47.689   5.656  15.972  0.00  0.00    +0.000 N 
ATOM     15  C   UNL     1      48.729   6.020  16.786  0.00  0.00    +0.000 C 
ATOM     16  O   UNL     1      49.866   5.587  16.621  0.00  0.00    +0.000 OA
ATOM     17  H   UNL     1      46.733   5.860  16.249  0.00  0.00    +0.000 HD
BRANCH  15  18
ATOM     18  C   UNL     1      48.433   7.014  17.827  0.00  0.00    +0.000 A 
ATOM     19  C   UNL     1      48.347   6.618  19.154  0.00  0.00    +0.000 A 
ATOM     20  S   UNL     1      48.048   7.902  20.236  0.00  0.00    +0.000 S 
ATOM     21  C   UNL     1      47.972   9.028  18.964  0.00  0.00    +0.000 A 
ATOM     22  N   UNL     1      47.719  10.344  19.208  0.00  0.00    +0.000 NA
ATOM     23  C   UNL     1      47.663  11.081  18.149  0.00  0.00    +0.000 A 
ATOM     24  N   UNL     1      47.842  10.624  16.869  0.00  0.00    +0.000 N 
ATOM     25  C   UNL     1      48.124   9.310  16.578  0.00  0.00    +0.000 A 
ATOM     26  O   UNL     1      48.314   8.943  15.425  0.00  0.00    +0.000 OA
ATOM     27  C   UNL     1      48.190   8.435  17.732  0.00  0.00    +0.000 A 
ATOM     28  H   UNL     1      47.790  11.252  16.082  0.00  0.00    +0.000 HD
ENDBRANCH  15  18
ENDBRANCH  13  14
ENDBRANCH   3  13
BRANCH   6  29
ATOM     29  C   UNL     1      43.344   5.092  11.258  0.00  0.00    +0.000 C 
BRANCH  29  30
ATOM     30  N   UNL     1      43.790   5.190   9.884  0.00  0.00    +0.000 N 
ATOM     31  C   UNL     1      44.411   4.085   9.335  0.00  0.00    +0.000 A 
ATOM     32  N   UNL     1      44.139   2.848   9.781  0.00  0.00    +0.000 NA
ATOM     33  C   UNL     1      44.722   1.813   9.143  0.00  0.00    +0.000 A 
ATOM     34  C   UNL     1      45.574   1.965   8.086  0.00  0.00    +0.000 A 
ATOM     35  C   UNL     1      45.801   3.267   7.734  0.00  0.00    +0.000 A 
ATOM     36 CL   UNL     1      46.856   3.647   6.430  0.00  0.00    +0.000 Cl
ATOM     37  N   UNL     1      45.254   4.338   8.333  0.00  0.00    +0.000 NA
ATOM     38  H   UNL     1      44.325   6.011   9.631  0.00  0.00    +0.000 HD
ENDBRANCH  29  30
ENDBRANCH   6  29
TORSDOF 9
ENDMDL
MODEL 6
REMARK VINA RESULT:    -7.155      3.697      7.946
REMARK INTER + INTRA:         -12.579
REMARK INTER:                 -10.894
REMARK INTRA:                  -1.686
REMARK UNBOUND:                -1.869
REMARK  Name = 
REMARK  9 active torsions:
REMARK  status: ('A' for Active; 'I' for Inactive)
REMARK    1  A    between atoms: N_1  and  C_2
REMARK    2  A    between atoms: C_2  and  C_3
REMARK    3  A    between atoms: C_3  and  O_4
REMARK    4  A    between atoms: O_4  and  C_5
REMARK    5  A    between atoms: C_7  and  C_8
REMARK    6  A    between atoms: C_8  and  N_9
REMARK    7  A    between atoms: C_10  and  C_12
REMARK    8  A    between atoms: C_24  and  C_25
REMARK    9  A    between atoms: C_25  and  N_26
REMARK                            x       y       z     vdW  Elec       q    Type
REMARK                         _______ _______ _______ _____ _____    ______ ____
ROOT
ATOM      1  C   UNL     1      48.635   5.972  15.983  0.00  0.00    +0.000 A 
ATOM      2  C   UNL     1      48.149   6.408  14.747  0.00  0.00    +0.000 A 
ATOM      3  C   UNL     1      48.945   7.211  13.936  0.00  0.00    +0.000 A 
ATOM      4  N   UNL     1      50.182   7.609  14.312  0.00  0.00    +0.000 NA
ATOM      5  C   UNL     1      50.637   7.170  15.512  0.00  0.00    +0.000 A 
ATOM      6  C   UNL     1      49.920   6.358  16.388  0.00  0.00    +0.000 A 
ENDROOT
BRANCH   1   7
ATOM      7  O   UNL     1      47.916   5.184  16.851  0.00  0.00    +0.000 OA
BRANCH   7   8
ATOM      8  C   UNL     1      47.430   3.945  16.326  0.00  0.00    +0.000 C 
BRANCH   8   9
ATOM      9  C   UNL     1      47.130   2.978  17.474  0.00  0.00    +0.000 C 
BRANCH   9  10
ATOM     10  N   UNL     1      47.877   3.336  18.682  0.00  0.00    +0.000 NA
ATOM     11  H   UNL     1      48.821   3.619  18.421  0.00  0.00    +0.000 HD
ATOM     12  H   UNL     1      47.984   2.513  19.275  0.00  0.00    +0.000 HD
ENDBRANCH   9  10
ENDBRANCH   8   9
ENDBRANCH   7   8
ENDBRANCH   1   7
BRANCH   3  13
ATOM     13  C   UNL     1      48.391   7.723  12.623  0.00  0.00    +0.000 C 
BRANCH  13  14
ATOM     14  N   UNL     1      47.623   6.695  11.953  0.00  0.00    +0.000 N 
ATOM     15  C   UNL     1      46.309   6.857  11.603  0.00  0.00    +0.000 C 
ATOM     16  O   UNL     1      45.714   7.917  11.780  0.00  0.00    +0.000 OA
ATOM     17  H   UNL     1      48.027   5.764  11.988  0.00  0.00    +0.000 HD
BRANCH  15  18
ATOM     18  C   UNL     1      45.660   5.719  10.937  0.00  0.00    +0.000 A 
ATOM     19  C   UNL     1      45.766   5.573   9.561  0.00  0.00    +0.000 A 
ATOM     20  S   UNL     1      44.999   4.175   8.957  0.00  0.00    +0.000 S 
ATOM     21  C   UNL     1      44.453   3.739  10.508  0.00  0.00    +0.000 A 
ATOM     22  N   UNL     1      43.700   2.620  10.696  0.00  0.00    +0.000 NA
ATOM     23  C   UNL     1      43.332   2.425  11.917  0.00  0.00    +0.000 A 
ATOM     24  N   UNL     1      43.654   3.242  12.970  0.00  0.00    +0.000 N 
ATOM     25  C   UNL     1      44.432   4.366  12.832  0.00  0.00    +0.000 A 
ATOM     26  O   UNL     1      44.731   5.054  13.800  0.00  0.00    +0.000 OA
ATOM     27  C   UNL     1      44.866   4.638  11.476  0.00  0.00    +0.000 A 
ATOM     28  H   UNL     1      43.339   3.032  13.905  0.00  0.00    +0.000 HD
ENDBRANCH  15  18
ENDBRANCH  13  14
ENDBRANCH   3  13
BRANCH   6  29
ATOM     29  C   UNL     1      50.543   5.931  17.696  0.00  0.00    +0.000 C 
BRANCH  29  30
ATOM     30  N   UNL     1      51.803   5.259  17.455  0.00  0.00    +0.000 N 
ATOM     31  C   UNL     1      51.812   3.880  17.522  0.00  0.00    +0.000 A 
ATOM     32  N   UNL     1      50.703   3.169  17.261  0.00  0.00    +0.000 NA
ATOM     33  C   UNL     1      50.809   1.824  17.267  0.00  0.00    +0.000 A 
ATOM     34  C   UNL     1      51.974   1.163  17.534  0.00  0.00    +0.000 A 
ATOM     35  C   UNL     1      53.031   1.984  17.813  0.00  0.00    +0.000 A 
ATOM     36 CL   UNL     1      54.575   1.324  18.183  0.00  0.00    +0.000 Cl
ATOM     37  N   UNL     1      52.987   3.327  17.827  0.00  0.00    +0.000 NA
ATOM     38  H   UNL     1      52.612   5.605  17.954  0.00  0.00    +0.000 HD
ENDBRANCH  29  30
ENDBRANCH   6  29
TORSDOF 9
ENDMDL
MODEL 7
REMARK VINA RESULT:    -6.599      3.043      4.796
REMARK INTER + INTRA:         -11.747
REMARK INTER:                 -10.286
REMARK INTRA:                  -1.462
REMARK UNBOUND:                -1.869
REMARK  Name = 
REMARK  9 active torsions:
REMARK  status: ('A' for Active; 'I' for Inactive)
REMARK    1  A    between atoms: N_1  and  C_2
REMARK    2  A    between atoms: C_2  and  C_3
REMARK    3  A    between atoms: C_3  and  O_4
REMARK    4  A    between atoms: O_4  and  C_5
REMARK    5  A    between atoms: C_7  and  C_8
REMARK    6  A    between atoms: C_8  and  N_9
REMARK    7  A    between atoms: C_10  and  C_12
REMARK    8  A    between atoms: C_24  and  C_25
REMARK    9  A    between atoms: C_25  and  N_26
REMARK                            x       y       z     vdW  Elec       q    Type
REMARK                         _______ _______ _______ _____ _____    ______ ____
ROOT
ATOM      1  C   UNL     1      45.317   6.497  12.192  0.00  0.00    +0.000 A 
ATOM      2  C   UNL     1      46.377   6.643  13.093  0.00  0.00    +0.000 A 
ATOM      3  C   UNL     1      46.706   5.595  13.947  0.00  0.00    +0.000 A 
ATOM      4  N   UNL     1      46.015   4.431  13.955  0.00  0.00    +0.000 NA
ATOM      5  C   UNL     1      44.996   4.309  13.070  0.00  0.00    +0.000 A 
ATOM      6  C   UNL     1      44.598   5.295  12.170  0.00  0.00    +0.000 A 
ENDROOT
BRANCH   1   7
ATOM      7  O   UNL     1      44.918   7.481  11.318  0.00  0.00    +0.000 OA
BRANCH   7   8
ATOM      8  C   UNL     1      44.990   8.825  11.803  0.00  0.00    +0.000 C 
BRANCH   8   9
ATOM      9  C   UNL     1      43.999   9.705  11.037  0.00  0.00    +0.000 C 
BRANCH   9  10
ATOM     10  N   UNL     1      42.731   9.009  10.810  0.00  0.00    +0.000 NA
ATOM     11  H   UNL     1      42.273   8.845  11.705  0.00  0.00    +0.000 HD
ATOM     12  H   UNL     1      42.912   8.086  10.413  0.00  0.00    +0.000 HD
ENDBRANCH   9  10
ENDBRANCH   8   9
ENDBRANCH   7   8
ENDBRANCH   1   7
BRANCH   3  13
ATOM     13  C   UNL     1      47.820   5.780  14.956  0.00  0.00    +0.000 C 
BRANCH  13  14
ATOM     14  N   UNL     1      48.835   6.675  14.443  0.00  0.00    +0.000 N 
ATOM     15  C   UNL     1      48.915   7.994  14.803  0.00  0.00    +0.000 C 
ATOM     16  O   UNL     1      48.163   8.487  15.639  0.00  0.00    +0.000 OA
ATOM     17  H   UNL     1      49.320   6.346  13.613  0.00  0.00    +0.000 HD
BRANCH  15  18
ATOM     18  C   UNL     1      49.995   8.779  14.189  0.00  0.00    +0.000 A 
ATOM     19  C   UNL     1      50.581   9.819  14.898  0.00  0.00    +0.000 A 
ATOM     20  S   UNL     1      51.850  10.591  14.060  0.00  0.00    +0.000 S 
ATOM     21  C   UNL     1      51.629   9.597  12.698  0.00  0.00    +0.000 A 
ATOM     22  N   UNL     1      52.402   9.752  11.587  0.00  0.00    +0.000 NA
ATOM     23  C   UNL     1      52.108   8.949  10.619  0.00  0.00    +0.000 A 
ATOM     24  N   UNL     1      51.118   8.002  10.663  0.00  0.00    +0.000 N 
ATOM     25  C   UNL     1      50.333   7.794  11.772  0.00  0.00    +0.000 A 
ATOM     26  O   UNL     1      49.480   6.914  11.789  0.00  0.00    +0.000 OA
ATOM     27  C   UNL     1      50.614   8.676  12.887  0.00  0.00    +0.000 A 
ATOM     28  H   UNL     1      50.940   7.400   9.874  0.00  0.00    +0.000 HD
ENDBRANCH  15  18
ENDBRANCH  13  14
ENDBRANCH   3  13
BRANCH   6  29
ATOM     29  C   UNL     1      43.446   5.032  11.229  0.00  0.00    +0.000 C 
BRANCH  29  30
ATOM     30  N   UNL     1      43.885   5.154   9.855  0.00  0.00    +0.000 N 
ATOM     31  C   UNL     1      44.562   4.083   9.306  0.00  0.00    +0.000 A 
ATOM     32  N   UNL     1      44.356   2.833   9.751  0.00  0.00    +0.000 NA
ATOM     33  C   UNL     1      44.992   1.830   9.112  0.00  0.00    +0.000 A 
ATOM     34  C   UNL     1      45.835   2.027   8.055  0.00  0.00    +0.000 A 
ATOM     35  C   UNL     1      45.993   3.339   7.704  0.00  0.00    +0.000 A 
ATOM     36 CL   UNL     1      47.026   3.775   6.400  0.00  0.00    +0.000 Cl
ATOM     37  N   UNL     1      45.391   4.380   8.303  0.00  0.00    +0.000 NA
ATOM     38  H   UNL     1      44.377   6.001   9.602  0.00  0.00    +0.000 HD
ENDBRANCH  29  30
ENDBRANCH   6  29
TORSDOF 9
ENDMDL
MODEL 8
REMARK VINA RESULT:    -6.459      4.783      9.287
REMARK INTER + INTRA:         -11.538
REMARK INTER:                 -10.426
REMARK INTRA:                  -1.112
REMARK UNBOUND:                -1.869
REMARK  Name = 
REMARK  9 active torsions:
REMARK  status: ('A' for Active; 'I' for Inactive)
REMARK    1  A    between atoms: N_1  and  C_2
REMARK    2  A    between atoms: C_2  and  C_3
REMARK    3  A    between atoms: C_3  and  O_4
REMARK    4  A    between atoms: O_4  and  C_5
REMARK    5  A    between atoms: C_7  and  C_8
REMARK    6  A    between atoms: C_8  and  N_9
REMARK    7  A    between atoms: C_10  and  C_12
REMARK    8  A    between atoms: C_24  and  C_25
REMARK    9  A    between atoms: C_25  and  N_26
REMARK                            x       y       z     vdW  Elec       q    Type
REMARK                         _______ _______ _______ _____ _____    ______ ____
ROOT
ATOM      1  C   UNL     1      50.613   4.252  18.209  0.00  0.00    +0.000 A 
ATOM      2  C   UNL     1      49.232   4.274  17.989  0.00  0.00    +0.000 A 
ATOM      3  C   UNL     1      48.627   3.233  17.293  0.00  0.00    +0.000 A 
ATOM      4  N   UNL     1      49.337   2.195  16.793  0.00  0.00    +0.000 NA
ATOM      5  C   UNL     1      50.673   2.190  17.022  0.00  0.00    +0.000 A 
ATOM      6  C   UNL     1      51.368   3.179  17.715  0.00  0.00    +0.000 A 
ENDROOT
BRANCH   1   7
ATOM      7  O   UNL     1      51.295   5.240  18.879  0.00  0.00    +0.000 OA
BRANCH   7   8
ATOM      8  C   UNL     1      51.085   5.308  20.293  0.00  0.00    +0.000 C 
BRANCH   8   9
ATOM      9  C   UNL     1      50.742   6.744  20.697  0.00  0.00    +0.000 C 
BRANCH   9  10
ATOM     10  N   UNL     1      49.375   7.096  20.308  0.00  0.00    +0.000 NA
ATOM     11  H   UNL     1      48.821   7.266  21.146  0.00  0.00    +0.000 HD
ATOM     12  H   UNL     1      48.937   6.305  19.836  0.00  0.00    +0.000 HD
ENDBRANCH   9  10
ENDBRANCH   8   9
ENDBRANCH   7   8
ENDBRANCH   1   7
BRANCH   3  13
ATOM     13  C   UNL     1      47.140   3.291  17.013  0.00  0.00    +0.000 C 
BRANCH  13  14
ATOM     14  N   UNL     1      46.843   4.303  16.022  0.00  0.00    +0.000 N 
ATOM     15  C   UNL     1      46.990   4.094  14.677  0.00  0.00    +0.000 C 
ATOM     16  O   UNL     1      47.325   3.004  14.221  0.00  0.00    +0.000 OA
ATOM     17  H   UNL     1      46.769   5.250  16.383  0.00  0.00    +0.000 HD
BRANCH  15  18
ATOM     18  C   UNL     1      46.658   5.221  13.795  0.00  0.00    +0.000 A 
ATOM     19  C   UNL     1      47.567   6.255  13.624  0.00  0.00    +0.000 A 
ATOM     20  S   UNL     1      47.045   7.456  12.531  0.00  0.00    +0.000 S 
ATOM     21  C   UNL     1      45.561   6.663  12.285  0.00  0.00    +0.000 A 
ATOM     22  N   UNL     1      44.618   7.186  11.453  0.00  0.00    +0.000 NA
ATOM     23  C   UNL     1      43.530   6.495  11.380  0.00  0.00    +0.000 A 
ATOM     24  N   UNL     1      43.300   5.326  12.058  0.00  0.00    +0.000 N 
ATOM     25  C   UNL     1      44.233   4.748  12.887  0.00  0.00    +0.000 A 
ATOM     26  O   UNL     1      44.008   3.683  13.449  0.00  0.00    +0.000 OA
ATOM     27  C   UNL     1      45.473   5.489  13.012  0.00  0.00    +0.000 A 
ATOM     28  H   UNL     1      42.429   4.829  11.956  0.00  0.00    +0.000 HD
ENDBRANCH  15  18
ENDBRANCH  13  14
ENDBRANCH   3  13
BRANCH   6  29
ATOM     29  C   UNL     1      52.861   3.053  17.908  0.00  0.00    +0.000 C 
BRANCH  29  30
ATOM     30  N   UNL     1      53.161   1.926  18.766  0.00  0.00    +0.000 N 
ATOM     31  C   UNL     1      53.798   0.843  18.194  0.00  0.00    +0.000 A 
ATOM     32  N   UNL     1      54.588   0.995  17.119  0.00  0.00    +0.000 NA
ATOM     33  C   UNL     1      55.241  -0.095  16.666  0.00  0.00    +0.000 A 
ATOM     34  C   UNL     1      55.125  -1.332  17.235  0.00  0.00    +0.000 A 
ATOM     35  C   UNL     1      54.273  -1.377  18.303  0.00  0.00    +0.000 A 
ATOM     36 CL   UNL     1      53.997  -2.855  19.138  0.00  0.00    +0.000 Cl
ATOM     37  N   UNL     1      53.594  -0.329  18.798  0.00  0.00    +0.000 NA
ATOM     38  H   UNL     1      52.411   1.580  19.350  0.00  0.00    +0.000 HD
ENDBRANCH  29  30
ENDBRANCH   6  29
TORSDOF 9
ENDMDL
MODEL 9
REMARK VINA RESULT:    -6.457      3.913      8.502
REMARK INTER + INTRA:         -11.534
REMARK INTER:                  -9.812
REMARK INTRA:                  -1.722
REMARK UNBOUND:                -1.869
REMARK  Name = 
REMARK  9 active torsions:
REMARK  status: ('A' for Active; 'I' for Inactive)
REMARK    1  A    between atoms: N_1  and  C_2
REMARK    2  A    between atoms: C_2  and  C_3
REMARK    3  A    between atoms: C_3  and  O_4
REMARK    4  A    between atoms: O_4  and  C_5
REMARK    5  A    between atoms: C_7  and  C_8
REMARK    6  A    between atoms: C_8  and  N_9
REMARK    7  A    between atoms: C_10  and  C_12
REMARK    8  A    between atoms: C_24  and  C_25
REMARK    9  A    between atoms: C_25  and  N_26
REMARK                            x       y       z     vdW  Elec       q    Type
REMARK                         _______ _______ _______ _____ _____    ______ ____
ROOT
ATOM      1  C   UNL     1      50.527   7.531  15.461  0.00  0.00    +0.000 A 
ATOM      2  C   UNL     1      50.061   7.947  14.210  0.00  0.00    +0.000 A 
ATOM      3  C   UNL     1      48.865   7.437  13.715  0.00  0.00    +0.000 A 
ATOM      4  N   UNL     1      48.137   6.523  14.397  0.00  0.00    +0.000 NA
ATOM      5  C   UNL     1      48.604   6.138  15.610  0.00  0.00    +0.000 A 
ATOM      6  C   UNL     1      49.782   6.598  16.194  0.00  0.00    +0.000 A 
ENDROOT
BRANCH   1   7
ATOM      7  O   UNL     1      51.700   7.976  16.025  0.00  0.00    +0.000 OA
BRANCH   7   8
ATOM      8  C   UNL     1      52.790   8.201  15.124  0.00  0.00    +0.000 C 
BRANCH   8   9
ATOM      9  C   UNL     1      53.760   7.018  15.181  0.00  0.00    +0.000 C 
BRANCH   9  10
ATOM     10  N   UNL     1      54.107   6.677  16.562  0.00  0.00    +0.000 NA
ATOM     11  H   UNL     1      54.212   7.534  17.103  0.00  0.00    +0.000 HD
ATOM     12  H   UNL     1      55.017   6.218  16.583  0.00  0.00    +0.000 HD
ENDBRANCH   9  10
ENDBRANCH   8   9
ENDBRANCH   7   8
ENDBRANCH   1   7
BRANCH   3  13
ATOM     13  C   UNL     1      48.395   7.851  12.337  0.00  0.00    +0.000 C 
BRANCH  13  14
ATOM     14  N   UNL     1      47.635   6.789  11.712  0.00  0.00    +0.000 N 
ATOM     15  C   UNL     1      46.292   6.885  11.460  0.00  0.00    +0.000 C 
ATOM     16  O   UNL     1      45.657   7.910  11.691  0.00  0.00    +0.000 OA
ATOM     17  H   UNL     1      48.088   5.881  11.708  0.00  0.00    +0.000 HD
BRANCH  15  18
ATOM     18  C   UNL     1      45.657   5.720  10.829  0.00  0.00    +0.000 A 
ATOM     19  C   UNL     1      45.785   5.519   9.462  0.00  0.00    +0.000 A 
ATOM     20  S   UNL     1      45.031   4.095   8.903  0.00  0.00    +0.000 S 
ATOM     21  C   UNL     1      44.461   3.720  10.460  0.00  0.00    +0.000 A 
ATOM     22  N   UNL     1      43.707   2.608  10.681  0.00  0.00    +0.000 NA
ATOM     23  C   UNL     1      43.320   2.460  11.903  0.00  0.00    +0.000 A 
ATOM     24  N   UNL     1      43.623   3.319  12.928  0.00  0.00    +0.000 N 
ATOM     25  C   UNL     1      44.401   4.439  12.757  0.00  0.00    +0.000 A 
ATOM     26  O   UNL     1      44.682   5.167  13.702  0.00  0.00    +0.000 OA
ATOM     27  C   UNL     1      44.856   4.659  11.398  0.00  0.00    +0.000 A 
ATOM     28  H   UNL     1      43.293   3.147  13.865  0.00  0.00    +0.000 HD
ENDBRANCH  15  18
ENDBRANCH  13  14
ENDBRANCH   3  13
BRANCH   6  29
ATOM     29  C   UNL     1      50.190   6.094  17.559  0.00  0.00    +0.000 C 
BRANCH  29  30
ATOM     30  N   UNL     1      51.469   5.419  17.480  0.00  0.00    +0.000 N 
ATOM     31  C   UNL     1      51.463   4.038  17.524  0.00  0.00    +0.000 A 
ATOM     32  N   UNL     1      50.398   3.338  17.103  0.00  0.00    +0.000 NA
ATOM     33  C   UNL     1      50.497   1.993  17.100  0.00  0.00    +0.000 A 
ATOM     34  C   UNL     1      51.611   1.320  17.513  0.00  0.00    +0.000 A 
ATOM     35  C   UNL     1      52.624   2.131  17.947  0.00  0.00    +0.000 A 
ATOM     36 CL   UNL     1      54.101   1.455  18.513  0.00  0.00    +0.000 Cl
ATOM     37  N   UNL     1      52.583   3.473  17.977  0.00  0.00    +0.000 NA
ATOM     38  H   UNL     1      52.203   5.751  18.091  0.00  0.00    +0.000 HD
ENDBRANCH  29  30
ENDBRANCH   6  29
TORSDOF 9
ENDMDL
