MODEL 1
REMARK VINA RESULT:    -8.702      0.000      0.000
REMARK INTER + INTRA:         -12.378
REMARK INTER:                 -11.246
REMARK INTRA:                  -1.132
REMARK UNBOUND:                -1.132
REMARK  Name = 
REMARK  5 active torsions:
REMARK  status: ('A' for Active; 'I' for Inactive)
REMARK    1  A    between atoms: C_2  and  C_4
REMARK    2  A    between atoms: C_7  and  N_8
REMARK    3  A    between atoms: N_8  and  C_9
REMARK    4  A    between atoms: C_9  and  C_10
REMARK    5  A    between atoms: C_14  and  N_15
REMARK                            x       y       z     vdW  Elec       q    Type
REMARK                         _______ _______ _______ _____ _____    ______ ____
ROOT
ATOM      1  N   UNL     1      43.790   4.834   9.870  0.00  0.00    +0.000 N 
ATOM      2  H   UNL     1      42.973   5.183   9.359  0.00  0.00    +0.000 HD
ENDROOT
BRANCH   1   6
ATOM      3  C   UNL     1      46.393   2.289   7.767  0.00  0.00    +0.000 A 
ATOM      4  C   UNL     1      45.439   1.741   8.621  0.00  0.00    +0.000 A 
ATOM      5  C   UNL     1      44.558   2.576   9.306  0.00  0.00    +0.000 A 
ATOM      6  C   UNL     1      44.591   3.968   9.141  0.00  0.00    +0.000 A 
ATOM      7  C   UNL     1      45.576   4.502   8.295  0.00  0.00    +0.000 A 
ATOM      8  C   UNL     1      46.474   3.671   7.616  0.00  0.00    +0.000 A 
BRANCH   3  10
ATOM      9  N   UNL     1      48.462   2.022   6.536  0.00  0.00    +0.000 N 
ATOM     10  C   UNL     1      47.349   1.420   7.044  0.00  0.00    +0.000 C 
ATOM     11  O   UNL     1      47.171   0.211   6.937  0.00  0.00    +0.000 OA
ATOM     12  H   UNL     1      49.163   1.415   6.130  0.00  0.00    +0.000 HD
ATOM     13  H   UNL     1      48.753   2.944   6.827  0.00  0.00    +0.000 HD
ENDBRANCH   3  10
ENDBRANCH   1   6
BRANCH   1  14
ATOM     14  C   UNL     1      43.565   4.633  11.292  0.00  0.00    +0.000 C 
BRANCH  14  15
ATOM     15  C   UNL     1      44.799   4.783  12.156  0.00  0.00    +0.000 A 
ATOM     16  C   UNL     1      45.398   3.608  12.643  0.00  0.00    +0.000 A 
ATOM     17  C   UNL     1      46.556   3.675  13.407  0.00  0.00    +0.000 A 
ATOM     18  C   UNL     1      47.150   4.906  13.644  0.00  0.00    +0.000 A 
ATOM     19  C   UNL     1      46.599   6.103  13.158  0.00  0.00    +0.000 A 
ATOM     20  C   UNL     1      45.385   6.024  12.468  0.00  0.00    +0.000 A 
BRANCH  19  21
ATOM     21  N   UNL     1      47.297   7.285  13.337  0.00  0.00    +0.000 N 
ATOM     22  C   UNL     1      46.658   8.598  13.358  0.00  0.00    +0.000 C 
ATOM     23  C   UNL     1      46.986   9.409  12.107  0.00  0.00    +0.000 C 
ATOM     24  C   UNL     1      48.486   9.426  11.817  0.00  0.00    +0.000 C 
ATOM     25  C   UNL     1      49.039   8.007  11.754  0.00  0.00    +0.000 C 
ATOM     26  C   UNL     1      48.739   7.246  13.040  0.00  0.00    +0.000 C 
ENDBRANCH  19  21
ENDBRANCH  14  15
ENDBRANCH   1  14
TORSDOF 5
ENDMDL
MODEL 2
REMARK VINA RESULT:    -7.863      1.403      2.531
REMARK INTER + INTRA:         -11.293
REMARK INTER:                 -10.379
REMARK INTRA:                  -0.914
REMARK UNBOUND:                -1.132
REMARK  Name = 
REMARK  5 active torsions:
REMARK  status: ('A' for Active; 'I' for Inactive)
REMARK    1  A    between atoms: C_2  and  C_4
REMARK    2  A    between atoms: C_7  and  N_8
REMARK    3  A    between atoms: N_8  and  C_9
REMARK    4  A    between atoms: C_9  and  C_10
REMARK    5  A    between atoms: C_14  and  N_15
REMARK                            x       y       z     vdW  Elec       q    Type
REMARK                         _______ _______ _______ _____ _____    ______ ____
ROOT
ATOM      1  N   UNL     1      43.725   4.935   9.727  0.00  0.00    +0.000 N 
ATOM      2  H   UNL     1      42.788   4.906   9.315  0.00  0.00    +0.000 HD
ENDROOT
BRANCH   1   6
ATOM      3  C   UNL     1      46.251   2.063   7.982  0.00  0.00    +0.000 A 
ATOM      4  C   UNL     1      46.413   3.408   7.656  0.00  0.00    +0.000 A 
ATOM      5  C   UNL     1      45.594   4.369   8.247  0.00  0.00    +0.000 A 
ATOM      6  C   UNL     1      44.614   4.019   9.186  0.00  0.00    +0.000 A 
ATOM      7  C   UNL     1      44.450   2.656   9.482  0.00  0.00    +0.000 A 
ATOM      8  C   UNL     1      45.258   1.684   8.881  0.00  0.00    +0.000 A 
BRANCH   3  10
ATOM      9  N   UNL     1      46.815  -0.271   7.665  0.00  0.00    +0.000 N 
ATOM     10  C   UNL     1      47.100   1.025   7.353  0.00  0.00    +0.000 C 
ATOM     11  O   UNL     1      47.991   1.311   6.561  0.00  0.00    +0.000 OA
ATOM     12  H   UNL     1      47.327  -0.983   7.160  0.00  0.00    +0.000 HD
ATOM     13  H   UNL     1      45.943  -0.540   8.099  0.00  0.00    +0.000 HD
ENDBRANCH   3  10
ENDBRANCH   1   6
BRANCH   1  14
ATOM     14  C   UNL     1      43.746   5.257  11.145  0.00  0.00    +0.000 C 
BRANCH  14  15
ATOM     15  C   UNL     1      44.796   6.270  11.549  0.00  0.00    +0.000 A 
ATOM     16  C   UNL     1      44.459   7.631  11.448  0.00  0.00    +0.000 A 
ATOM     17  C   UNL     1      45.362   8.609  11.842  0.00  0.00    +0.000 A 
ATOM     18  C   UNL     1      46.583   8.235  12.386  0.00  0.00    +0.000 A 
ATOM     19  C   UNL     1      46.952   6.888  12.526  0.00  0.00    +0.000 A 
ATOM     20  C   UNL     1      46.067   5.920  12.041  0.00  0.00    +0.000 A 
BRANCH  19  21
ATOM     21  N   UNL     1      48.136   6.580  13.174  0.00  0.00    +0.000 N 
ATOM     22  C   UNL     1      48.207   6.234  14.592  0.00  0.00    +0.000 C 
ATOM     23  C   UNL     1      48.860   7.343  15.414  0.00  0.00    +0.000 C 
ATOM     24  C   UNL     1      50.178   7.809  14.796  0.00  0.00    +0.000 C 
ATOM     25  C   UNL     1      49.978   8.204  13.338  0.00  0.00    +0.000 C 
ATOM     26  C   UNL     1      49.375   7.055  12.538  0.00  0.00    +0.000 C 
ENDBRANCH  19  21
ENDBRANCH  14  15
ENDBRANCH   1  14
TORSDOF 5
ENDMDL
MODEL 3
REMARK VINA RESULT:    -7.769      1.669      3.110
REMARK INTER + INTRA:         -11.172
REMARK INTER:                 -10.118
REMARK INTRA:                  -1.054
REMARK UNBOUND:                -1.132
REMARK  Name = 
REMARK  5 active torsions:
REMARK  status: ('A' for Active; 'I' for Inactive)
REMARK    1  A    between atoms: C_2  and  C_4
REMARK    2  A    between atoms: C_7  and  N_8
REMARK    3  A    between atoms: N_8  and  C_9
REMARK    4  A    between atoms: C_9  and  C_10
REMARK    5  A    between atoms: C_14  and  N_15
REMARK                            x       y       z     vdW  Elec       q    Type
REMARK                         _______ _______ _______ _____ _____    ______ ____
ROOT
ATOM      1  N   UNL     1      43.744   4.684  10.114  0.00  0.00    +0.000 N 
ATOM      2  H   UNL     1      42.797   4.631   9.724  0.00  0.00    +0.000 HD
ENDROOT
BRANCH   1   6
ATOM      3  C   UNL     1      46.475   2.491   7.790  0.00  0.00    +0.000 A 
ATOM      4  C   UNL     1      46.465   3.881   7.707  0.00  0.00    +0.000 A 
ATOM      5  C   UNL     1      45.578   4.618   8.490  0.00  0.00    +0.000 A 
ATOM      6  C   UNL     1      44.699   3.992   9.385  0.00  0.00    +0.000 A 
ATOM      7  C   UNL     1      44.707   2.589   9.435  0.00  0.00    +0.000 A 
ATOM      8  C   UNL     1      45.585   1.842   8.640  0.00  0.00    +0.000 A 
BRANCH   3  10
ATOM      9  N   UNL     1      48.442   2.357   6.383  0.00  0.00    +0.000 N 
ATOM     10  C   UNL     1      47.399   1.690   6.954  0.00  0.00    +0.000 C 
ATOM     11  O   UNL     1      47.258   0.480   6.810  0.00  0.00    +0.000 OA
ATOM     12  H   UNL     1      49.129   1.795   5.896  0.00  0.00    +0.000 HD
ATOM     13  H   UNL     1      48.722   3.278   6.689  0.00  0.00    +0.000 HD
ENDBRANCH   3  10
ENDBRANCH   1   6
BRANCH   1  14
ATOM     14  C   UNL     1      43.792   4.729  11.566  0.00  0.00    +0.000 C 
BRANCH  14  15
ATOM     15  C   UNL     1      44.981   5.470  12.137  0.00  0.00    +0.000 A 
ATOM     16  C   UNL     1      45.146   6.816  11.770  0.00  0.00    +0.000 A 
ATOM     17  C   UNL     1      46.194   7.564  12.292  0.00  0.00    +0.000 A 
ATOM     18  C   UNL     1      47.049   6.989  13.220  0.00  0.00    +0.000 A 
ATOM     19  C   UNL     1      46.908   5.654  13.633  0.00  0.00    +0.000 A 
ATOM     20  C   UNL     1      45.904   4.892  13.030  0.00  0.00    +0.000 A 
BRANCH  19  21
ATOM     21  N   UNL     1      47.726   5.173  14.642  0.00  0.00    +0.000 N 
ATOM     22  C   UNL     1      47.417   3.979  15.424  0.00  0.00    +0.000 C 
ATOM     23  C   UNL     1      47.029   4.325  16.859  0.00  0.00    +0.000 C 
ATOM     24  C   UNL     1      48.034   5.277  17.506  0.00  0.00    +0.000 C 
ATOM     25  C   UNL     1      48.235   6.516  16.641  0.00  0.00    +0.000 C 
ATOM     26  C   UNL     1      48.673   6.133  15.233  0.00  0.00    +0.000 C 
ENDBRANCH  19  21
ENDBRANCH  14  15
ENDBRANCH   1  14
TORSDOF 5
ENDMDL
MODEL 4
REMARK VINA RESULT:    -7.005      4.096      8.059
REMARK INTER + INTRA:         -10.185
REMARK INTER:                  -9.539
REMARK INTRA:                  -0.645
REMARK UNBOUND:                -1.132
REMARK  Name = 
REMARK  5 active torsions:
REMARK  status: ('A' for Active; 'I' for Inactive)
REMARK    1  A    between atoms: C_2  and  C_4
REMARK    2  A    between atoms: C_7  and  N_8
REMARK    3  A    between atoms: N_8  and  C_9
REMARK    4  A    between atoms: C_9  and  C_10
REMARK    5  A    between atoms: C_14  and  N_15
REMARK                            x       y       z     vdW  Elec       q    Type
REMARK                         _______ _______ _______ _____ _____    ______ ____
ROOT
ATOM      1  N   UNL     1      46.515   4.236  15.130  0.00  0.00    +0.000 N 
ATOM      2  H   UNL     1      45.685   4.743  15.453  0.00  0.00    +0.000 HD
ENDROOT
BRANCH   1   6
ATOM      3  C   UNL     1      49.803   4.064  17.744  0.00  0.00    +0.000 A 
ATOM      4  C   UNL     1      49.350   5.301  17.291  0.00  0.00    +0.000 A 
ATOM      5  C   UNL     1      48.248   5.369  16.441  0.00  0.00    +0.000 A 
ATOM      6  C   UNL     1      47.560   4.215  16.042  0.00  0.00    +0.000 A 
ATOM      7  C   UNL     1      48.047   2.976  16.489  0.00  0.00    +0.000 A 
ATOM      8  C   UNL     1      49.163   2.900  17.330  0.00  0.00    +0.000 A 
BRANCH   3  10
ATOM      9  N   UNL     1      50.821   4.408  19.915  0.00  0.00    +0.000 N 
ATOM     10  C   UNL     1      50.983   3.970  18.634  0.00  0.00    +0.000 C 
ATOM     11  O   UNL     1      52.045   3.489  18.252  0.00  0.00    +0.000 OA
ATOM     12  H   UNL     1      51.593   4.252  20.550  0.00  0.00    +0.000 HD
ATOM     13  H   UNL     1      49.907   4.563  20.318  0.00  0.00    +0.000 HD
ENDBRANCH   3  10
ENDBRANCH   1   6
BRANCH   1  14
ATOM     14  C   UNL     1      46.765   4.345  13.702  0.00  0.00    +0.000 C 
BRANCH  14  15
ATOM     15  C   UNL     1      45.532   4.225  12.833  0.00  0.00    +0.000 A 
ATOM     16  C   UNL     1      44.347   4.820  13.299  0.00  0.00    +0.000 A 
ATOM     17  C   UNL     1      43.192   4.781  12.530  0.00  0.00    +0.000 A 
ATOM     18  C   UNL     1      43.225   4.196  11.272  0.00  0.00    +0.000 A 
ATOM     19  C   UNL     1      44.392   3.610  10.757  0.00  0.00    +0.000 A 
ATOM     20  C   UNL     1      45.521   3.579  11.582  0.00  0.00    +0.000 A 
BRANCH  19  21
ATOM     21  N   UNL     1      44.389   3.140   9.454  0.00  0.00    +0.000 N 
ATOM     22  C   UNL     1      44.639   1.743   9.105  0.00  0.00    +0.000 C 
ATOM     23  C   UNL     1      45.994   1.562   8.427  0.00  0.00    +0.000 C 
ATOM     24  C   UNL     1      46.198   2.559   7.287  0.00  0.00    +0.000 C 
ATOM     25  C   UNL     1      45.975   3.986   7.773  0.00  0.00    +0.000 C 
ATOM     26  C   UNL     1      44.593   4.141   8.395  0.00  0.00    +0.000 C 
ENDBRANCH  19  21
ENDBRANCH  14  15
ENDBRANCH   1  14
TORSDOF 5
ENDMDL
MODEL 5
REMARK VINA RESULT:    -6.936      3.548      7.474
REMARK INTER + INTRA:         -10.095
REMARK INTER:                  -9.407
REMARK INTRA:                  -0.688
REMARK UNBOUND:                -1.132
REMARK  Name = 
REMARK  5 active torsions:
REMARK  status: ('A' for Active; 'I' for Inactive)
REMARK    1  A    between atoms: C_2  and  C_4
REMARK    2  A    between atoms: C_7  and  N_8
REMARK    3  A    between atoms: N_8  and  C_9
REMARK    4  A    between atoms: C_9  and  C_10
REMARK    5  A    between atoms: C_14  and  N_15
REMARK                            x       y       z     vdW  Elec       q    Type
REMARK                         _______ _______ _______ _____ _____    ______ ____
ROOT
ATOM      1  N   UNL     1      47.087   6.217  12.925  0.00  0.00    +0.000 N 
ATOM      2  H   UNL     1      47.651   5.897  12.131  0.00  0.00    +0.000 HD
ENDROOT
BRANCH   1   6
ATOM      3  C   UNL     1      48.301   4.968  16.751  0.00  0.00    +0.000 A 
ATOM      4  C   UNL     1      47.414   4.180  16.021  0.00  0.00    +0.000 A 
ATOM      5  C   UNL     1      47.023   4.575  14.743  0.00  0.00    +0.000 A 
ATOM      6  C   UNL     1      47.520   5.747  14.156  0.00  0.00    +0.000 A 
ATOM      7  C   UNL     1      48.392   6.541  14.918  0.00  0.00    +0.000 A 
ATOM      8  C   UNL     1      48.777   6.158  16.208  0.00  0.00    +0.000 A 
BRANCH   3  10
ATOM      9  N   UNL     1      48.045   3.530  18.683  0.00  0.00    +0.000 N 
ATOM     10  C   UNL     1      48.715   4.574  18.117  0.00  0.00    +0.000 C 
ATOM     11  O   UNL     1      49.640   5.130  18.699  0.00  0.00    +0.000 OA
ATOM     12  H   UNL     1      48.392   3.195  19.573  0.00  0.00    +0.000 HD
ATOM     13  H   UNL     1      47.470   2.903  18.138  0.00  0.00    +0.000 HD
ENDBRANCH   3  10
ENDBRANCH   1   6
BRANCH   1  14
ATOM     14  C   UNL     1      45.671   6.365  12.631  0.00  0.00    +0.000 C 
BRANCH  14  15
ATOM     15  C   UNL     1      44.994   5.110  12.126  0.00  0.00    +0.000 A 
ATOM     16  C   UNL     1      44.038   4.505  12.960  0.00  0.00    +0.000 A 
ATOM     17  C   UNL     1      43.351   3.375  12.538  0.00  0.00    +0.000 A 
ATOM     18  C   UNL     1      43.576   2.873  11.265  0.00  0.00    +0.000 A 
ATOM     19  C   UNL     1      44.505   3.457  10.389  0.00  0.00    +0.000 A 
ATOM     20  C   UNL     1      45.251   4.540  10.864  0.00  0.00    +0.000 A 
BRANCH  19  21
ATOM     21  N   UNL     1      44.604   2.975   9.095  0.00  0.00    +0.000 N 
ATOM     22  C   UNL     1      44.896   1.579   8.780  0.00  0.00    +0.000 C 
ATOM     23  C   UNL     1      46.300   1.409   8.205  0.00  0.00    +0.000 C 
ATOM     24  C   UNL     1      46.574   2.398   7.072  0.00  0.00    +0.000 C 
ATOM     25  C   UNL     1      46.298   3.827   7.526  0.00  0.00    +0.000 C 
ATOM     26  C   UNL     1      44.872   3.969   8.043  0.00  0.00    +0.000 C 
ENDBRANCH  19  21
ENDBRANCH  14  15
ENDBRANCH   1  14
TORSDOF 5
ENDMDL
MODEL 6
REMARK VINA RESULT:    -6.915      2.720      6.820
REMARK INTER + INTRA:         -10.068
REMARK INTER:                  -8.990
REMARK INTRA:                  -1.078
REMARK UNBOUND:                -1.132
REMARK  Name = 
REMARK  5 active torsions:
REMARK  status: ('A' for Active; 'I' for Inactive)
REMARK    1  A    between atoms: C_2  and  C_4
REMARK    2  A    between atoms: C_7  and  N_8
REMARK    3  A    between atoms: N_8  and  C_9
REMARK    4  A    between atoms: C_9  and  C_10
REMARK    5  A    between atoms: C_14  and  N_15
REMARK                            x       y       z     vdW  Elec       q    Type
REMARK                         _______ _______ _______ _____ _____    ______ ____
ROOT
ATOM      1  N   UNL     1      46.800   5.588  14.272  0.00  0.00    +0.000 N 
ATOM      2  H   UNL     1      46.058   5.930  14.892  0.00  0.00    +0.000 HD
ENDROOT
BRANCH   1   6
ATOM      3  C   UNL     1      48.549   8.729  12.093  0.00  0.00    +0.000 A 
ATOM      4  C   UNL     1      49.362   7.742  12.646  0.00  0.00    +0.000 A 
ATOM      5  C   UNL     1      48.789   6.685  13.352  0.00  0.00    +0.000 A 
ATOM      6  C   UNL     1      47.399   6.575  13.504  0.00  0.00    +0.000 A 
ATOM      7  C   UNL     1      46.600   7.594  12.961  0.00  0.00    +0.000 A 
ATOM      8  C   UNL     1      47.170   8.666  12.265  0.00  0.00    +0.000 A 
BRANCH   3  10
ATOM      9  N   UNL     1      48.324  10.932  11.113  0.00  0.00    +0.000 N 
ATOM     10  C   UNL     1      49.141   9.868  11.354  0.00  0.00    +0.000 C 
ATOM     11  O   UNL     1      50.317   9.874  11.008  0.00  0.00    +0.000 OA
ATOM     12  H   UNL     1      48.752  11.750  10.698  0.00  0.00    +0.000 HD
ATOM     13  H   UNL     1      47.449  11.059  11.602  0.00  0.00    +0.000 HD
ENDBRANCH   3  10
ENDBRANCH   1   6
BRANCH   1  14
ATOM     14  C   UNL     1      46.567   4.257  13.738  0.00  0.00    +0.000 C 
BRANCH  14  15
ATOM     15  C   UNL     1      45.382   4.148  12.802  0.00  0.00    +0.000 A 
ATOM     16  C   UNL     1      44.172   4.731  13.215  0.00  0.00    +0.000 A 
ATOM     17  C   UNL     1      43.059   4.702  12.386  0.00  0.00    +0.000 A 
ATOM     18  C   UNL     1      43.161   4.138  11.122  0.00  0.00    +0.000 A 
ATOM     19  C   UNL     1      44.356   3.564  10.659  0.00  0.00    +0.000 A 
ATOM     20  C   UNL     1      45.439   3.523  11.542  0.00  0.00    +0.000 A 
BRANCH  19  21
ATOM     21  N   UNL     1      44.423   3.117   9.351  0.00  0.00    +0.000 N 
ATOM     22  C   UNL     1      44.689   1.726   8.992  0.00  0.00    +0.000 C 
ATOM     23  C   UNL     1      46.080   1.553   8.386  0.00  0.00    +0.000 C 
ATOM     24  C   UNL     1      46.347   2.568   7.275  0.00  0.00    +0.000 C 
ATOM     25  C   UNL     1      46.100   3.988   7.773  0.00  0.00    +0.000 C 
ATOM     26  C   UNL     1      44.686   4.136   8.322  0.00  0.00    +0.000 C 
ENDBRANCH  19  21
ENDBRANCH  14  15
ENDBRANCH   1  14
TORSDOF 5
ENDMDL
MODEL 7
REMARK VINA RESULT:    -6.526      1.200      2.017
REMARK INTER + INTRA:          -9.565
REMARK INTER:                  -8.765
REMARK INTRA:                  -0.799
REMARK UNBOUND:                -1.132
REMARK  Name = 
REMARK  5 active torsions:
REMARK  status: ('A' for Active; 'I' for Inactive)
REMARK    1  A    between atoms: C_2  and  C_4
REMARK    2  A    between atoms: C_7  and  N_8
REMARK    3  A    between atoms: N_8  and  C_9
REMARK    4  A    between atoms: C_9  and  C_10
REMARK    5  A    between atoms: C_14  and  N_15
REMARK                            x       y       z     vdW  Elec       q    Type
REMARK                         _______ _______ _______ _____ _____    ______ ____
ROOT
ATOM      1  N   UNL     1      42.885   4.804  11.035  0.00  0.00    +0.000 N 
ATOM      2  H   UNL     1      42.263   4.205  11.587  0.00  0.00    +0.000 HD
ENDROOT
BRANCH   1   6
ATOM      3  C   UNL     1      45.575   2.583   8.688  0.00  0.00    +0.000 A 
ATOM      4  C   UNL     1      45.409   3.944   8.439  0.00  0.00    +0.000 A 
ATOM      5  C   UNL     1      44.536   4.693   9.226  0.00  0.00    +0.000 A 
ATOM      6  C   UNL     1      43.826   4.112  10.288  0.00  0.00    +0.000 A 
ATOM      7  C   UNL     1      43.988   2.734  10.505  0.00  0.00    +0.000 A 
ATOM      8  C   UNL     1      44.852   1.973   9.709  0.00  0.00    +0.000 A 
BRANCH   3  10
ATOM      9  N   UNL     1      47.303   2.445   6.997  0.00  0.00    +0.000 N 
ATOM     10  C   UNL     1      46.485   1.768   7.852  0.00  0.00    +0.000 C 
ATOM     11  O   UNL     1      46.531   0.546   7.947  0.00  0.00    +0.000 OA
ATOM     12  H   UNL     1      47.995   1.898   6.500  0.00  0.00    +0.000 HD
ATOM     13  H   UNL     1      47.466   3.438   7.084  0.00  0.00    +0.000 HD
ENDBRANCH   3  10
ENDBRANCH   1   6
BRANCH   1  14
ATOM     14  C   UNL     1      43.211   6.073  11.666  0.00  0.00    +0.000 C 
BRANCH  14  15
ATOM     15  C   UNL     1      44.574   6.123  12.321  0.00  0.00    +0.000 A 
ATOM     16  C   UNL     1      44.949   5.034  13.126  0.00  0.00    +0.000 A 
ATOM     17  C   UNL     1      46.203   4.999  13.722  0.00  0.00    +0.000 A 
ATOM     18  C   UNL     1      47.106   6.024  13.477  0.00  0.00    +0.000 A 
ATOM     19  C   UNL     1      46.782   7.120  12.661  0.00  0.00    +0.000 A 
ATOM     20  C   UNL     1      45.485   7.182  12.143  0.00  0.00    +0.000 A 
BRANCH  19  21
ATOM     21  N   UNL     1      47.763   8.053  12.369  0.00  0.00    +0.000 N 
ATOM     22  C   UNL     1      48.819   7.824  11.386  0.00  0.00    +0.000 C 
ATOM     23  C   UNL     1      50.180   7.634  12.049  0.00  0.00    +0.000 C 
ATOM     24  C   UNL     1      50.475   8.733  13.069  0.00  0.00    +0.000 C 
ATOM     25  C   UNL     1      49.343   8.844  14.083  0.00  0.00    +0.000 C 
ATOM     26  C   UNL     1      48.009   9.087  13.387  0.00  0.00    +0.000 C 
ENDBRANCH  19  21
ENDBRANCH  14  15
ENDBRANCH   1  14
TORSDOF 5
ENDMDL
MODEL 8
REMARK VINA RESULT:    -6.487      4.631      7.969
REMARK INTER + INTRA:          -9.515
REMARK INTER:                  -8.690
REMARK INTRA:                  -0.825
REMARK UNBOUND:                -1.132
REMARK  Name = 
REMARK  5 active torsions:
REMARK  status: ('A' for Active; 'I' for Inactive)
REMARK    1  A    between atoms: C_2  and  C_4
REMARK    2  A    between atoms: C_7  and  N_8
REMARK    3  A    between atoms: N_8  and  C_9
REMARK    4  A    between atoms: C_9  and  C_10
REMARK    5  A    between atoms: C_14  and  N_15
REMARK                            x       y       z     vdW  Elec       q    Type
REMARK                         _______ _______ _______ _____ _____    ______ ____
ROOT
ATOM      1  N   UNL     1      47.451   4.798  16.312  0.00  0.00    +0.000 N 
ATOM      2  H   UNL     1      47.367   5.819  16.271  0.00  0.00    +0.000 HD
ENDROOT
BRANCH   1   6
ATOM      3  C   UNL     1      51.142   3.329  17.690  0.00  0.00    +0.000 A 
ATOM      4  C   UNL     1      50.961   4.703  17.545  0.00  0.00    +0.000 A 
ATOM      5  C   UNL     1      49.733   5.200  17.110  0.00  0.00    +0.000 A 
ATOM      6  C   UNL     1      48.656   4.347  16.830  0.00  0.00    +0.000 A 
ATOM      7  C   UNL     1      48.867   2.965  16.958  0.00  0.00    +0.000 A 
ATOM      8  C   UNL     1      50.102   2.458  17.380  0.00  0.00    +0.000 A 
BRANCH   3  10
ATOM      9  N   UNL     1      52.523   1.428  18.275  0.00  0.00    +0.000 N 
ATOM     10  C   UNL     1      52.443   2.781  18.135  0.00  0.00    +0.000 C 
ATOM     11  O   UNL     1      53.415   3.503  18.334  0.00  0.00    +0.000 OA
ATOM     12  H   UNL     1      53.437   1.044  18.481  0.00  0.00    +0.000 HD
ATOM     13  H   UNL     1      51.833   0.806  17.877  0.00  0.00    +0.000 HD
ENDBRANCH   3  10
ENDBRANCH   1   6
BRANCH   1  14
ATOM     14  C   UNL     1      46.792   4.098  15.222  0.00  0.00    +0.000 C 
BRANCH  14  15
ATOM     15  C   UNL     1      46.654   4.900  13.946  0.00  0.00    +0.000 A 
ATOM     16  C   UNL     1      47.558   5.957  13.742  0.00  0.00    +0.000 A 
ATOM     17  C   UNL     1      47.512   6.705  12.573  0.00  0.00    +0.000 A 
ATOM     18  C   UNL     1      46.600   6.371  11.582  0.00  0.00    +0.000 A 
ATOM     19  C   UNL     1      45.693   5.310  11.734  0.00  0.00    +0.000 A 
ATOM     20  C   UNL     1      45.695   4.626  12.953  0.00  0.00    +0.000 A 
BRANCH  19  21
ATOM     21  N   UNL     1      44.884   4.960  10.667  0.00  0.00    +0.000 N 
ATOM     22  C   UNL     1      43.844   3.937  10.750  0.00  0.00    +0.000 C 
ATOM     23  C   UNL     1      44.222   2.679   9.973  0.00  0.00    +0.000 C 
ATOM     24  C   UNL     1      44.693   3.005   8.556  0.00  0.00    +0.000 C 
ATOM     25  C   UNL     1      45.819   4.033   8.587  0.00  0.00    +0.000 C 
ATOM     26  C   UNL     1      45.387   5.294   9.324  0.00  0.00    +0.000 C 
ENDBRANCH  19  21
ENDBRANCH  14  15
ENDBRANCH   1  14
TORSDOF 5
ENDMDL
MODEL 9
REMARK VINA RESULT:    -6.197      4.147      6.681
REMARK INTER + INTRA:          -9.140
REMARK INTER:                  -7.941
REMARK INTRA:                  -1.199
REMARK UNBOUND:                -1.132
REMARK  Name = 
REMARK  5 active torsions:
REMARK  status: ('A' for Active; 'I' for Inactive)
REMARK    1  A    between atoms: C_2  and  C_4
REMARK    2  A    between atoms: C_7  and  N_8
REMARK    3  A    between atoms: N_8  and  C_9
REMARK    4  A    between atoms: C_9  and  C_10
REMARK    5  A    between atoms: C_14  and  N_15
REMARK                            x       y       z     vdW  Elec       q    Type
REMARK                         _______ _______ _______ _____ _____    ______ ____
ROOT
ATOM      1  N   UNL     1      48.678   6.630  12.843  0.00  0.00    +0.000 N 
ATOM      2  H   UNL     1      49.253   6.349  12.042  0.00  0.00    +0.000 HD
ENDROOT
BRANCH   1   6
ATOM      3  C   UNL     1      44.563   5.796  12.633  0.00  0.00    +0.000 A 
ATOM      4  C   UNL     1      45.064   6.941  12.018  0.00  0.00    +0.000 A 
ATOM      5  C   UNL     1      46.430   7.214  12.064  0.00  0.00    +0.000 A 
ATOM      6  C   UNL     1      47.328   6.347  12.702  0.00  0.00    +0.000 A 
ATOM      7  C   UNL     1      46.800   5.212  13.338  0.00  0.00    +0.000 A 
ATOM      8  C   UNL     1      45.428   4.940  13.309  0.00  0.00    +0.000 A 
BRANCH   3  10
ATOM      9  N   UNL     1      42.361   6.182  11.701  0.00  0.00    +0.000 N 
ATOM     10  C   UNL     1      43.113   5.498  12.610  0.00  0.00    +0.000 C 
ATOM     11  O   UNL     1      42.614   4.651  13.344  0.00  0.00    +0.000 OA
ATOM     12  H   UNL     1      41.391   5.908  11.615  0.00  0.00    +0.000 HD
ATOM     13  H   UNL     1      42.778   6.681  10.928  0.00  0.00    +0.000 HD
ENDBRANCH   3  10
ENDBRANCH   1   6
BRANCH   1  14
ATOM     14  C   UNL     1      49.128   7.842  13.506  0.00  0.00    +0.000 C 
BRANCH  14  15
ATOM     15  C   UNL     1      48.912   7.862  15.004  0.00  0.00    +0.000 A 
ATOM     16  C   UNL     1      48.527   9.081  15.589  0.00  0.00    +0.000 A 
ATOM     17  C   UNL     1      48.273   9.157  16.952  0.00  0.00    +0.000 A 
ATOM     18  C   UNL     1      48.350   8.009  17.728  0.00  0.00    +0.000 A 
ATOM     19  C   UNL     1      48.708   6.766  17.182  0.00  0.00    +0.000 A 
ATOM     20  C   UNL     1      49.048   6.728  15.826  0.00  0.00    +0.000 A 
BRANCH  19  21
ATOM     21  N   UNL     1      48.661   5.641  17.987  0.00  0.00    +0.000 N 
ATOM     22  C   UNL     1      49.831   4.818  18.284  0.00  0.00    +0.000 C 
ATOM     23  C   UNL     1      49.764   3.463  17.583  0.00  0.00    +0.000 C 
ATOM     24  C   UNL     1      48.418   2.774  17.803  0.00  0.00    +0.000 C 
ATOM     25  C   UNL     1      47.270   3.695  17.404  0.00  0.00    +0.000 C 
ATOM     26  C   UNL     1      47.340   5.014  18.162  0.00  0.00    +0.000 C 
ENDBRANCH  19  21
ENDBRANCH  14  15
ENDBRANCH   1  14
TORSDOF 5
ENDMDL
