MODEL 1
REMARK VINA RESULT:    -7.212      0.000      0.000
REMARK INTER + INTRA:          -9.667
REMARK INTER:                  -9.109
REMARK INTRA:                  -0.558
REMARK UNBOUND:                -0.558
REMARK  Name = 
REMARK  5 active torsions:
REMARK  status: ('A' for Active; 'I' for Inactive)
REMARK    1  A    between atoms: N_1  and  C_2
REMARK    2  A    between atoms: C_2  and  C_3
REMARK    3  A    between atoms: C_3  and  C_4
REMARK    4  A    between atoms: C_7  and  C_8
REMARK    5  A    between atoms: C_8  and  N_9
REMARK                            x       y       z     vdW  Elec       q    Type
REMARK                         _______ _______ _______ _____ _____    ______ ____
ROOT
ATOM      1  C   UNL     1      45.896   3.005   7.819  0.00  0.00    +0.000 A 
ATOM      2  C   UNL     1      46.112   4.382   7.945  0.00  0.00    +0.000 A 
ATOM      3  C   UNL     1      45.693   5.063   9.108  0.00  0.00    +0.000 A 
ATOM      4  C   UNL     1      45.102   4.372  10.174  0.00  0.00    +0.000 A 
ATOM      5  C   UNL     1      44.907   2.986  10.033  0.00  0.00    +0.000 A 
ATOM      6  C   UNL     1      45.305   2.312   8.880  0.00  0.00    +0.000 A 
ENDROOT
BRANCH   1   7
ATOM      7  C   UNL     1      46.333   2.261   6.576  0.00  0.00    +0.000 C 
BRANCH   7   8
ATOM      8  C   UNL     1      47.670   1.532   6.766  0.00  0.00    +0.000 C 
BRANCH   8   9
ATOM      9  N   UNL     1      48.607   1.852   5.688  0.00  0.00    +0.000 NA
ATOM     10  H   UNL     1      49.413   2.347   6.073  0.00  0.00    +0.000 HD
ATOM     11  H   UNL     1      48.167   2.493   5.029  0.00  0.00    +0.000 HD
ENDBRANCH   8   9
ENDBRANCH   7   8
ENDBRANCH   1   7
BRANCH   4  12
ATOM     12  C   UNL     1      44.729   5.084  11.441  0.00  0.00    +0.000 C 
BRANCH  12  13
ATOM     13  N   UNL     1      45.782   5.103  12.450  0.00  0.00    +0.000 N 
ATOM     14  C   UNL     1      45.709   4.416  13.638  0.00  0.00    +0.000 A 
ATOM     15  C   UNL     1      46.860   4.671  14.344  0.00  0.00    +0.000 A 
ATOM     16  C   UNL     1      47.383   5.869  13.800  0.00  0.00    +0.000 A 
ATOM     17  C   UNL     1      48.249   6.861  14.290  0.00  0.00    +0.000 A 
ATOM     18  C   UNL     1      48.561   7.942  13.466  0.00  0.00    +0.000 A 
ATOM     19 BR   UNL     1      49.476   9.429  14.195  0.00  0.00    +0.000 Br
ATOM     20  C   UNL     1      48.155   7.973  12.133  0.00  0.00    +0.000 A 
ATOM     21  C   UNL     1      47.287   6.997  11.631  0.00  0.00    +0.000 A 
ATOM     22  C   UNL     1      46.824   6.016  12.523  0.00  0.00    +0.000 A 
ENDBRANCH  12  13
ENDBRANCH   4  12
TORSDOF 5
ENDMDL
MODEL 2
REMARK VINA RESULT:    -7.160      1.210      2.213
REMARK INTER + INTRA:          -9.602
REMARK INTER:                  -9.308
REMARK INTRA:                  -0.294
REMARK UNBOUND:                -0.558
REMARK  Name = 
REMARK  5 active torsions:
REMARK  status: ('A' for Active; 'I' for Inactive)
REMARK    1  A    between atoms: N_1  and  C_2
REMARK    2  A    between atoms: C_2  and  C_3
REMARK    3  A    between atoms: C_3  and  C_4
REMARK    4  A    between atoms: C_7  and  C_8
REMARK    5  A    between atoms: C_8  and  N_9
REMARK                            x       y       z     vdW  Elec       q    Type
REMARK                         _______ _______ _______ _____ _____    ______ ____
ROOT
ATOM      1  C   UNL     1      45.820   3.018   7.913  0.00  0.00    +0.000 A 
ATOM      2  C   UNL     1      45.154   2.138   8.773  0.00  0.00    +0.000 A 
ATOM      3  C   UNL     1      44.574   2.615   9.968  0.00  0.00    +0.000 A 
ATOM      4  C   UNL     1      44.610   3.979  10.291  0.00  0.00    +0.000 A 
ATOM      5  C   UNL     1      45.271   4.848   9.406  0.00  0.00    +0.000 A 
ATOM      6  C   UNL     1      45.859   4.379   8.232  0.00  0.00    +0.000 A 
ENDROOT
BRANCH   1   7
ATOM      7  C   UNL     1      46.452   2.521   6.631  0.00  0.00    +0.000 C 
BRANCH   7   8
ATOM      8  C   UNL     1      47.825   1.877   6.864  0.00  0.00    +0.000 C 
BRANCH   8   9
ATOM      9  N   UNL     1      48.595   1.802   5.620  0.00  0.00    +0.000 NA
ATOM     10  H   UNL     1      47.959   1.657   4.835  0.00  0.00    +0.000 HD
ATOM     11  H   UNL     1      49.209   0.989   5.644  0.00  0.00    +0.000 HD
ENDBRANCH   8   9
ENDBRANCH   7   8
ENDBRANCH   1   7
BRANCH   4  12
ATOM     12  C   UNL     1      43.925   4.496  11.522  0.00  0.00    +0.000 C 
BRANCH  12  13
ATOM     13  N   UNL     1      44.416   5.790  11.982  0.00  0.00    +0.000 N 
ATOM     14  C   UNL     1      44.069   6.986  11.401  0.00  0.00    +0.000 A 
ATOM     15  C   UNL     1      44.722   7.988  12.077  0.00  0.00    +0.000 A 
ATOM     16  C   UNL     1      45.811   7.361  12.729  0.00  0.00    +0.000 A 
ATOM     17  C   UNL     1      47.047   7.820  13.215  0.00  0.00    +0.000 A 
ATOM     18  C   UNL     1      47.910   6.905  13.817  0.00  0.00    +0.000 A 
ATOM     19 BR   UNL     1      49.686   7.426  14.209  0.00  0.00    +0.000 Br
ATOM     20  C   UNL     1      47.506   5.597  14.077  0.00  0.00    +0.000 A 
ATOM     21  C   UNL     1      46.281   5.122  13.594  0.00  0.00    +0.000 A 
ATOM     22  C   UNL     1      45.502   5.997  12.822  0.00  0.00    +0.000 A 
ENDBRANCH  12  13
ENDBRANCH   4  12
TORSDOF 5
ENDMDL
MODEL 3
REMARK VINA RESULT:    -6.692      3.236      6.129
REMARK INTER + INTRA:          -9.010
REMARK INTER:                  -8.310
REMARK INTRA:                  -0.701
REMARK UNBOUND:                -0.558
REMARK  Name = 
REMARK  5 active torsions:
REMARK  status: ('A' for Active; 'I' for Inactive)
REMARK    1  A    between atoms: N_1  and  C_2
REMARK    2  A    between atoms: C_2  and  C_3
REMARK    3  A    between atoms: C_3  and  C_4
REMARK    4  A    between atoms: C_7  and  C_8
REMARK    5  A    between atoms: C_8  and  N_9
REMARK                            x       y       z     vdW  Elec       q    Type
REMARK                         _______ _______ _______ _____ _____    ______ ____
ROOT
ATOM      1  C   UNL     1      48.273   7.023  12.648  0.00  0.00    +0.000 A 
ATOM      2  C   UNL     1      47.751   5.882  13.266  0.00  0.00    +0.000 A 
ATOM      3  C   UNL     1      46.380   5.570  13.143  0.00  0.00    +0.000 A 
ATOM      4  C   UNL     1      45.528   6.366  12.364  0.00  0.00    +0.000 A 
ATOM      5  C   UNL     1      46.075   7.501  11.740  0.00  0.00    +0.000 A 
ATOM      6  C   UNL     1      47.426   7.821  11.872  0.00  0.00    +0.000 A 
ENDROOT
BRANCH   1   7
ATOM      7  C   UNL     1      49.739   7.374  12.776  0.00  0.00    +0.000 C 
BRANCH   7   8
ATOM      8  C   UNL     1      50.305   8.011  11.500  0.00  0.00    +0.000 C 
BRANCH   8   9
ATOM      9  N   UNL     1      51.502   7.304  11.040  0.00  0.00    +0.000 NA
ATOM     10  H   UNL     1      52.031   7.906  10.408  0.00  0.00    +0.000 HD
ATOM     11  H   UNL     1      51.231   6.487  10.495  0.00  0.00    +0.000 HD
ENDBRANCH   8   9
ENDBRANCH   7   8
ENDBRANCH   1   7
BRANCH   4  12
ATOM     12  C   UNL     1      44.088   5.991  12.169  0.00  0.00    +0.000 C 
BRANCH  12  13
ATOM     13  N   UNL     1      43.888   4.678  11.567  0.00  0.00    +0.000 N 
ATOM     14  C   UNL     1      43.444   3.580  12.266  0.00  0.00    +0.000 A 
ATOM     15  C   UNL     1      43.386   2.521  11.393  0.00  0.00    +0.000 A 
ATOM     16  C   UNL     1      44.241   2.865  10.318  0.00  0.00    +0.000 A 
ATOM     17  C   UNL     1      44.933   2.117   9.350  0.00  0.00    +0.000 A 
ATOM     18  C   UNL     1      45.713   2.795   8.413  0.00  0.00    +0.000 A 
ATOM     19 BR   UNL     1      46.881   1.814   7.295  0.00  0.00    +0.000 Br
ATOM     20  C   UNL     1      45.690   4.186   8.330  0.00  0.00    +0.000 A 
ATOM     21  C   UNL     1      45.011   4.946   9.289  0.00  0.00    +0.000 A 
ATOM     22  C   UNL     1      44.387   4.259  10.342  0.00  0.00    +0.000 A 
ENDBRANCH  12  13
ENDBRANCH   4  12
TORSDOF 5
ENDMDL
MODEL 4
REMARK VINA RESULT:    -6.478      3.201      6.939
REMARK INTER + INTRA:          -8.740
REMARK INTER:                  -8.518
REMARK INTRA:                  -0.222
REMARK UNBOUND:                -0.558
REMARK  Name = 
REMARK  5 active torsions:
REMARK  status: ('A' for Active; 'I' for Inactive)
REMARK    1  A    between atoms: N_1  and  C_2
REMARK    2  A    between atoms: C_2  and  C_3
REMARK    3  A    between atoms: C_3  and  C_4
REMARK    4  A    between atoms: C_7  and  C_8
REMARK    5  A    between atoms: C_8  and  N_9
REMARK                            x       y       z     vdW  Elec       q    Type
REMARK                         _______ _______ _______ _____ _____    ______ ____
ROOT
ATOM      1  C   UNL     1      47.686   6.502  14.048  0.00  0.00    +0.000 A 
ATOM      2  C   UNL     1      47.040   5.270  13.899  0.00  0.00    +0.000 A 
ATOM      3  C   UNL     1      45.927   5.152  13.039  0.00  0.00    +0.000 A 
ATOM      4  C   UNL     1      45.480   6.245  12.284  0.00  0.00    +0.000 A 
ATOM      5  C   UNL     1      46.152   7.470  12.438  0.00  0.00    +0.000 A 
ATOM      6  C   UNL     1      47.243   7.596  13.298  0.00  0.00    +0.000 A 
ENDROOT
BRANCH   1   7
ATOM      7  C   UNL     1      48.877   6.647  14.970  0.00  0.00    +0.000 C 
BRANCH   7   8
ATOM      8  C   UNL     1      48.692   5.892  16.294  0.00  0.00    +0.000 C 
BRANCH   8   9
ATOM      9  N   UNL     1      48.263   6.794  17.364  0.00  0.00    +0.000 NA
ATOM     10  H   UNL     1      47.325   7.140  17.162  0.00  0.00    +0.000 HD
ATOM     11  H   UNL     1      48.870   7.613  17.387  0.00  0.00    +0.000 HD
ENDBRANCH   8   9
ENDBRANCH   7   8
ENDBRANCH   1   7
BRANCH   4  12
ATOM     12  C   UNL     1      44.347   6.098  11.311  0.00  0.00    +0.000 C 
BRANCH  12  13
ATOM     13  N   UNL     1      44.110   4.728  10.871  0.00  0.00    +0.000 N 
ATOM     14  C   UNL     1      43.568   3.754  11.675  0.00  0.00    +0.000 A 
ATOM     15  C   UNL     1      43.502   2.593  10.944  0.00  0.00    +0.000 A 
ATOM     16  C   UNL     1      44.435   2.752   9.890  0.00  0.00    +0.000 A 
ATOM     17  C   UNL     1      45.140   1.852   9.073  0.00  0.00    +0.000 A 
ATOM     18  C   UNL     1      46.007   2.364   8.109  0.00  0.00    +0.000 A 
ATOM     19 BR   UNL     1      47.183   1.191   7.203  0.00  0.00    +0.000 Br
ATOM     20  C   UNL     1      46.066   3.732   7.846  0.00  0.00    +0.000 A 
ATOM     21  C   UNL     1      45.375   4.642   8.654  0.00  0.00    +0.000 A 
ATOM     22  C   UNL     1      44.655   4.128   9.745  0.00  0.00    +0.000 A 
ENDBRANCH  12  13
ENDBRANCH   4  12
TORSDOF 5
ENDMDL
MODEL 5
REMARK VINA RESULT:    -6.002      1.819      2.759
REMARK INTER + INTRA:          -8.139
REMARK INTER:                  -7.761
REMARK INTRA:                  -0.378
REMARK UNBOUND:                -0.558
REMARK  Name = 
REMARK  5 active torsions:
REMARK  status: ('A' for Active; 'I' for Inactive)
REMARK    1  A    between atoms: N_1  and  C_2
REMARK    2  A    between atoms: C_2  and  C_3
REMARK    3  A    between atoms: C_3  and  C_4
REMARK    4  A    between atoms: C_7  and  C_8
REMARK    5  A    between atoms: C_8  and  N_9
REMARK                            x       y       z     vdW  Elec       q    Type
REMARK                         _______ _______ _______ _____ _____    ______ ____
ROOT
ATOM      1  C   UNL     1      44.756   3.559   9.543  0.00  0.00    +0.000 A 
ATOM      2  C   UNL     1      45.490   4.749   9.493  0.00  0.00    +0.000 A 
ATOM      3  C   UNL     1      45.454   5.652  10.578  0.00  0.00    +0.000 A 
ATOM      4  C   UNL     1      44.727   5.354  11.739  0.00  0.00    +0.000 A 
ATOM      5  C   UNL     1      44.008   4.147  11.774  0.00  0.00    +0.000 A 
ATOM      6  C   UNL     1      44.028   3.259  10.699  0.00  0.00    +0.000 A 
ENDROOT
BRANCH   1   7
ATOM      7  C   UNL     1      44.780   2.583   8.387  0.00  0.00    +0.000 C 
BRANCH   7   8
ATOM      8  C   UNL     1      46.206   2.220   7.952  0.00  0.00    +0.000 C 
BRANCH   8   9
ATOM      9  N   UNL     1      46.438   0.777   8.049  0.00  0.00    +0.000 NA
ATOM     10  H   UNL     1      46.282   0.346   7.137  0.00  0.00    +0.000 HD
ATOM     11  H   UNL     1      45.757   0.361   8.682  0.00  0.00    +0.000 HD
ENDBRANCH   8   9
ENDBRANCH   7   8
ENDBRANCH   1   7
BRANCH   4  12
ATOM     12  C   UNL     1      44.752   6.278  12.921  0.00  0.00    +0.000 C 
BRANCH  12  13
ATOM     13  N   UNL     1      45.546   7.485  12.722  0.00  0.00    +0.000 N 
ATOM     14  C   UNL     1      45.044   8.644  12.179  0.00  0.00    +0.000 A 
ATOM     15  C   UNL     1      46.065   9.561  12.128  0.00  0.00    +0.000 A 
ATOM     16  C   UNL     1      47.261   8.805  12.184  0.00  0.00    +0.000 A 
ATOM     17  C   UNL     1      48.584   9.049  11.780  0.00  0.00    +0.000 A 
ATOM     18  C   UNL     1      49.541   8.055  11.987  0.00  0.00    +0.000 A 
ATOM     19 BR   UNL     1      51.248   8.232  11.193  0.00  0.00    +0.000 Br
ATOM     20  C   UNL     1      49.238   6.907  12.717  0.00  0.00    +0.000 A 
ATOM     21  C   UNL     1      47.925   6.646  13.122  0.00  0.00    +0.000 A 
ATOM     22  C   UNL     1      46.932   7.562  12.740  0.00  0.00    +0.000 A 
ENDBRANCH  12  13
ENDBRANCH   4  12
TORSDOF 5
ENDMDL
MODEL 6
REMARK VINA RESULT:    -5.513      4.436      7.991
REMARK INTER + INTRA:          -7.521
REMARK INTER:                  -6.905
REMARK INTRA:                  -0.615
REMARK UNBOUND:                -0.558
REMARK  Name = 
REMARK  5 active torsions:
REMARK  status: ('A' for Active; 'I' for Inactive)
REMARK    1  A    between atoms: N_1  and  C_2
REMARK    2  A    between atoms: C_2  and  C_3
REMARK    3  A    between atoms: C_3  and  C_4
REMARK    4  A    between atoms: C_7  and  C_8
REMARK    5  A    between atoms: C_8  and  N_9
REMARK                            x       y       z     vdW  Elec       q    Type
REMARK                         _______ _______ _______ _____ _____    ______ ____
ROOT
ATOM      1  C   UNL     1      51.400   3.574  17.714  0.00  0.00    +0.000 A 
ATOM      2  C   UNL     1      50.041   3.282  17.564  0.00  0.00    +0.000 A 
ATOM      3  C   UNL     1      49.143   4.281  17.128  0.00  0.00    +0.000 A 
ATOM      4  C   UNL     1      49.601   5.563  16.792  0.00  0.00    +0.000 A 
ATOM      5  C   UNL     1      50.973   5.831  16.937  0.00  0.00    +0.000 A 
ATOM      6  C   UNL     1      51.861   4.852  17.382  0.00  0.00    +0.000 A 
ENDROOT
BRANCH   1   7
ATOM      7  C   UNL     1      52.374   2.516  18.186  0.00  0.00    +0.000 C 
BRANCH   7   8
ATOM      8  C   UNL     1      52.260   1.212  17.386  0.00  0.00    +0.000 C 
BRANCH   8   9
ATOM      9  N   UNL     1      51.682   0.139  18.197  0.00  0.00    +0.000 NA
ATOM     10  H   UNL     1      50.716  -0.021  17.910  0.00  0.00    +0.000 HD
ATOM     11  H   UNL     1      51.644   0.429  19.173  0.00  0.00    +0.000 HD
ENDBRANCH   8   9
ENDBRANCH   7   8
ENDBRANCH   1   7
BRANCH   4  12
ATOM     12  C   UNL     1      48.659   6.600  16.254  0.00  0.00    +0.000 C 
BRANCH  12  13
ATOM     13  N   UNL     1      48.579   6.639  14.798  0.00  0.00    +0.000 N 
ATOM     14  C   UNL     1      49.181   7.607  14.030  0.00  0.00    +0.000 A 
ATOM     15  C   UNL     1      48.887   7.342  12.714  0.00  0.00    +0.000 A 
ATOM     16  C   UNL     1      47.734   6.521  12.738  0.00  0.00    +0.000 A 
ATOM     17  C   UNL     1      46.718   6.245  11.807  0.00  0.00    +0.000 A 
ATOM     18  C   UNL     1      45.699   5.365  12.171  0.00  0.00    +0.000 A 
ATOM     19 BR   UNL     1      44.174   5.205  11.064  0.00  0.00    +0.000 Br
ATOM     20  C   UNL     1      45.759   4.649  13.365  0.00  0.00    +0.000 A 
ATOM     21  C   UNL     1      46.760   4.916  14.306  0.00  0.00    +0.000 A 
ATOM     22  C   UNL     1      47.672   5.942  14.013  0.00  0.00    +0.000 A 
ENDBRANCH  12  13
ENDBRANCH   4  12
TORSDOF 5
ENDMDL
MODEL 7
REMARK VINA RESULT:    -5.247      3.451      5.070
REMARK INTER + INTRA:          -7.185
REMARK INTER:                  -6.613
REMARK INTRA:                  -0.572
REMARK UNBOUND:                -0.558
REMARK  Name = 
REMARK  5 active torsions:
REMARK  status: ('A' for Active; 'I' for Inactive)
REMARK    1  A    between atoms: N_1  and  C_2
REMARK    2  A    between atoms: C_2  and  C_3
REMARK    3  A    between atoms: C_3  and  C_4
REMARK    4  A    between atoms: C_7  and  C_8
REMARK    5  A    between atoms: C_8  and  N_9
REMARK                            x       y       z     vdW  Elec       q    Type
REMARK                         _______ _______ _______ _____ _____    ______ ____
ROOT
ATOM      1  C   UNL     1      45.033   5.054  11.728  0.00  0.00    +0.000 A 
ATOM      2  C   UNL     1      45.681   6.133  11.117  0.00  0.00    +0.000 A 
ATOM      3  C   UNL     1      46.845   6.683  11.695  0.00  0.00    +0.000 A 
ATOM      4  C   UNL     1      47.401   6.132  12.859  0.00  0.00    +0.000 A 
ATOM      5  C   UNL     1      46.742   5.040  13.449  0.00  0.00    +0.000 A 
ATOM      6  C   UNL     1      45.583   4.503  12.890  0.00  0.00    +0.000 A 
ENDROOT
BRANCH   1   7
ATOM      7  C   UNL     1      43.781   4.457  11.124  0.00  0.00    +0.000 C 
BRANCH   7   8
ATOM      8  C   UNL     1      43.928   2.959  10.825  0.00  0.00    +0.000 C 
BRANCH   8   9
ATOM      9  N   UNL     1      42.996   2.163  11.626  0.00  0.00    +0.000 NA
ATOM     10  H   UNL     1      42.892   2.587  12.549  0.00  0.00    +0.000 HD
ATOM     11  H   UNL     1      43.383   1.233  11.781  0.00  0.00    +0.000 HD
ENDBRANCH   8   9
ENDBRANCH   7   8
ENDBRANCH   1   7
BRANCH   4  12
ATOM     12  C   UNL     1      48.681   6.668  13.428  0.00  0.00    +0.000 C 
BRANCH  12  13
ATOM     13  N   UNL     1      48.519   7.413  14.671  0.00  0.00    +0.000 N 
ATOM     14  C   UNL     1      48.472   8.786  14.733  0.00  0.00    +0.000 A 
ATOM     15  C   UNL     1      48.327   9.143  16.052  0.00  0.00    +0.000 A 
ATOM     16  C   UNL     1      48.770   8.025  16.800  0.00  0.00    +0.000 A 
ATOM     17  C   UNL     1      49.258   7.864  18.108  0.00  0.00    +0.000 A 
ATOM     18  C   UNL     1      49.618   6.586  18.534  0.00  0.00    +0.000 A 
ATOM     19 BR   UNL     1      50.549   6.382  20.168  0.00  0.00    +0.000 Br
ATOM     20  C   UNL     1      49.359   5.465  17.748  0.00  0.00    +0.000 A 
ATOM     21  C   UNL     1      48.879   5.608  16.441  0.00  0.00    +0.000 A 
ATOM     22  C   UNL     1      48.700   6.912  15.952  0.00  0.00    +0.000 A 
ENDBRANCH  12  13
ENDBRANCH   4  12
TORSDOF 5
ENDMDL
MODEL 8
REMARK VINA RESULT:    -5.083      3.258      4.670
REMARK INTER + INTRA:          -6.978
REMARK INTER:                  -6.379
REMARK INTRA:                  -0.599
REMARK UNBOUND:                -0.558
REMARK  Name = 
REMARK  5 active torsions:
REMARK  status: ('A' for Active; 'I' for Inactive)
REMARK    1  A    between atoms: N_1  and  C_2
REMARK    2  A    between atoms: C_2  and  C_3
REMARK    3  A    between atoms: C_3  and  C_4
REMARK    4  A    between atoms: C_7  and  C_8
REMARK    5  A    between atoms: C_8  and  N_9
REMARK                            x       y       z     vdW  Elec       q    Type
REMARK                         _______ _______ _______ _____ _____    ______ ____
ROOT
ATOM      1  C   UNL     1      45.413   4.605  11.542  0.00  0.00    +0.000 A 
ATOM      2  C   UNL     1      45.946   4.532  12.834  0.00  0.00    +0.000 A 
ATOM      3  C   UNL     1      46.520   5.675  13.431  0.00  0.00    +0.000 A 
ATOM      4  C   UNL     1      46.523   6.910  12.767  0.00  0.00    +0.000 A 
ATOM      5  C   UNL     1      45.970   6.964  11.476  0.00  0.00    +0.000 A 
ATOM      6  C   UNL     1      45.416   5.834  10.876  0.00  0.00    +0.000 A 
ENDROOT
BRANCH   1   7
ATOM      7  C   UNL     1      44.800   3.387  10.885  0.00  0.00    +0.000 C 
BRANCH   7   8
ATOM      8  C   UNL     1      43.402   3.066  11.430  0.00  0.00    +0.000 C 
BRANCH   8   9
ATOM      9  N   UNL     1      43.456   2.011  12.443  0.00  0.00    +0.000 NA
ATOM     10  H   UNL     1      44.411   1.922  12.792  0.00  0.00    +0.000 HD
ATOM     11  H   UNL     1      43.223   1.114  12.018  0.00  0.00    +0.000 HD
ENDBRANCH   8   9
ENDBRANCH   7   8
ENDBRANCH   1   7
BRANCH   4  12
ATOM     12  C   UNL     1      47.062   8.141  13.434  0.00  0.00    +0.000 C 
BRANCH  12  13
ATOM     13  N   UNL     1      48.445   8.024  13.881  0.00  0.00    +0.000 N 
ATOM     14  C   UNL     1      48.855   8.296  15.165  0.00  0.00    +0.000 A 
ATOM     15  C   UNL     1      50.213   8.094  15.225  0.00  0.00    +0.000 A 
ATOM     16  C   UNL     1      50.670   8.176  13.887  0.00  0.00    +0.000 A 
ATOM     17  C   UNL     1      51.914   8.466  13.302  0.00  0.00    +0.000 A 
ATOM     18  C   UNL     1      52.015   8.465  11.911  0.00  0.00    +0.000 A 
ATOM     19 BR   UNL     1      53.584   9.136  11.095  0.00  0.00    +0.000 Br
ATOM     20  C   UNL     1      50.956   8.036  11.113  0.00  0.00    +0.000 A 
ATOM     21  C   UNL     1      49.709   7.750  11.679  0.00  0.00    +0.000 A 
ATOM     22  C   UNL     1      49.562   7.939  13.062  0.00  0.00    +0.000 A 
ENDBRANCH  12  13
ENDBRANCH   4  12
TORSDOF 5
ENDMDL
MODEL 9
REMARK VINA RESULT:    -4.840      2.397      3.916
REMARK INTER + INTRA:          -6.671
REMARK INTER:                  -6.115
REMARK INTRA:                  -0.556
REMARK UNBOUND:                -0.558
REMARK  Name = 
REMARK  5 active torsions:
REMARK  status: ('A' for Active; 'I' for Inactive)
REMARK    1  A    between atoms: N_1  and  C_2
REMARK    2  A    between atoms: C_2  and  C_3
REMARK    3  A    between atoms: C_3  and  C_4
REMARK    4  A    between atoms: C_7  and  C_8
REMARK    5  A    between atoms: C_8  and  N_9
REMARK                            x       y       z     vdW  Elec       q    Type
REMARK                         _______ _______ _______ _____ _____    ______ ____
ROOT
ATOM      1  C   UNL     1      44.707   4.211  11.402  0.00  0.00    +0.000 A 
ATOM      2  C   UNL     1      44.389   5.427  10.788  0.00  0.00    +0.000 A 
ATOM      3  C   UNL     1      44.829   6.644  11.351  0.00  0.00    +0.000 A 
ATOM      4  C   UNL     1      45.631   6.657  12.501  0.00  0.00    +0.000 A 
ATOM      5  C   UNL     1      45.951   5.423  13.094  0.00  0.00    +0.000 A 
ATOM      6  C   UNL     1      45.505   4.219  12.550  0.00  0.00    +0.000 A 
ENDROOT
BRANCH   1   7
ATOM      7  C   UNL     1      44.237   2.898  10.815  0.00  0.00    +0.000 C 
BRANCH   7   8
ATOM      8  C   UNL     1      44.614   2.747   9.335  0.00  0.00    +0.000 C 
BRANCH   8   9
ATOM      9  N   UNL     1      45.221   1.441   9.071  0.00  0.00    +0.000 NA
ATOM     10  H   UNL     1      46.064   1.565   8.509  0.00  0.00    +0.000 HD
ATOM     11  H   UNL     1      44.586   0.873   8.512  0.00  0.00    +0.000 HD
ENDBRANCH   8   9
ENDBRANCH   7   8
ENDBRANCH   1   7
BRANCH   4  12
ATOM     12  C   UNL     1      46.164   7.947  13.053  0.00  0.00    +0.000 C 
BRANCH  12  13
ATOM     13  N   UNL     1      47.613   8.084  12.961  0.00  0.00    +0.000 N 
ATOM     14  C   UNL     1      48.332   7.812  11.822  0.00  0.00    +0.000 A 
ATOM     15  C   UNL     1      49.659   8.035  12.098  0.00  0.00    +0.000 A 
ATOM     16  C   UNL     1      49.771   7.969  13.508  0.00  0.00    +0.000 A 
ATOM     17  C   UNL     1      50.836   7.702  14.386  0.00  0.00    +0.000 A 
ATOM     18  C   UNL     1      50.589   7.712  15.758  0.00  0.00    +0.000 A 
ATOM     19 BR   UNL     1      51.917   7.072  16.944  0.00  0.00    +0.000 Br
ATOM     20  C   UNL     1      49.359   8.128  16.265  0.00  0.00    +0.000 A 
ATOM     21  C   UNL     1      48.287   8.390  15.406  0.00  0.00    +0.000 A 
ATOM     22  C   UNL     1      48.491   8.191  14.031  0.00  0.00    +0.000 A 
ENDBRANCH  12  13
ENDBRANCH   4  12
TORSDOF 5
ENDMDL
