MODEL 1
REMARK VINA RESULT:    -7.957      0.000      0.000
REMARK INTER + INTRA:         -10.997
REMARK INTER:                 -10.283
REMARK INTRA:                  -0.714
REMARK UNBOUND:                -0.714
REMARK  Name = 
REMARK  5 active torsions:
REMARK  status: ('A' for Active; 'I' for Inactive)
REMARK    1  A    between atoms: C_2  and  C_3
REMARK    2  A    between atoms: C_6  and  N_7
REMARK    3  A    between atoms: N_7  and  C_8
REMARK    4  A    between atoms: C_8  and  C_9
REMARK    5  A    between atoms: C_13  and  C_14
REMARK                            x       y       z     vdW  Elec       q    Type
REMARK                         _______ _______ _______ _____ _____    ______ ____
ROOT
ATOM      1  C   UNL     1      43.891   5.102  11.053  0.00  0.00    +0.000 A 
ATOM      2  C   UNL     1      43.129   4.156  11.726  0.00  0.00    +0.000 A 
ATOM      3  N   UNL     1      43.120   2.841  11.425  0.00  0.00    +0.000 NA
ATOM      4  C   UNL     1      43.913   2.441  10.398  0.00  0.00    +0.000 A 
ATOM      5  C   UNL     1      44.747   3.277   9.654  0.00  0.00    +0.000 A 
ATOM      6  C   UNL     1      44.724   4.631  10.026  0.00  0.00    +0.000 A 
ENDROOT
BRANCH   5   7
ATOM      7  C   UNL     1      45.601   2.782   8.552  0.00  0.00    +0.000 A 
ATOM      8  C   UNL     1      46.102   3.644   7.555  0.00  0.00    +0.000 A 
ATOM      9  C   UNL     1      46.901   3.170   6.506  0.00  0.00    +0.000 A 
ATOM     10  C   UNL     1      47.212   1.816   6.425  0.00  0.00    +0.000 A 
ATOM     11  C   UNL     1      46.728   0.955   7.398  0.00  0.00    +0.000 A 
ATOM     12  F   UNL     1      47.020  -0.351   7.326  0.00  0.00    +0.000 F 
ATOM     13  C   UNL     1      45.943   1.421   8.450  0.00  0.00    +0.000 A 
ENDBRANCH   5   7
BRANCH   1  14
ATOM     14  C   UNL     1      43.883   6.543  11.496  0.00  0.00    +0.000 C 
BRANCH  14  15
ATOM     15  N   UNL     1      44.580   6.698  12.762  0.00  0.00    +0.000 N 
ATOM     16  H   UNL     1      44.394   5.956  13.435  0.00  0.00    +0.000 HD
BRANCH  15  20
ATOM     17  C   UNL     1      48.587   7.538  12.657  0.00  0.00    +0.000 A 
ATOM     18  C   UNL     1      47.621   8.472  12.324  0.00  0.00    +0.000 A 
ATOM     19  N   UNL     1      46.288   8.207  12.392  0.00  0.00    +0.000 NA
ATOM     20  C   UNL     1      45.934   6.968  12.792  0.00  0.00    +0.000 A 
ATOM     21  C   UNL     1      46.924   6.034  13.108  0.00  0.00    +0.000 A 
ATOM     22  N   UNL     1      48.258   6.291  13.066  0.00  0.00    +0.000 NA
BRANCH  17  24
ATOM     23  N   UNL     1      51.103   8.144  12.490  0.00  0.00    +0.000 NA
ATOM     24  C   UNL     1      49.983   7.853  12.576  0.00  0.00    +0.000 C 
ENDBRANCH  17  24
ENDBRANCH  15  20
ENDBRANCH  14  15
ENDBRANCH   1  14
TORSDOF 5
ENDMDL
MODEL 2
REMARK VINA RESULT:    -7.853      3.236      6.599
REMARK INTER + INTRA:         -10.862
REMARK INTER:                 -10.264
REMARK INTRA:                  -0.598
REMARK UNBOUND:                -0.714
REMARK  Name = 
REMARK  5 active torsions:
REMARK  status: ('A' for Active; 'I' for Inactive)
REMARK    1  A    between atoms: C_2  and  C_3
REMARK    2  A    between atoms: C_6  and  N_7
REMARK    3  A    between atoms: N_7  and  C_8
REMARK    4  A    between atoms: C_8  and  C_9
REMARK    5  A    between atoms: C_13  and  C_14
REMARK                            x       y       z     vdW  Elec       q    Type
REMARK                         _______ _______ _______ _____ _____    ______ ____
ROOT
ATOM      1  C   UNL     1      44.765   4.879  12.002  0.00  0.00    +0.000 A 
ATOM      2  C   UNL     1      45.129   4.122  13.107  0.00  0.00    +0.000 A 
ATOM      3  N   UNL     1      46.183   4.401  13.901  0.00  0.00    +0.000 NA
ATOM      4  C   UNL     1      46.918   5.497  13.581  0.00  0.00    +0.000 A 
ATOM      5  C   UNL     1      46.652   6.361  12.517  0.00  0.00    +0.000 A 
ATOM      6  C   UNL     1      45.533   6.025  11.738  0.00  0.00    +0.000 A 
ENDROOT
BRANCH   5   7
ATOM      7  C   UNL     1      47.482   7.550  12.223  0.00  0.00    +0.000 A 
ATOM      8  C   UNL     1      46.939   8.852  12.215  0.00  0.00    +0.000 A 
ATOM      9  C   UNL     1      47.725   9.974  11.924  0.00  0.00    +0.000 A 
ATOM     10  C   UNL     1      49.076   9.820  11.627  0.00  0.00    +0.000 A 
ATOM     11  C   UNL     1      49.626   8.548  11.632  0.00  0.00    +0.000 A 
ATOM     12  F   UNL     1      50.925   8.390  11.345  0.00  0.00    +0.000 F 
ATOM     13  C   UNL     1      48.853   7.429  11.932  0.00  0.00    +0.000 A 
ENDBRANCH   5   7
BRANCH   1  14
ATOM     14  C   UNL     1      43.535   4.525  11.206  0.00  0.00    +0.000 C 
BRANCH  14  15
ATOM     15  N   UNL     1      43.758   4.741   9.786  0.00  0.00    +0.000 N 
ATOM     16  H   UNL     1      43.850   5.720   9.522  0.00  0.00    +0.000 HD
BRANCH  15  20
ATOM     17  C   UNL     1      46.551   2.687   7.605  0.00  0.00    +0.000 A 
ATOM     18  C   UNL     1      46.416   4.063   7.536  0.00  0.00    +0.000 A 
ATOM     19  N   UNL     1      45.513   4.752   8.285  0.00  0.00    +0.000 NA
ATOM     20  C   UNL     1      44.726   4.027   9.108  0.00  0.00    +0.000 A 
ATOM     21  C   UNL     1      44.866   2.637   9.152  0.00  0.00    +0.000 A 
ATOM     22  N   UNL     1      45.778   1.939   8.426  0.00  0.00    +0.000 NA
BRANCH  17  24
ATOM     23  N   UNL     1      48.317   1.471   6.147  0.00  0.00    +0.000 NA
ATOM     24  C   UNL     1      47.515   1.995   6.802  0.00  0.00    +0.000 C 
ENDBRANCH  17  24
ENDBRANCH  15  20
ENDBRANCH  14  15
ENDBRANCH   1  14
TORSDOF 5
ENDMDL
MODEL 3
REMARK VINA RESULT:    -7.806      1.258      1.332
REMARK INTER + INTRA:         -10.802
REMARK INTER:                 -10.221
REMARK INTRA:                  -0.581
REMARK UNBOUND:                -0.714
REMARK  Name = 
REMARK  5 active torsions:
REMARK  status: ('A' for Active; 'I' for Inactive)
REMARK    1  A    between atoms: C_2  and  C_3
REMARK    2  A    between atoms: C_6  and  N_7
REMARK    3  A    between atoms: N_7  and  C_8
REMARK    4  A    between atoms: C_8  and  C_9
REMARK    5  A    between atoms: C_13  and  C_14
REMARK                            x       y       z     vdW  Elec       q    Type
REMARK                         _______ _______ _______ _____ _____    ______ ____
ROOT
ATOM      1  C   UNL     1      44.150   5.242  11.086  0.00  0.00    +0.000 A 
ATOM      2  C   UNL     1      43.277   4.361  11.712  0.00  0.00    +0.000 A 
ATOM      3  N   UNL     1      43.130   3.067  11.362  0.00  0.00    +0.000 NA
ATOM      4  C   UNL     1      43.895   2.618  10.335  0.00  0.00    +0.000 A 
ATOM      5  C   UNL     1      44.830   3.383   9.634  0.00  0.00    +0.000 A 
ATOM      6  C   UNL     1      44.948   4.718  10.056  0.00  0.00    +0.000 A 
ENDROOT
BRANCH   5   7
ATOM      7  C   UNL     1      45.647   2.837   8.529  0.00  0.00    +0.000 A 
ATOM      8  C   UNL     1      46.130   3.654   7.486  0.00  0.00    +0.000 A 
ATOM      9  C   UNL     1      46.893   3.130   6.435  0.00  0.00    +0.000 A 
ATOM     10  C   UNL     1      47.186   1.770   6.397  0.00  0.00    +0.000 A 
ATOM     11  C   UNL     1      46.721   0.953   7.415  0.00  0.00    +0.000 A 
ATOM     12  F   UNL     1      46.996  -0.358   7.385  0.00  0.00    +0.000 F 
ATOM     13  C   UNL     1      45.971   1.468   8.469  0.00  0.00    +0.000 A 
ENDBRANCH   5   7
BRANCH   1  14
ATOM     14  C   UNL     1      44.291   6.658  11.582  0.00  0.00    +0.000 C 
BRANCH  14  15
ATOM     15  N   UNL     1      45.664   7.117  11.455  0.00  0.00    +0.000 N 
ATOM     16  H   UNL     1      45.756   8.056  11.074  0.00  0.00    +0.000 HD
BRANCH  15  20
ATOM     17  C   UNL     1      48.409   6.882  14.486  0.00  0.00    +0.000 A 
ATOM     18  C   UNL     1      47.873   8.085  14.058  0.00  0.00    +0.000 A 
ATOM     19  N   UNL     1      46.934   8.163  13.075  0.00  0.00    +0.000 NA
ATOM     20  C   UNL     1      46.546   7.000  12.511  0.00  0.00    +0.000 A 
ATOM     21  C   UNL     1      47.111   5.798  12.946  0.00  0.00    +0.000 A 
ATOM     22  N   UNL     1      48.032   5.703  13.940  0.00  0.00    +0.000 NA
BRANCH  17  24
ATOM     23  N   UNL     1      50.215   6.775  16.343  0.00  0.00    +0.000 NA
ATOM     24  C   UNL     1      49.394   6.837  15.526  0.00  0.00    +0.000 C 
ENDBRANCH  17  24
ENDBRANCH  15  20
ENDBRANCH  14  15
ENDBRANCH   1  14
TORSDOF 5
ENDMDL
MODEL 4
REMARK VINA RESULT:    -7.761      3.577      7.039
REMARK INTER + INTRA:         -10.744
REMARK INTER:                 -10.059
REMARK INTRA:                  -0.685
REMARK UNBOUND:                -0.714
REMARK  Name = 
REMARK  5 active torsions:
REMARK  status: ('A' for Active; 'I' for Inactive)
REMARK    1  A    between atoms: C_2  and  C_3
REMARK    2  A    between atoms: C_6  and  N_7
REMARK    3  A    between atoms: N_7  and  C_8
REMARK    4  A    between atoms: C_8  and  C_9
REMARK    5  A    between atoms: C_13  and  C_14
REMARK                            x       y       z     vdW  Elec       q    Type
REMARK                         _______ _______ _______ _____ _____    ______ ____
ROOT
ATOM      1  C   UNL     1      45.316   4.175  12.265  0.00  0.00    +0.000 A 
ATOM      2  C   UNL     1      46.205   3.581  13.152  0.00  0.00    +0.000 A 
ATOM      3  N   UNL     1      47.224   4.232  13.749  0.00  0.00    +0.000 NA
ATOM      4  C   UNL     1      47.370   5.548  13.451  0.00  0.00    +0.000 A 
ATOM      5  C   UNL     1      46.537   6.277  12.600  0.00  0.00    +0.000 A 
ATOM      6  C   UNL     1      45.485   5.547  12.022  0.00  0.00    +0.000 A 
ENDROOT
BRANCH   5   7
ATOM      7  C   UNL     1      46.737   7.716  12.322  0.00  0.00    +0.000 A 
ATOM      8  C   UNL     1      48.011   8.250  12.042  0.00  0.00    +0.000 A 
ATOM      9  C   UNL     1      48.197   9.616  11.791  0.00  0.00    +0.000 A 
ATOM     10  C   UNL     1      47.110  10.484  11.822  0.00  0.00    +0.000 A 
ATOM     11  C   UNL     1      45.850   9.975  12.094  0.00  0.00    +0.000 A 
ATOM     12  F   UNL     1      44.798  10.804  12.128  0.00  0.00    +0.000 F 
ATOM     13  C   UNL     1      45.656   8.617  12.333  0.00  0.00    +0.000 A 
ENDBRANCH   5   7
BRANCH   1  14
ATOM     14  C   UNL     1      44.170   3.383  11.690  0.00  0.00    +0.000 C 
BRANCH  14  15
ATOM     15  N   UNL     1      43.913   3.770  10.313  0.00  0.00    +0.000 N 
ATOM     16  H   UNL     1      43.701   4.758  10.190  0.00  0.00    +0.000 HD
BRANCH  15  20
ATOM     17  C   UNL     1      46.599   2.586   7.456  0.00  0.00    +0.000 A 
ATOM     18  C   UNL     1      46.032   1.702   8.358  0.00  0.00    +0.000 A 
ATOM     19  N   UNL     1      45.113   2.086   9.285  0.00  0.00    +0.000 NA
ATOM     20  C   UNL     1      44.776   3.392   9.302  0.00  0.00    +0.000 A 
ATOM     21  C   UNL     1      45.371   4.272   8.395  0.00  0.00    +0.000 A 
ATOM     22  N   UNL     1      46.274   3.899   7.449  0.00  0.00    +0.000 NA
BRANCH  17  24
ATOM     23  N   UNL     1      48.342   1.751   5.727  0.00  0.00    +0.000 NA
ATOM     24  C   UNL     1      47.563   2.146   6.491  0.00  0.00    +0.000 C 
ENDBRANCH  17  24
ENDBRANCH  15  20
ENDBRANCH  14  15
ENDBRANCH   1  14
TORSDOF 5
ENDMDL
MODEL 5
REMARK VINA RESULT:    -7.597      2.124      2.778
REMARK INTER + INTRA:         -10.531
REMARK INTER:                 -10.009
REMARK INTRA:                  -0.523
REMARK UNBOUND:                -0.714
REMARK  Name = 
REMARK  5 active torsions:
REMARK  status: ('A' for Active; 'I' for Inactive)
REMARK    1  A    between atoms: C_2  and  C_3
REMARK    2  A    between atoms: C_6  and  N_7
REMARK    3  A    between atoms: N_7  and  C_8
REMARK    4  A    between atoms: C_8  and  C_9
REMARK    5  A    between atoms: C_13  and  C_14
REMARK                            x       y       z     vdW  Elec       q    Type
REMARK                         _______ _______ _______ _____ _____    ______ ____
ROOT
ATOM      1  C   UNL     1      44.682   5.191  11.690  0.00  0.00    +0.000 A 
ATOM      2  C   UNL     1      43.543   4.497  12.078  0.00  0.00    +0.000 A 
ATOM      3  N   UNL     1      43.068   3.408  11.440  0.00  0.00    +0.000 NA
ATOM      4  C   UNL     1      43.764   2.980  10.356  0.00  0.00    +0.000 A 
ATOM      5  C   UNL     1      44.935   3.564   9.871  0.00  0.00    +0.000 A 
ATOM      6  C   UNL     1      45.387   4.684  10.587  0.00  0.00    +0.000 A 
ENDROOT
BRANCH   5   7
ATOM      7  C   UNL     1      45.660   3.045   8.690  0.00  0.00    +0.000 A 
ATOM      8  C   UNL     1      46.071   3.891   7.639  0.00  0.00    +0.000 A 
ATOM      9  C   UNL     1      46.746   3.394   6.517  0.00  0.00    +0.000 A 
ATOM     10  C   UNL     1      47.021   2.034   6.415  0.00  0.00    +0.000 A 
ATOM     11  C   UNL     1      46.626   1.189   7.440  0.00  0.00    +0.000 A 
ATOM     12  F   UNL     1      46.885  -0.122   7.349  0.00  0.00    +0.000 F 
ATOM     13  C   UNL     1      45.965   1.677   8.564  0.00  0.00    +0.000 A 
ENDBRANCH   5   7
BRANCH   1  14
ATOM     14  C   UNL     1      45.171   6.365  12.499  0.00  0.00    +0.000 C 
BRANCH  14  15
ATOM     15  N   UNL     1      46.620   6.340  12.623  0.00  0.00    +0.000 N 
ATOM     16  H   UNL     1      47.076   7.208  12.351  0.00  0.00    +0.000 HD
BRANCH  15  20
ATOM     17  C   UNL     1      48.223   5.022  16.154  0.00  0.00    +0.000 A 
ATOM     18  C   UNL     1      47.186   4.364  15.515  0.00  0.00    +0.000 A 
ATOM     19  N   UNL     1      46.675   4.780  14.324  0.00  0.00    +0.000 NA
ATOM     20  C   UNL     1      47.219   5.889  13.782  0.00  0.00    +0.000 A 
ATOM     21  C   UNL     1      48.254   6.549  14.450  0.00  0.00    +0.000 A 
ATOM     22  N   UNL     1      48.790   6.133  15.628  0.00  0.00    +0.000 NA
BRANCH  17  24
ATOM     23  N   UNL     1      49.119   4.157  18.428  0.00  0.00    +0.000 NA
ATOM     24  C   UNL     1      48.739   4.555  17.406  0.00  0.00    +0.000 C 
ENDBRANCH  17  24
ENDBRANCH  15  20
ENDBRANCH  14  15
ENDBRANCH   1  14
TORSDOF 5
ENDMDL
MODEL 6
REMARK VINA RESULT:    -7.470      3.907      7.202
REMARK INTER + INTRA:         -10.368
REMARK INTER:                  -9.793
REMARK INTRA:                  -0.574
REMARK UNBOUND:                -0.714
REMARK  Name = 
REMARK  5 active torsions:
REMARK  status: ('A' for Active; 'I' for Inactive)
REMARK    1  A    between atoms: C_2  and  C_3
REMARK    2  A    between atoms: C_6  and  N_7
REMARK    3  A    between atoms: N_7  and  C_8
REMARK    4  A    between atoms: C_8  and  C_9
REMARK    5  A    between atoms: C_13  and  C_14
REMARK                            x       y       z     vdW  Elec       q    Type
REMARK                         _______ _______ _______ _____ _____    ______ ____
ROOT
ATOM      1  C   UNL     1      44.872   5.298  11.927  0.00  0.00    +0.000 A 
ATOM      2  C   UNL     1      45.323   6.500  11.397  0.00  0.00    +0.000 A 
ATOM      3  N   UNL     1      46.342   7.218  11.913  0.00  0.00    +0.000 NA
ATOM      4  C   UNL     1      46.951   6.714  13.017  0.00  0.00    +0.000 A 
ATOM      5  C   UNL     1      46.619   5.508  13.638  0.00  0.00    +0.000 A 
ATOM      6  C   UNL     1      45.561   4.800  13.044  0.00  0.00    +0.000 A 
ENDROOT
BRANCH   5   7
ATOM      7  C   UNL     1      47.327   5.001  14.834  0.00  0.00    +0.000 A 
ATOM      8  C   UNL     1      47.227   3.655  15.242  0.00  0.00    +0.000 A 
ATOM      9  C   UNL     1      47.889   3.181  16.382  0.00  0.00    +0.000 A 
ATOM     10  C   UNL     1      48.664   4.047  17.148  0.00  0.00    +0.000 A 
ATOM     11  C   UNL     1      48.774   5.373  16.760  0.00  0.00    +0.000 A 
ATOM     12  F   UNL     1      49.516   6.215  17.492  0.00  0.00    +0.000 F 
ATOM     13  C   UNL     1      48.128   5.849  15.621  0.00  0.00    +0.000 A 
ENDBRANCH   5   7
BRANCH   1  14
ATOM     14  C   UNL     1      43.764   4.535  11.249  0.00  0.00    +0.000 C 
BRANCH  14  15
ATOM     15  N   UNL     1      43.863   4.654   9.804  0.00  0.00    +0.000 N 
ATOM     16  H   UNL     1      43.858   5.613   9.463  0.00  0.00    +0.000 HD
BRANCH  15  20
ATOM     17  C   UNL     1      46.650   2.659   7.561  0.00  0.00    +0.000 A 
ATOM     18  C   UNL     1      46.486   4.032   7.497  0.00  0.00    +0.000 A 
ATOM     19  N   UNL     1      45.585   4.701   8.266  0.00  0.00    +0.000 NA
ATOM     20  C   UNL     1      44.831   3.960   9.104  0.00  0.00    +0.000 A 
ATOM     21  C   UNL     1      45.000   2.573   9.144  0.00  0.00    +0.000 A 
ATOM     22  N   UNL     1      45.910   1.894   8.397  0.00  0.00    +0.000 NA
BRANCH  17  24
ATOM     23  N   UNL     1      48.393   1.478   6.048  0.00  0.00    +0.000 NA
ATOM     24  C   UNL     1      47.611   1.987   6.738  0.00  0.00    +0.000 C 
ENDBRANCH  17  24
ENDBRANCH  15  20
ENDBRANCH  14  15
ENDBRANCH   1  14
TORSDOF 5
ENDMDL
MODEL 7
REMARK VINA RESULT:    -7.260      3.274      6.897
REMARK INTER + INTRA:         -10.096
REMARK INTER:                  -9.441
REMARK INTRA:                  -0.656
REMARK UNBOUND:                -0.714
REMARK  Name = 
REMARK  5 active torsions:
REMARK  status: ('A' for Active; 'I' for Inactive)
REMARK    1  A    between atoms: C_2  and  C_3
REMARK    2  A    between atoms: C_6  and  N_7
REMARK    3  A    between atoms: N_7  and  C_8
REMARK    4  A    between atoms: C_8  and  C_9
REMARK    5  A    between atoms: C_13  and  C_14
REMARK                            x       y       z     vdW  Elec       q    Type
REMARK                         _______ _______ _______ _____ _____    ______ ____
ROOT
ATOM      1  C   UNL     1      44.721   5.333  11.725  0.00  0.00    +0.000 A 
ATOM      2  C   UNL     1      43.866   6.381  11.411  0.00  0.00    +0.000 A 
ATOM      3  N   UNL     1      44.221   7.682  11.446  0.00  0.00    +0.000 NA
ATOM      4  C   UNL     1      45.499   7.959  11.811  0.00  0.00    +0.000 A 
ATOM      5  C   UNL     1      46.470   7.007  12.128  0.00  0.00    +0.000 A 
ATOM      6  C   UNL     1      46.043   5.671  12.058  0.00  0.00    +0.000 A 
ENDROOT
BRANCH   5   7
ATOM      7  C   UNL     1      47.853   7.367  12.508  0.00  0.00    +0.000 A 
ATOM      8  C   UNL     1      48.698   8.091  11.641  0.00  0.00    +0.000 A 
ATOM      9  C   UNL     1      50.012   8.420  12.000  0.00  0.00    +0.000 A 
ATOM     10  C   UNL     1      50.516   8.024  13.235  0.00  0.00    +0.000 A 
ATOM     11  C   UNL     1      49.698   7.314  14.100  0.00  0.00    +0.000 A 
ATOM     12  F   UNL     1      50.176   6.927  15.290  0.00  0.00    +0.000 F 
ATOM     13  C   UNL     1      48.388   6.993  13.755  0.00  0.00    +0.000 A 
ENDBRANCH   5   7
BRANCH   1  14
ATOM     14  C   UNL     1      44.253   3.905  11.602  0.00  0.00    +0.000 C 
BRANCH  14  15
ATOM     15  N   UNL     1      43.786   3.628  10.254  0.00  0.00    +0.000 N 
ATOM     16  H   UNL     1      43.161   4.336   9.876  0.00  0.00    +0.000 HD
BRANCH  15  20
ATOM     17  C   UNL     1      46.553   2.518   7.445  0.00  0.00    +0.000 A 
ATOM     18  C   UNL     1      46.012   1.623   8.352  0.00  0.00    +0.000 A 
ATOM     19  N   UNL     1      45.067   1.982   9.263  0.00  0.00    +0.000 NA
ATOM     20  C   UNL     1      44.676   3.273   9.259  0.00  0.00    +0.000 A 
ATOM     21  C   UNL     1      45.245   4.165   8.347  0.00  0.00    +0.000 A 
ATOM     22  N   UNL     1      46.174   3.817   7.417  0.00  0.00    +0.000 NA
BRANCH  17  24
ATOM     23  N   UNL     1      48.365   1.747   5.759  0.00  0.00    +0.000 NA
ATOM     24  C   UNL     1      47.545   2.106   6.497  0.00  0.00    +0.000 C 
ENDBRANCH  17  24
ENDBRANCH  15  20
ENDBRANCH  14  15
ENDBRANCH   1  14
TORSDOF 5
ENDMDL
MODEL 8
REMARK VINA RESULT:    -7.210      2.558      3.354
REMARK INTER + INTRA:         -10.031
REMARK INTER:                  -9.472
REMARK INTRA:                  -0.559
REMARK UNBOUND:                -0.714
REMARK  Name = 
REMARK  5 active torsions:
REMARK  status: ('A' for Active; 'I' for Inactive)
REMARK    1  A    between atoms: C_2  and  C_3
REMARK    2  A    between atoms: C_6  and  N_7
REMARK    3  A    between atoms: N_7  and  C_8
REMARK    4  A    between atoms: C_8  and  C_9
REMARK    5  A    between atoms: C_13  and  C_14
REMARK                            x       y       z     vdW  Elec       q    Type
REMARK                         _______ _______ _______ _____ _____    ______ ____
ROOT
ATOM      1  C   UNL     1      44.992   5.416  11.665  0.00  0.00    +0.000 A 
ATOM      2  C   UNL     1      43.739   4.948  12.036  0.00  0.00    +0.000 A 
ATOM      3  N   UNL     1      43.084   3.956  11.398  0.00  0.00    +0.000 NA
ATOM      4  C   UNL     1      43.710   3.393  10.332  0.00  0.00    +0.000 A 
ATOM      5  C   UNL     1      44.977   3.747   9.866  0.00  0.00    +0.000 A 
ATOM      6  C   UNL     1      45.614   4.774  10.581  0.00  0.00    +0.000 A 
ENDROOT
BRANCH   5   7
ATOM      7  C   UNL     1      45.617   3.089   8.705  0.00  0.00    +0.000 A 
ATOM      8  C   UNL     1      45.927   1.714   8.707  0.00  0.00    +0.000 A 
ATOM      9  C   UNL     1      46.543   1.098   7.610  0.00  0.00    +0.000 A 
ATOM     10  C   UNL     1      46.873   1.847   6.485  0.00  0.00    +0.000 A 
ATOM     11  C   UNL     1      46.574   3.200   6.466  0.00  0.00    +0.000 A 
ATOM     12  F   UNL     1      46.890   3.930   5.388  0.00  0.00    +0.000 F 
ATOM     13  C   UNL     1      45.951   3.817   7.548  0.00  0.00    +0.000 A 
ENDBRANCH   5   7
BRANCH   1  14
ATOM     14  C   UNL     1      45.674   6.491  12.472  0.00  0.00    +0.000 C 
BRANCH  14  15
ATOM     15  N   UNL     1      47.018   6.083  12.847  0.00  0.00    +0.000 N 
ATOM     16  H   UNL     1      47.738   6.767  12.626  0.00  0.00    +0.000 HD
BRANCH  15  20
ATOM     17  C   UNL     1      47.975   4.590  16.539  0.00  0.00    +0.000 A 
ATOM     18  C   UNL     1      48.559   5.735  16.024  0.00  0.00    +0.000 A 
ATOM     19  N   UNL     1      48.217   6.253  14.813  0.00  0.00    +0.000 NA
ATOM     20  C   UNL     1      47.276   5.587  14.111  0.00  0.00    +0.000 A 
ATOM     21  C   UNL     1      46.711   4.425  14.640  0.00  0.00    +0.000 A 
ATOM     22  N   UNL     1      47.026   3.908  15.857  0.00  0.00    +0.000 NA
BRANCH  17  24
ATOM     23  N   UNL     1      48.650   3.618  18.846  0.00  0.00    +0.000 NA
ATOM     24  C   UNL     1      48.358   4.073  17.820  0.00  0.00    +0.000 C 
ENDBRANCH  17  24
ENDBRANCH  15  20
ENDBRANCH  14  15
ENDBRANCH   1  14
TORSDOF 5
ENDMDL
MODEL 9
REMARK VINA RESULT:    -6.617      1.998      2.505
REMARK INTER + INTRA:          -9.266
REMARK INTER:                  -8.667
REMARK INTRA:                  -0.599
REMARK UNBOUND:                -0.714
REMARK  Name = 
REMARK  5 active torsions:
REMARK  status: ('A' for Active; 'I' for Inactive)
REMARK    1  A    between atoms: C_2  and  C_3
REMARK    2  A    between atoms: C_6  and  N_7
REMARK    3  A    between atoms: N_7  and  C_8
REMARK    4  A    between atoms: C_8  and  C_9
REMARK    5  A    between atoms: C_13  and  C_14
REMARK                            x       y       z     vdW  Elec       q    Type
REMARK                         _______ _______ _______ _____ _____    ______ ____
ROOT
ATOM      1  C   UNL     1      44.684   6.362  11.902  0.00  0.00    +0.000 A 
ATOM      2  C   UNL     1      43.545   5.856  12.515  0.00  0.00    +0.000 A 
ATOM      3  N   UNL     1      42.939   4.707  12.151  0.00  0.00    +0.000 NA
ATOM      4  C   UNL     1      43.496   4.018  11.123  0.00  0.00    +0.000 A 
ATOM      5  C   UNL     1      44.651   4.395  10.435  0.00  0.00    +0.000 A 
ATOM      6  C   UNL     1      45.244   5.592  10.870  0.00  0.00    +0.000 A 
ENDROOT
BRANCH   5   7
ATOM      7  C   UNL     1      45.222   3.597   9.328  0.00  0.00    +0.000 A 
ATOM      8  C   UNL     1      45.264   2.188   9.371  0.00  0.00    +0.000 A 
ATOM      9  C   UNL     1      45.816   1.437   8.326  0.00  0.00    +0.000 A 
ATOM     10  C   UNL     1      46.348   2.079   7.212  0.00  0.00    +0.000 A 
ATOM     11  C   UNL     1      46.314   3.463   7.152  0.00  0.00    +0.000 A 
ATOM     12  F   UNL     1      46.826   4.090   6.085  0.00  0.00    +0.000 F 
ATOM     13  C   UNL     1      45.756   4.216   8.182  0.00  0.00    +0.000 A 
ENDBRANCH   5   7
BRANCH   1  14
ATOM     14  C   UNL     1      45.326   7.626  12.413  0.00  0.00    +0.000 C 
BRANCH  14  15
ATOM     15  N   UNL     1      46.757   7.620  12.155  0.00  0.00    +0.000 N 
ATOM     16  H   UNL     1      47.084   8.410  11.603  0.00  0.00    +0.000 HD
BRANCH  15  20
ATOM     17  C   UNL     1      49.573   7.018  15.067  0.00  0.00    +0.000 A 
ATOM     18  C   UNL     1      49.592   8.120  14.229  0.00  0.00    +0.000 A 
ATOM     19  N   UNL     1      48.638   8.341  13.284  0.00  0.00    +0.000 NA
ATOM     20  C   UNL     1      47.658   7.418  13.182  0.00  0.00    +0.000 A 
ATOM     21  C   UNL     1      47.665   6.305  14.026  0.00  0.00    +0.000 A 
ATOM     22  N   UNL     1      48.599   6.083  14.988  0.00  0.00    +0.000 NA
BRANCH  17  24
ATOM     23  N   UNL     1      51.437   6.626  16.827  0.00  0.00    +0.000 NA
ATOM     24  C   UNL     1      50.594   6.818  16.053  0.00  0.00    +0.000 C 
ENDBRANCH  17  24
ENDBRANCH  15  20
ENDBRANCH  14  15
ENDBRANCH   1  14
TORSDOF 5
ENDMDL
