MODEL 1
REMARK VINA RESULT:    -8.133      0.000      0.000
REMARK INTER + INTRA:         -10.297
REMARK INTER:                 -10.035
REMARK INTRA:                  -0.262
REMARK UNBOUND:                -0.262
REMARK  Name = 
REMARK  4 active torsions:
REMARK  status: ('A' for Active; 'I' for Inactive)
REMARK    1  A    between atoms: C_2  and  C_4
REMARK    2  A    between atoms: N_8  and  C_9
REMARK    3  A    between atoms: C_9  and  C_10
REMARK    4  A    between atoms: C_13  and  C_14
REMARK                            x       y       z     vdW  Elec       q    Type
REMARK                         _______ _______ _______ _____ _____    ______ ____
ROOT
ATOM      1  C   UNL     1      47.825   5.867  14.765  0.00  0.00    +0.000 A 
ATOM      2  C   UNL     1      47.036   4.746  14.524  0.00  0.00    +0.000 A 
ATOM      3  C   UNL     1      46.222   4.719  13.388  0.00  0.00    +0.000 A 
ATOM      4  C   UNL     1      46.220   5.801  12.517  0.00  0.00    +0.000 A 
ATOM      5  N   UNL     1      45.376   5.904  11.420  0.00  0.00    +0.000 N 
ATOM      6  N   UNL     1      47.001   6.882  12.732  0.00  0.00    +0.000 NA
ATOM      7  C   UNL     1      47.768   6.904  13.851  0.00  0.00    +0.000 A 
ATOM      8  H   UNL     1      45.647   6.690  10.838  0.00  0.00    +0.000 HD
ENDROOT
BRANCH   1  10
ATOM      9  N   UNL     1      48.065   5.930  17.182  0.00  0.00    +0.000 N 
ATOM     10  C   UNL     1      48.676   6.014  15.963  0.00  0.00    +0.000 C 
ATOM     11  O   UNL     1      49.886   6.169  15.872  0.00  0.00    +0.000 OA
ATOM     12  H   UNL     1      48.673   5.945  17.991  0.00  0.00    +0.000 HD
ATOM     13  H   UNL     1      47.134   5.558  17.301  0.00  0.00    +0.000 HD
ENDBRANCH   1  10
BRANCH   5  14
ATOM     14  C   UNL     1      44.525   4.839  10.866  0.00  0.00    +0.000 C 
ATOM     15  C   UNL     1      43.035   5.162  10.853  0.00  0.00    +0.000 C 
ATOM     16  C   UNL     1      43.544   4.080  11.747  0.00  0.00    +0.000 C 
BRANCH  14  17
ATOM     17  C   UNL     1      45.123   4.093   9.661  0.00  0.00    +0.000 A 
ATOM     18  N   UNL     1      45.075   2.739   9.649  0.00  0.00    +0.000 NA
ATOM     19  C   UNL     1      45.676   2.105   8.622  0.00  0.00    +0.000 A 
ATOM     20  C   UNL     1      46.323   2.755   7.600  0.00  0.00    +0.000 A 
ATOM     21  C   UNL     1      46.296   4.126   7.674  0.00  0.00    +0.000 A 
ATOM     22  N   UNL     1      45.713   4.810   8.678  0.00  0.00    +0.000 NA
BRANCH  20  23
ATOM     23  C   UNL     1      47.016   2.041   6.498  0.00  0.00    +0.000 C 
ATOM     24  F   UNL     1      46.822   0.694   6.519  0.00  0.00    +0.000 F 
ATOM     25  F   UNL     1      46.610   2.458   5.268  0.00  0.00    +0.000 F 
ATOM     26  F   UNL     1      48.364   2.224   6.528  0.00  0.00    +0.000 F 
ENDBRANCH  20  23
ENDBRANCH  14  17
ENDBRANCH   5  14
TORSDOF 4
ENDMDL
MODEL 2
REMARK VINA RESULT:    -8.054      4.337      7.310
REMARK INTER + INTRA:         -10.200
REMARK INTER:                  -9.651
REMARK INTRA:                  -0.549
REMARK UNBOUND:                -0.262
REMARK  Name = 
REMARK  4 active torsions:
REMARK  status: ('A' for Active; 'I' for Inactive)
REMARK    1  A    between atoms: C_2  and  C_4
REMARK    2  A    between atoms: N_8  and  C_9
REMARK    3  A    between atoms: C_9  and  C_10
REMARK    4  A    between atoms: C_13  and  C_14
REMARK                            x       y       z     vdW  Elec       q    Type
REMARK                         _______ _______ _______ _____ _____    ______ ____
ROOT
ATOM      1  C   UNL     1      46.507   2.838   7.525  0.00  0.00    +0.000 A 
ATOM      2  C   UNL     1      46.328   4.170   7.885  0.00  0.00    +0.000 A 
ATOM      3  C   UNL     1      45.594   4.471   9.035  0.00  0.00    +0.000 A 
ATOM      4  C   UNL     1      45.065   3.441   9.803  0.00  0.00    +0.000 A 
ATOM      5  N   UNL     1      44.244   3.645  10.904  0.00  0.00    +0.000 N 
ATOM      6  N   UNL     1      45.255   2.145   9.474  0.00  0.00    +0.000 NA
ATOM      7  C   UNL     1      45.950   1.869   8.341  0.00  0.00    +0.000 A 
ATOM      8  H   UNL     1      44.103   2.774  11.405  0.00  0.00    +0.000 HD
ENDROOT
BRANCH   1  10
ATOM      9  N   UNL     1      47.116   3.229   5.206  0.00  0.00    +0.000 N 
ATOM     10  C   UNL     1      47.219   2.419   6.301  0.00  0.00    +0.000 C 
ATOM     11  O   UNL     1      47.906   1.407   6.275  0.00  0.00    +0.000 OA
ATOM     12  H   UNL     1      47.679   2.975   4.404  0.00  0.00    +0.000 HD
ATOM     13  H   UNL     1      46.778   4.179   5.260  0.00  0.00    +0.000 HD
ENDBRANCH   1  10
BRANCH   5  14
ATOM     14  C   UNL     1      43.976   4.929  11.571  0.00  0.00    +0.000 C 
ATOM     15  C   UNL     1      42.580   5.050  12.171  0.00  0.00    +0.000 C 
ATOM     16  C   UNL     1      42.958   5.908  11.009  0.00  0.00    +0.000 C 
BRANCH  14  17
ATOM     17  C   UNL     1      45.163   5.512  12.356  0.00  0.00    +0.000 A 
ATOM     18  N   UNL     1      45.489   6.812  12.167  0.00  0.00    +0.000 NA
ATOM     19  C   UNL     1      46.582   7.279  12.804  0.00  0.00    +0.000 A 
ATOM     20  C   UNL     1      47.369   6.512  13.628  0.00  0.00    +0.000 A 
ATOM     21  C   UNL     1      46.948   5.215  13.788  0.00  0.00    +0.000 A 
ATOM     22  N   UNL     1      45.867   4.696  13.174  0.00  0.00    +0.000 NA
BRANCH  20  23
ATOM     23  C   UNL     1      48.593   7.029  14.290  0.00  0.00    +0.000 C 
ATOM     24  F   UNL     1      48.464   8.307  14.743  0.00  0.00    +0.000 F 
ATOM     25  F   UNL     1      48.958   6.286  15.369  0.00  0.00    +0.000 F 
ATOM     26  F   UNL     1      49.669   7.035  13.459  0.00  0.00    +0.000 F 
ENDBRANCH  20  23
ENDBRANCH  14  17
ENDBRANCH   5  14
TORSDOF 4
ENDMDL
MODEL 3
REMARK VINA RESULT:    -7.894      1.639      2.017
REMARK INTER + INTRA:         -10.003
REMARK INTER:                  -9.903
REMARK INTRA:                  -0.100
REMARK UNBOUND:                -0.262
REMARK  Name = 
REMARK  4 active torsions:
REMARK  status: ('A' for Active; 'I' for Inactive)
REMARK    1  A    between atoms: C_2  and  C_4
REMARK    2  A    between atoms: N_8  and  C_9
REMARK    3  A    between atoms: C_9  and  C_10
REMARK    4  A    between atoms: C_13  and  C_14
REMARK                            x       y       z     vdW  Elec       q    Type
REMARK                         _______ _______ _______ _____ _____    ______ ____
ROOT
ATOM      1  C   UNL     1      47.140   8.102  13.254  0.00  0.00    +0.000 A 
ATOM      2  C   UNL     1      47.198   6.719  13.389  0.00  0.00    +0.000 A 
ATOM      3  C   UNL     1      46.332   5.924  12.633  0.00  0.00    +0.000 A 
ATOM      4  C   UNL     1      45.437   6.525  11.756  0.00  0.00    +0.000 A 
ATOM      5  N   UNL     1      44.477   5.825  11.038  0.00  0.00    +0.000 N 
ATOM      6  N   UNL     1      45.391   7.866  11.602  0.00  0.00    +0.000 NA
ATOM      7  C   UNL     1      46.222   8.625  12.360  0.00  0.00    +0.000 A 
ATOM      8  H   UNL     1      44.042   6.429  10.349  0.00  0.00    +0.000 HD
ENDROOT
BRANCH   1  10
ATOM      9  N   UNL     1      47.638   9.208  15.359  0.00  0.00    +0.000 N 
ATOM     10  C   UNL     1      47.973   9.028  14.047  0.00  0.00    +0.000 C 
ATOM     11  O   UNL     1      48.949   9.585  13.562  0.00  0.00    +0.000 OA
ATOM     12  H   UNL     1      48.270   9.775  15.910  0.00  0.00    +0.000 HD
ATOM     13  H   UNL     1      47.013   8.588  15.853  0.00  0.00    +0.000 HD
ENDBRANCH   1  10
BRANCH   5  14
ATOM     14  C   UNL     1      44.377   4.363  10.901  0.00  0.00    +0.000 C 
ATOM     15  C   UNL     1      43.049   3.774  11.363  0.00  0.00    +0.000 C 
ATOM     16  C   UNL     1      44.295   3.464  12.125  0.00  0.00    +0.000 C 
BRANCH  14  17
ATOM     17  C   UNL     1      45.036   3.784   9.638  0.00  0.00    +0.000 A 
ATOM     18  N   UNL     1      45.135   2.439   9.517  0.00  0.00    +0.000 NA
ATOM     19  C   UNL     1      45.787   1.957   8.439  0.00  0.00    +0.000 A 
ATOM     20  C   UNL     1      46.345   2.753   7.469  0.00  0.00    +0.000 A 
ATOM     21  C   UNL     1      46.170   4.102   7.653  0.00  0.00    +0.000 A 
ATOM     22  N   UNL     1      45.531   4.637   8.712  0.00  0.00    +0.000 NA
BRANCH  20  23
ATOM     23  C   UNL     1      47.096   2.208   6.310  0.00  0.00    +0.000 C 
ATOM     24  F   UNL     1      48.438   2.428   6.383  0.00  0.00    +0.000 F 
ATOM     25  F   UNL     1      46.945   0.863   6.175  0.00  0.00    +0.000 F 
ATOM     26  F   UNL     1      46.694   2.750   5.130  0.00  0.00    +0.000 F 
ENDBRANCH  20  23
ENDBRANCH  14  17
ENDBRANCH   5  14
TORSDOF 4
ENDMDL
MODEL 4
REMARK VINA RESULT:    -7.137      4.572      7.281
REMARK INTER + INTRA:          -9.068
REMARK INTER:                  -9.302
REMARK INTRA:                   0.234
REMARK UNBOUND:                -0.262
REMARK  Name = 
REMARK  4 active torsions:
REMARK  status: ('A' for Active; 'I' for Inactive)
REMARK    1  A    between atoms: C_2  and  C_4
REMARK    2  A    between atoms: N_8  and  C_9
REMARK    3  A    between atoms: C_9  and  C_10
REMARK    4  A    between atoms: C_13  and  C_14
REMARK                            x       y       z     vdW  Elec       q    Type
REMARK                         _______ _______ _______ _____ _____    ______ ____
ROOT
ATOM      1  C   UNL     1      46.612   2.406   7.493  0.00  0.00    +0.000 A 
ATOM      2  C   UNL     1      46.094   2.061   8.737  0.00  0.00    +0.000 A 
ATOM      3  C   UNL     1      45.538   3.057   9.543  0.00  0.00    +0.000 A 
ATOM      4  C   UNL     1      45.501   4.369   9.088  0.00  0.00    +0.000 A 
ATOM      5  N   UNL     1      45.056   5.437   9.855  0.00  0.00    +0.000 N 
ATOM      6  N   UNL     1      45.978   4.708   7.871  0.00  0.00    +0.000 NA
ATOM      7  C   UNL     1      46.537   3.734   7.110  0.00  0.00    +0.000 A 
ATOM      8  H   UNL     1      44.966   6.270   9.282  0.00  0.00    +0.000 HD
ENDROOT
BRANCH   1  10
ATOM      9  N   UNL     1      48.294   1.896   5.816  0.00  0.00    +0.000 N 
ATOM     10  C   UNL     1      47.268   1.437   6.593  0.00  0.00    +0.000 C 
ATOM     11  O   UNL     1      46.935   0.260   6.567  0.00  0.00    +0.000 OA
ATOM     12  H   UNL     1      48.790   1.203   5.271  0.00  0.00    +0.000 HD
ATOM     13  H   UNL     1      48.757   2.776   5.988  0.00  0.00    +0.000 HD
ENDBRANCH   1  10
BRANCH   5  14
ATOM     14  C   UNL     1      44.361   5.358  11.150  0.00  0.00    +0.000 C 
ATOM     15  C   UNL     1      42.997   4.679  11.094  0.00  0.00    +0.000 C 
ATOM     16  C   UNL     1      43.080   6.138  11.401  0.00  0.00    +0.000 C 
BRANCH  14  17
ATOM     17  C   UNL     1      45.270   5.076  12.357  0.00  0.00    +0.000 A 
ATOM     18  N   UNL     1      45.291   3.825  12.875  0.00  0.00    +0.000 NA
ATOM     19  C   UNL     1      46.034   3.622  13.982  0.00  0.00    +0.000 A 
ATOM     20  C   UNL     1      46.765   4.607  14.599  0.00  0.00    +0.000 A 
ATOM     21  C   UNL     1      46.713   5.836  13.990  0.00  0.00    +0.000 A 
ATOM     22  N   UNL     1      45.985   6.095  12.886  0.00  0.00    +0.000 NA
BRANCH  20  23
ATOM     23  C   UNL     1      47.545   4.377  15.842  0.00  0.00    +0.000 C 
ATOM     24  F   UNL     1      48.163   3.165  15.875  0.00  0.00    +0.000 F 
ATOM     25  F   UNL     1      48.525   5.302  16.021  0.00  0.00    +0.000 F 
ATOM     26  F   UNL     1      46.770   4.432  16.958  0.00  0.00    +0.000 F 
ENDBRANCH  20  23
ENDBRANCH  14  17
ENDBRANCH   5  14
TORSDOF 4
ENDMDL
MODEL 5
REMARK VINA RESULT:    -6.254      5.392      8.464
REMARK INTER + INTRA:          -7.979
REMARK INTER:                  -7.995
REMARK INTRA:                   0.016
REMARK UNBOUND:                -0.262
REMARK  Name = 
REMARK  4 active torsions:
REMARK  status: ('A' for Active; 'I' for Inactive)
REMARK    1  A    between atoms: C_2  and  C_4
REMARK    2  A    between atoms: N_8  and  C_9
REMARK    3  A    between atoms: C_9  and  C_10
REMARK    4  A    between atoms: C_13  and  C_14
REMARK                            x       y       z     vdW  Elec       q    Type
REMARK                         _______ _______ _______ _____ _____    ______ ____
ROOT
ATOM      1  C   UNL     1      46.007   5.540  12.136  0.00  0.00    +0.000 A 
ATOM      2  C   UNL     1      47.086   6.202  12.714  0.00  0.00    +0.000 A 
ATOM      3  C   UNL     1      47.499   5.839  13.998  0.00  0.00    +0.000 A 
ATOM      4  C   UNL     1      46.835   4.821  14.672  0.00  0.00    +0.000 A 
ATOM      5  N   UNL     1      47.112   4.458  15.983  0.00  0.00    +0.000 N 
ATOM      6  N   UNL     1      45.802   4.157  14.108  0.00  0.00    +0.000 NA
ATOM      7  C   UNL     1      45.398   4.538  12.870  0.00  0.00    +0.000 A 
ATOM      8  H   UNL     1      46.626   3.599  16.221  0.00  0.00    +0.000 HD
ENDROOT
BRANCH   1  10
ATOM      9  N   UNL     1      44.321   6.638  10.774  0.00  0.00    +0.000 N 
ATOM     10  C   UNL     1      45.462   5.888  10.809  0.00  0.00    +0.000 C 
ATOM     11  O   UNL     1      46.027   5.550   9.777  0.00  0.00    +0.000 OA
ATOM     12  H   UNL     1      44.010   6.942   9.860  0.00  0.00    +0.000 HD
ATOM     13  H   UNL     1      43.974   7.141  11.578  0.00  0.00    +0.000 HD
ENDBRANCH   1  10
BRANCH   5  14
ATOM     14  C   UNL     1      48.256   4.904  16.793  0.00  0.00    +0.000 C 
ATOM     15  C   UNL     1      47.882   5.772  17.990  0.00  0.00    +0.000 C 
ATOM     16  C   UNL     1      48.647   6.372  16.857  0.00  0.00    +0.000 C 
BRANCH  14  17
ATOM     17  C   UNL     1      49.374   3.863  16.964  0.00  0.00    +0.000 A 
ATOM     18  N   UNL     1      49.122   2.578  16.618  0.00  0.00    +0.000 NA
ATOM     19  C   UNL     1      50.090   1.669  16.851  0.00  0.00    +0.000 A 
ATOM     20  C   UNL     1      51.305   1.978  17.412  0.00  0.00    +0.000 A 
ATOM     21  C   UNL     1      51.489   3.307  17.703  0.00  0.00    +0.000 A 
ATOM     22  N   UNL     1      50.555   4.256  17.494  0.00  0.00    +0.000 NA
BRANCH  20  23
ATOM     23  C   UNL     1      52.345   0.958  17.702  0.00  0.00    +0.000 C 
ATOM     24  F   UNL     1      52.948   0.468  16.584  0.00  0.00    +0.000 F 
ATOM     25  F   UNL     1      53.346   1.441  18.485  0.00  0.00    +0.000 F 
ATOM     26  F   UNL     1      51.844  -0.122  18.359  0.00  0.00    +0.000 F 
ENDBRANCH  20  23
ENDBRANCH  14  17
ENDBRANCH   5  14
TORSDOF 4
ENDMDL
MODEL 6
REMARK VINA RESULT:    -5.885      6.041      8.695
REMARK INTER + INTRA:          -7.523
REMARK INTER:                  -7.213
REMARK INTRA:                  -0.310
REMARK UNBOUND:                -0.262
REMARK  Name = 
REMARK  4 active torsions:
REMARK  status: ('A' for Active; 'I' for Inactive)
REMARK    1  A    between atoms: C_2  and  C_4
REMARK    2  A    between atoms: N_8  and  C_9
REMARK    3  A    between atoms: C_9  and  C_10
REMARK    4  A    between atoms: C_13  and  C_14
REMARK                            x       y       z     vdW  Elec       q    Type
REMARK                         _______ _______ _______ _____ _____    ______ ____
ROOT
ATOM      1  C   UNL     1      44.615   4.438  12.428  0.00  0.00    +0.000 A 
ATOM      2  C   UNL     1      45.933   4.127  12.746  0.00  0.00    +0.000 A 
ATOM      3  C   UNL     1      46.790   5.146  13.170  0.00  0.00    +0.000 A 
ATOM      4  C   UNL     1      46.312   6.447  13.275  0.00  0.00    +0.000 A 
ATOM      5  N   UNL     1      47.111   7.536  13.594  0.00  0.00    +0.000 N 
ATOM      6  N   UNL     1      45.027   6.752  12.991  0.00  0.00    +0.000 NA
ATOM      7  C   UNL     1      44.214   5.756  12.558  0.00  0.00    +0.000 A 
ATOM      8  H   UNL     1      46.537   8.354  13.771  0.00  0.00    +0.000 HD
ENDROOT
BRANCH   1  10
ATOM      9  N   UNL     1      43.714   2.182  12.440  0.00  0.00    +0.000 N 
ATOM     10  C   UNL     1      43.650   3.443  11.919  0.00  0.00    +0.000 C 
ATOM     11  O   UNL     1      42.799   3.742  11.091  0.00  0.00    +0.000 OA
ATOM     12  H   UNL     1      42.991   1.537  12.146  0.00  0.00    +0.000 HD
ATOM     13  H   UNL     1      44.219   1.966  13.287  0.00  0.00    +0.000 HD
ENDBRANCH   1  10
BRANCH   5  14
ATOM     14  C   UNL     1      48.499   7.493  14.081  0.00  0.00    +0.000 C 
ATOM     15  C   UNL     1      49.376   8.640  13.591  0.00  0.00    +0.000 C 
ATOM     16  C   UNL     1      49.657   7.250  13.126  0.00  0.00    +0.000 C 
BRANCH  14  17
ATOM     17  C   UNL     1      48.662   7.014  15.533  0.00  0.00    +0.000 A 
ATOM     18  N   UNL     1      48.902   5.700  15.758  0.00  0.00    +0.000 NA
ATOM     19  C   UNL     1      48.962   5.290  17.041  0.00  0.00    +0.000 A 
ATOM     20  C   UNL     1      48.798   6.129  18.117  0.00  0.00    +0.000 A 
ATOM     21  C   UNL     1      48.591   7.448  17.798  0.00  0.00    +0.000 A 
ATOM     22  N   UNL     1      48.519   7.911  16.535  0.00  0.00    +0.000 NA
BRANCH  20  23
ATOM     23  C   UNL     1      48.825   5.654  19.524  0.00  0.00    +0.000 C 
ATOM     24  F   UNL     1      49.636   6.394  20.329  0.00  0.00    +0.000 F 
ATOM     25  F   UNL     1      47.596   5.679  20.107  0.00  0.00    +0.000 F 
ATOM     26  F   UNL     1      49.263   4.371  19.630  0.00  0.00    +0.000 F 
ENDBRANCH  20  23
ENDBRANCH  14  17
ENDBRANCH   5  14
TORSDOF 4
ENDMDL
MODEL 7
REMARK VINA RESULT:    -5.489      4.196      5.704
REMARK INTER + INTRA:          -7.035
REMARK INTER:                  -6.648
REMARK INTRA:                  -0.387
REMARK UNBOUND:                -0.262
REMARK  Name = 
REMARK  4 active torsions:
REMARK  status: ('A' for Active; 'I' for Inactive)
REMARK    1  A    between atoms: C_2  and  C_4
REMARK    2  A    between atoms: N_8  and  C_9
REMARK    3  A    between atoms: C_9  and  C_10
REMARK    4  A    between atoms: C_13  and  C_14
REMARK                            x       y       z     vdW  Elec       q    Type
REMARK                         _______ _______ _______ _____ _____    ______ ____
ROOT
ATOM      1  C   UNL     1      49.465   7.646  17.743  0.00  0.00    +0.000 A 
ATOM      2  C   UNL     1      48.638   8.438  16.954  0.00  0.00    +0.000 A 
ATOM      3  C   UNL     1      48.505   8.142  15.595  0.00  0.00    +0.000 A 
ATOM      4  C   UNL     1      49.191   7.059  15.058  0.00  0.00    +0.000 A 
ATOM      5  N   UNL     1      49.196   6.747  13.705  0.00  0.00    +0.000 N 
ATOM      6  N   UNL     1      49.977   6.271  15.822  0.00  0.00    +0.000 NA
ATOM      7  C   UNL     1      50.114   6.586  17.135  0.00  0.00    +0.000 A 
ATOM      8  H   UNL     1      49.624   5.840  13.554  0.00  0.00    +0.000 HD
ENDROOT
BRANCH   1  10
ATOM      9  N   UNL     1      50.345   9.078  19.498  0.00  0.00    +0.000 N 
ATOM     10  C   UNL     1      49.713   7.910  19.175  0.00  0.00    +0.000 C 
ATOM     11  O   UNL     1      49.338   7.134  20.043  0.00  0.00    +0.000 OA
ATOM     12  H   UNL     1      50.428   9.285  20.485  0.00  0.00    +0.000 HD
ATOM     13  H   UNL     1      50.440   9.844  18.848  0.00  0.00    +0.000 HD
ENDBRANCH   1  10
BRANCH   5  14
ATOM     14  C   UNL     1      48.337   7.336  12.666  0.00  0.00    +0.000 C 
ATOM     15  C   UNL     1      49.072   7.747  11.395  0.00  0.00    +0.000 C 
ATOM     16  C   UNL     1      48.474   8.799  12.271  0.00  0.00    +0.000 C 
BRANCH  14  17
ATOM     17  C   UNL     1      46.947   6.692  12.532  0.00  0.00    +0.000 A 
ATOM     18  N   UNL     1      45.926   7.446  12.061  0.00  0.00    +0.000 NA
ATOM     19  C   UNL     1      44.701   6.883  12.028  0.00  0.00    +0.000 A 
ATOM     20  C   UNL     1      44.442   5.598  12.439  0.00  0.00    +0.000 A 
ATOM     21  C   UNL     1      45.539   4.895  12.871  0.00  0.00    +0.000 A 
ATOM     22  N   UNL     1      46.783   5.409  12.928  0.00  0.00    +0.000 NA
BRANCH  20  23
ATOM     23  C   UNL     1      43.080   5.007  12.436  0.00  0.00    +0.000 C 
ATOM     24  F   UNL     1      42.987   3.865  11.700  0.00  0.00    +0.000 F 
ATOM     25  F   UNL     1      42.648   4.683  13.684  0.00  0.00    +0.000 F 
ATOM     26  F   UNL     1      42.147   5.855  11.926  0.00  0.00    +0.000 F 
ENDBRANCH  20  23
ENDBRANCH  14  17
ENDBRANCH   5  14
TORSDOF 4
ENDMDL
MODEL 8
REMARK VINA RESULT:    -5.432      4.080      5.787
REMARK INTER + INTRA:          -6.964
REMARK INTER:                  -6.711
REMARK INTRA:                  -0.253
REMARK UNBOUND:                -0.262
REMARK  Name = 
REMARK  4 active torsions:
REMARK  status: ('A' for Active; 'I' for Inactive)
REMARK    1  A    between atoms: C_2  and  C_4
REMARK    2  A    between atoms: N_8  and  C_9
REMARK    3  A    between atoms: C_9  and  C_10
REMARK    4  A    between atoms: C_13  and  C_14
REMARK                            x       y       z     vdW  Elec       q    Type
REMARK                         _______ _______ _______ _____ _____    ______ ____
ROOT
ATOM      1  C   UNL     1      49.425   5.446  18.791  0.00  0.00    +0.000 A 
ATOM      2  C   UNL     1      48.362   6.180  18.273  0.00  0.00    +0.000 A 
ATOM      3  C   UNL     1      48.407   6.595  16.940  0.00  0.00    +0.000 A 
ATOM      4  C   UNL     1      49.504   6.263  16.153  0.00  0.00    +0.000 A 
ATOM      5  N   UNL     1      49.679   6.711  14.851  0.00  0.00    +0.000 N 
ATOM      6  N   UNL     1      50.528   5.530  16.641  0.00  0.00    +0.000 NA
ATOM      7  C   UNL     1      50.480   5.155  17.944  0.00  0.00    +0.000 A 
ATOM      8  H   UNL     1      50.457   6.228  14.413  0.00  0.00    +0.000 HD
ENDROOT
BRANCH   1  10
ATOM      9  N   UNL     1      48.646   4.014  20.592  0.00  0.00    +0.000 N 
ATOM     10  C   UNL     1      49.496   5.009  20.199  0.00  0.00    +0.000 C 
ATOM     11  O   UNL     1      50.307   5.491  20.979  0.00  0.00    +0.000 OA
ATOM     12  H   UNL     1      48.768   3.666  21.535  0.00  0.00    +0.000 HD
ATOM     13  H   UNL     1      48.152   3.428  19.936  0.00  0.00    +0.000 HD
ENDBRANCH   1  10
BRANCH   5  14
ATOM     14  C   UNL     1      48.682   7.402  14.019  0.00  0.00    +0.000 C 
ATOM     15  C   UNL     1      49.273   8.316  12.952  0.00  0.00    +0.000 C 
ATOM     16  C   UNL     1      48.511   8.912  14.089  0.00  0.00    +0.000 C 
BRANCH  14  17
ATOM     17  C   UNL     1      47.444   6.563  13.661  0.00  0.00    +0.000 A 
ATOM     18  N   UNL     1      47.540   5.213  13.709  0.00  0.00    +0.000 NA
ATOM     19  C   UNL     1      46.467   4.498  13.314  0.00  0.00    +0.000 A 
ATOM     20  C   UNL     1      45.295   5.064  12.875  0.00  0.00    +0.000 A 
ATOM     21  C   UNL     1      45.273   6.436  12.889  0.00  0.00    +0.000 A 
ATOM     22  N   UNL     1      46.316   7.199  13.270  0.00  0.00    +0.000 NA
BRANCH  20  23
ATOM     23  C   UNL     1      44.137   4.262  12.404  0.00  0.00    +0.000 C 
ATOM     24  F   UNL     1      42.998   4.489  13.113  0.00  0.00    +0.000 F 
ATOM     25  F   UNL     1      43.824   4.513  11.104  0.00  0.00    +0.000 F 
ATOM     26  F   UNL     1      44.366   2.924  12.482  0.00  0.00    +0.000 F 
ENDBRANCH  20  23
ENDBRANCH  14  17
ENDBRANCH   5  14
TORSDOF 4
ENDMDL
MODEL 9
REMARK VINA RESULT:    -5.385      5.460      8.601
REMARK INTER + INTRA:          -6.906
REMARK INTER:                  -7.348
REMARK INTRA:                   0.442
REMARK UNBOUND:                -0.262
REMARK  Name = 
REMARK  4 active torsions:
REMARK  status: ('A' for Active; 'I' for Inactive)
REMARK    1  A    between atoms: C_2  and  C_4
REMARK    2  A    between atoms: N_8  and  C_9
REMARK    3  A    between atoms: C_9  and  C_10
REMARK    4  A    between atoms: C_13  and  C_14
REMARK                            x       y       z     vdW  Elec       q    Type
REMARK                         _______ _______ _______ _____ _____    ______ ____
ROOT
ATOM      1  C   UNL     1      44.982   4.528  11.337  0.00  0.00    +0.000 A 
ATOM      2  C   UNL     1      45.787   5.618  11.019  0.00  0.00    +0.000 A 
ATOM      3  C   UNL     1      46.579   6.192  12.016  0.00  0.00    +0.000 A 
ATOM      4  C   UNL     1      46.559   5.662  13.301  0.00  0.00    +0.000 A 
ATOM      5  N   UNL     1      47.237   6.223  14.375  0.00  0.00    +0.000 N 
ATOM      6  N   UNL     1      45.799   4.590  13.611  0.00  0.00    +0.000 NA
ATOM      7  C   UNL     1      45.017   4.058  12.637  0.00  0.00    +0.000 A 
ATOM      8  H   UNL     1      47.214   5.596  15.173  0.00  0.00    +0.000 HD
ENDROOT
BRANCH   1  10
ATOM      9  N   UNL     1      43.971   4.452   9.129  0.00  0.00    +0.000 N 
ATOM     10  C   UNL     1      44.070   3.887  10.368  0.00  0.00    +0.000 C 
ATOM     11  O   UNL     1      43.453   2.868  10.649  0.00  0.00    +0.000 OA
ATOM     12  H   UNL     1      43.411   3.952   8.450  0.00  0.00    +0.000 HD
ATOM     13  H   UNL     1      44.638   5.126   8.781  0.00  0.00    +0.000 HD
ENDBRANCH   1  10
BRANCH   5  14
ATOM     14  C   UNL     1      48.238   7.299  14.314  0.00  0.00    +0.000 C 
ATOM     15  C   UNL     1      47.654   8.708  14.312  0.00  0.00    +0.000 C 
ATOM     16  C   UNL     1      48.350   8.199  13.093  0.00  0.00    +0.000 C 
BRANCH  14  17
ATOM     17  C   UNL     1      49.519   7.039  15.125  0.00  0.00    +0.000 A 
ATOM     18  N   UNL     1      50.655   7.682  14.765  0.00  0.00    +0.000 NA
ATOM     19  C   UNL     1      51.783   7.377  15.439  0.00  0.00    +0.000 A 
ATOM     20  C   UNL     1      51.834   6.462  16.462  0.00  0.00    +0.000 A 
ATOM     21  C   UNL     1      50.632   5.882  16.782  0.00  0.00    +0.000 A 
ATOM     22  N   UNL     1      49.477   6.147  16.140  0.00  0.00    +0.000 NA
BRANCH  20  23
ATOM     23  C   UNL     1      53.092   6.106  17.167  0.00  0.00    +0.000 C 
ATOM     24  F   UNL     1      54.110   5.781  16.325  0.00  0.00    +0.000 F 
ATOM     25  F   UNL     1      53.559   7.120  17.943  0.00  0.00    +0.000 F 
ATOM     26  F   UNL     1      52.938   5.040  17.996  0.00  0.00    +0.000 F 
ENDBRANCH  20  23
ENDBRANCH  14  17
ENDBRANCH   5  14
TORSDOF 4
ENDMDL
