MODEL 1
REMARK VINA RESULT:    -7.652      0.000      0.000
REMARK INTER + INTRA:         -11.407
REMARK INTER:                 -10.336
REMARK INTRA:                  -1.070
REMARK UNBOUND:                -1.070
REMARK  Name = 
REMARK  7 active torsions:
REMARK  status: ('A' for Active; 'I' for Inactive)
REMARK    1  A    between atoms: C_1  and  O_2
REMARK    2  A    between atoms: O_2  and  C_3
REMARK    3  A    between atoms: C_5  and  O_6
REMARK    4  A    between atoms: O_6  and  C_7
REMARK    5  A    between atoms: C_10  and  C_11
REMARK    6  A    between atoms: C_11  and  N_12
REMARK    7  A    between atoms: C_13  and  C_15
REMARK                            x       y       z     vdW  Elec       q    Type
REMARK                         _______ _______ _______ _____ _____    ______ ____
ROOT
ATOM      1  C   UNL     1      47.548   8.020  13.474  0.00  0.00    +0.000 C 
ENDROOT
BRANCH   1   5
ATOM      2  C   UNL     1      44.667   5.616  11.345  0.00  0.00    +0.000 A 
ATOM      3  C   UNL     1      44.541   7.007  11.387  0.00  0.00    +0.000 A 
ATOM      4  C   UNL     1      45.464   7.776  12.095  0.00  0.00    +0.000 A 
ATOM      5  C   UNL     1      46.508   7.166  12.801  0.00  0.00    +0.000 A 
ATOM      6  C   UNL     1      46.567   5.764  12.840  0.00  0.00    +0.000 A 
ATOM      7  C   UNL     1      45.649   4.992  12.111  0.00  0.00    +0.000 A 
BRANCH   2   8
ATOM      8  O   UNL     1      43.823   4.812  10.606  0.00  0.00    +0.000 OA
BRANCH   8  11
ATOM      9  C   UNL     1      45.783   3.460   7.919  0.00  0.00    +0.000 A 
ATOM     10  C   UNL     1      45.177   4.404   8.714  0.00  0.00    +0.000 A 
ATOM     11  C   UNL     1      44.412   3.896   9.736  0.00  0.00    +0.000 A 
ATOM     12  N   UNL     1      44.209   2.576   9.926  0.00  0.00    +0.000 NA
ATOM     13  C   UNL     1      44.860   1.758   9.098  0.00  0.00    +0.000 A 
ATOM     14  N   UNL     1      45.657   2.133   8.094  0.00  0.00    +0.000 NA
BRANCH   9  16
ATOM     15  C   UNL     1      46.776   2.961   5.859  0.00  0.00    +0.000 C 
ATOM     16  O   UNL     1      46.572   3.931   6.886  0.00  0.00    +0.000 OA
ENDBRANCH   9  16
ENDBRANCH   8  11
ENDBRANCH   2   8
ENDBRANCH   1   5
BRANCH   1  17
ATOM     17  N   UNL     1      47.781   7.640  14.840  0.00  0.00    +0.000 N 
ATOM     18  C   UNL     1      49.004   7.142  15.217  0.00  0.00    +0.000 C 
ATOM     19  O   UNL     1      49.924   7.019  14.411  0.00  0.00    +0.000 OA
ATOM     20  H   UNL     1      47.118   7.952  15.544  0.00  0.00    +0.000 HD
BRANCH  18  21
ATOM     21  C   UNL     1      49.150   6.682  16.607  0.00  0.00    +0.000 A 
ATOM     22  C   UNL     1      49.903   7.431  17.505  0.00  0.00    +0.000 A 
ATOM     23  S   UNL     1      50.169   6.646  18.996  0.00  0.00    +0.000 S 
ATOM     24  C   UNL     1      49.252   5.299  18.506  0.00  0.00    +0.000 A 
ATOM     25  N   UNL     1      49.149   4.195  19.296  0.00  0.00    +0.000 NA
ATOM     26  C   UNL     1      48.399   3.263  18.809  0.00  0.00    +0.000 A 
ATOM     27  N   UNL     1      47.712   3.350  17.625  0.00  0.00    +0.000 N 
ATOM     28  C   UNL     1      47.752   4.466  16.822  0.00  0.00    +0.000 A 
ATOM     29  O   UNL     1      47.032   4.571  15.836  0.00  0.00    +0.000 OA
ATOM     30  C   UNL     1      48.672   5.492  17.266  0.00  0.00    +0.000 A 
ATOM     31  H   UNL     1      47.082   2.617  17.338  0.00  0.00    +0.000 HD
ENDBRANCH  18  21
ENDBRANCH   1  17
TORSDOF 6
ENDMDL
MODEL 2
REMARK VINA RESULT:    -7.140      2.154      2.883
REMARK INTER + INTRA:         -10.715
REMARK INTER:                  -9.678
REMARK INTRA:                  -1.037
REMARK UNBOUND:                -1.070
REMARK  Name = 
REMARK  7 active torsions:
REMARK  status: ('A' for Active; 'I' for Inactive)
REMARK    1  A    between atoms: C_1  and  O_2
REMARK    2  A    between atoms: O_2  and  C_3
REMARK    3  A    between atoms: C_5  and  O_6
REMARK    4  A    between atoms: O_6  and  C_7
REMARK    5  A    between atoms: C_10  and  C_11
REMARK    6  A    between atoms: C_11  and  N_12
REMARK    7  A    between atoms: C_13  and  C_15
REMARK                            x       y       z     vdW  Elec       q    Type
REMARK                         _______ _______ _______ _____ _____    ______ ____
ROOT
ATOM      1  C   UNL     1      48.634   6.974  14.159  0.00  0.00    +0.000 C 
ENDROOT
BRANCH   1   5
ATOM      2  C   UNL     1      45.257   5.614  11.843  0.00  0.00    +0.000 A 
ATOM      3  C   UNL     1      45.701   6.936  11.746  0.00  0.00    +0.000 A 
ATOM      4  C   UNL     1      46.780   7.373  12.514  0.00  0.00    +0.000 A 
ATOM      5  C   UNL     1      47.411   6.508  13.416  0.00  0.00    +0.000 A 
ATOM      6  C   UNL     1      46.894   5.214  13.584  0.00  0.00    +0.000 A 
ATOM      7  C   UNL     1      45.821   4.769  12.796  0.00  0.00    +0.000 A 
BRANCH   2   8
ATOM      8  O   UNL     1      44.240   5.109  11.059  0.00  0.00    +0.000 OA
BRANCH   8  11
ATOM      9  C   UNL     1      45.694   3.717   8.086  0.00  0.00    +0.000 A 
ATOM     10  C   UNL     1      45.324   4.668   9.007  0.00  0.00    +0.000 A 
ATOM     11  C   UNL     1      44.591   4.193  10.068  0.00  0.00    +0.000 A 
ATOM     12  N   UNL     1      44.201   2.908  10.185  0.00  0.00    +0.000 NA
ATOM     13  C   UNL     1      44.632   2.076   9.236  0.00  0.00    +0.000 A 
ATOM     14  N   UNL     1      45.378   2.414   8.181  0.00  0.00    +0.000 NA
BRANCH   9  16
ATOM     15  C   UNL     1      46.783   3.098   6.109  0.00  0.00    +0.000 C 
ATOM     16  O   UNL     1      46.443   4.152   7.009  0.00  0.00    +0.000 OA
ENDBRANCH   9  16
ENDBRANCH   8  11
ENDBRANCH   2   8
ENDBRANCH   1   5
BRANCH   1  17
ATOM     17  N   UNL     1      48.369   7.257  15.543  0.00  0.00    +0.000 N 
ATOM     18  C   UNL     1      48.863   6.432  16.522  0.00  0.00    +0.000 C 
ATOM     19  O   UNL     1      49.546   5.447  16.248  0.00  0.00    +0.000 OA
ATOM     20  H   UNL     1      48.014   8.179  15.783  0.00  0.00    +0.000 HD
BRANCH  18  21
ATOM     21  C   UNL     1      48.479   6.722  17.913  0.00  0.00    +0.000 A 
ATOM     22  C   UNL     1      48.248   5.674  18.796  0.00  0.00    +0.000 A 
ATOM     23  S   UNL     1      47.586   6.172  20.288  0.00  0.00    +0.000 S 
ATOM     24  C   UNL     1      47.627   7.806  19.817  0.00  0.00    +0.000 A 
ATOM     25  N   UNL     1      47.108   8.780  20.614  0.00  0.00    +0.000 NA
ATOM     26  C   UNL     1      47.235   9.976  20.142  0.00  0.00    +0.000 A 
ATOM     27  N   UNL     1      47.868  10.290  18.966  0.00  0.00    +0.000 N 
ATOM     28  C   UNL     1      48.447   9.340  18.158  0.00  0.00    +0.000 A 
ATOM     29  O   UNL     1      49.117   9.654  17.180  0.00  0.00    +0.000 OA
ATOM     30  C   UNL     1      48.229   7.974  18.584  0.00  0.00    +0.000 A 
ATOM     31  H   UNL     1      48.001  11.251  18.691  0.00  0.00    +0.000 HD
ENDBRANCH  18  21
ENDBRANCH   1  17
TORSDOF 6
ENDMDL
MODEL 3
REMARK VINA RESULT:    -6.889      2.140      2.706
REMARK INTER + INTRA:         -10.375
REMARK INTER:                  -9.525
REMARK INTRA:                  -0.850
REMARK UNBOUND:                -1.070
REMARK  Name = 
REMARK  7 active torsions:
REMARK  status: ('A' for Active; 'I' for Inactive)
REMARK    1  A    between atoms: C_1  and  O_2
REMARK    2  A    between atoms: O_2  and  C_3
REMARK    3  A    between atoms: C_5  and  O_6
REMARK    4  A    between atoms: O_6  and  C_7
REMARK    5  A    between atoms: C_10  and  C_11
REMARK    6  A    between atoms: C_11  and  N_12
REMARK    7  A    between atoms: C_13  and  C_15
REMARK                            x       y       z     vdW  Elec       q    Type
REMARK                         _______ _______ _______ _____ _____    ______ ____
ROOT
ATOM      1  C   UNL     1      48.583   7.976  15.356  0.00  0.00    +0.000 C 
ENDROOT
BRANCH   1   5
ATOM      2  C   UNL     1      46.401   6.648  11.880  0.00  0.00    +0.000 A 
ATOM      3  C   UNL     1      46.280   7.963  12.336  0.00  0.00    +0.000 A 
ATOM      4  C   UNL     1      46.972   8.379  13.472  0.00  0.00    +0.000 A 
ATOM      5  C   UNL     1      47.768   7.480  14.192  0.00  0.00    +0.000 A 
ATOM      6  C   UNL     1      47.802   6.136  13.788  0.00  0.00    +0.000 A 
ATOM      7  C   UNL     1      47.121   5.723  12.632  0.00  0.00    +0.000 A 
BRANCH   2   8
ATOM      8  O   UNL     1      45.793   6.200  10.724  0.00  0.00    +0.000 OA
BRANCH   8  11
ATOM      9  C   UNL     1      44.206   3.041  10.100  0.00  0.00    +0.000 A 
ATOM     10  C   UNL     1      45.049   4.110   9.913  0.00  0.00    +0.000 A 
ATOM     11  C   UNL     1      44.921   5.119  10.837  0.00  0.00    +0.000 A 
ATOM     12  N   UNL     1      44.002   5.109  11.824  0.00  0.00    +0.000 NA
ATOM     13  C   UNL     1      43.249   4.012  11.912  0.00  0.00    +0.000 A 
ATOM     14  N   UNL     1      43.308   2.956  11.097  0.00  0.00    +0.000 NA
BRANCH   9  16
ATOM     15  C   UNL     1      45.639   1.829   8.702  0.00  0.00    +0.000 C 
ATOM     16  O   UNL     1      44.312   1.999   9.199  0.00  0.00    +0.000 OA
ENDBRANCH   9  16
ENDBRANCH   8  11
ENDBRANCH   2   8
ENDBRANCH   1   5
BRANCH   1  17
ATOM     17  N   UNL     1      49.506   6.991  15.849  0.00  0.00    +0.000 N 
ATOM     18  C   UNL     1      49.303   6.410  17.075  0.00  0.00    +0.000 C 
ATOM     19  O   UNL     1      48.335   6.703  17.773  0.00  0.00    +0.000 OA
ATOM     20  H   UNL     1      50.164   6.580  15.192  0.00  0.00    +0.000 HD
BRANCH  18  21
ATOM     21  C   UNL     1      50.333   5.479  17.565  0.00  0.00    +0.000 A 
ATOM     22  C   UNL     1      51.491   5.978  18.150  0.00  0.00    +0.000 A 
ATOM     23  S   UNL     1      52.677   4.787  18.443  0.00  0.00    +0.000 S 
ATOM     24  C   UNL     1      51.665   3.561  17.838  0.00  0.00    +0.000 A 
ATOM     25  N   UNL     1      52.110   2.280  17.716  0.00  0.00    +0.000 NA
ATOM     26  C   UNL     1      51.225   1.451  17.268  0.00  0.00    +0.000 A 
ATOM     27  N   UNL     1      49.926   1.779  16.971  0.00  0.00    +0.000 N 
ATOM     28  C   UNL     1      49.426   3.050  17.126  0.00  0.00    +0.000 A 
ATOM     29  O   UNL     1      48.233   3.291  16.976  0.00  0.00    +0.000 OA
ATOM     30  C   UNL     1      50.410   4.039  17.512  0.00  0.00    +0.000 A 
ATOM     31  H   UNL     1      49.264   1.069  16.699  0.00  0.00    +0.000 HD
ENDBRANCH  18  21
ENDBRANCH   1  17
TORSDOF 6
ENDMDL
MODEL 4
REMARK VINA RESULT:    -6.835      3.618      8.604
REMARK INTER + INTRA:         -10.303
REMARK INTER:                  -9.504
REMARK INTRA:                  -0.799
REMARK UNBOUND:                -1.070
REMARK  Name = 
REMARK  7 active torsions:
REMARK  status: ('A' for Active; 'I' for Inactive)
REMARK    1  A    between atoms: C_1  and  O_2
REMARK    2  A    between atoms: O_2  and  C_3
REMARK    3  A    between atoms: C_5  and  O_6
REMARK    4  A    between atoms: O_6  and  C_7
REMARK    5  A    between atoms: C_10  and  C_11
REMARK    6  A    between atoms: C_11  and  N_12
REMARK    7  A    between atoms: C_13  and  C_15
REMARK                            x       y       z     vdW  Elec       q    Type
REMARK                         _______ _______ _______ _____ _____    ______ ____
ROOT
ATOM      1  C   UNL     1      48.226   7.578  13.377  0.00  0.00    +0.000 C 
ENDROOT
BRANCH   1   5
ATOM      2  C   UNL     1      49.981   5.808  16.898  0.00  0.00    +0.000 A 
ATOM      3  C   UNL     1      48.628   5.618  16.605  0.00  0.00    +0.000 A 
ATOM      4  C   UNL     1      48.063   6.211  15.477  0.00  0.00    +0.000 A 
ATOM      5  C   UNL     1      48.832   7.032  14.641  0.00  0.00    +0.000 A 
ATOM      6  C   UNL     1      50.162   7.301  14.999  0.00  0.00    +0.000 A 
ATOM      7  C   UNL     1      50.734   6.688  16.124  0.00  0.00    +0.000 A 
BRANCH   2   8
ATOM      8  O   UNL     1      50.608   5.191  17.962  0.00  0.00    +0.000 OA
BRANCH   8  11
ATOM      9  C   UNL     1      52.552   2.183  18.206  0.00  0.00    +0.000 A 
ATOM     10  C   UNL     1      52.214   3.506  18.362  0.00  0.00    +0.000 A 
ATOM     11  C   UNL     1      51.023   3.873  17.783  0.00  0.00    +0.000 A 
ATOM     12  N   UNL     1      50.259   3.030  17.060  0.00  0.00    +0.000 NA
ATOM     13  C   UNL     1      50.684   1.767  16.990  0.00  0.00    +0.000 A 
ATOM     14  N   UNL     1      51.802   1.287  17.540  0.00  0.00    +0.000 NA
BRANCH   9  16
ATOM     15  C   UNL     1      54.371   2.800  19.543  0.00  0.00    +0.000 C 
ATOM     16  O   UNL     1      53.737   1.771  18.785  0.00  0.00    +0.000 OA
ENDBRANCH   9  16
ENDBRANCH   8  11
ENDBRANCH   2   8
ENDBRANCH   1   5
BRANCH   1  17
ATOM     17  N   UNL     1      47.647   6.555  12.551  0.00  0.00    +0.000 N 
ATOM     18  C   UNL     1      46.507   6.814  11.831  0.00  0.00    +0.000 C 
ATOM     19  O   UNL     1      45.963   7.916  11.863  0.00  0.00    +0.000 OA
ATOM     20  H   UNL     1      48.209   5.735  12.339  0.00  0.00    +0.000 HD
BRANCH  18  21
ATOM     21  C   UNL     1      45.910   5.698  11.079  0.00  0.00    +0.000 A 
ATOM     22  C   UNL     1      46.018   5.665   9.693  0.00  0.00    +0.000 A 
ATOM     23  S   UNL     1      45.076   4.445   8.963  0.00  0.00    +0.000 S 
ATOM     24  C   UNL     1      44.528   3.895  10.477  0.00  0.00    +0.000 A 
ATOM     25  N   UNL     1      43.599   2.904  10.569  0.00  0.00    +0.000 NA
ATOM     26  C   UNL     1      43.298   2.570  11.781  0.00  0.00    +0.000 A 
ATOM     27  N   UNL     1      43.870   3.108  12.905  0.00  0.00    +0.000 N 
ATOM     28  C   UNL     1      44.845   4.076  12.853  0.00  0.00    +0.000 A 
ATOM     29  O   UNL     1      45.432   4.449  13.863  0.00  0.00    +0.000 OA
ATOM     30  C   UNL     1      45.132   4.567  11.522  0.00  0.00    +0.000 A 
ATOM     31  H   UNL     1      43.647   2.749  13.821  0.00  0.00    +0.000 HD
ENDBRANCH  18  21
ENDBRANCH   1  17
TORSDOF 6
ENDMDL
MODEL 5
REMARK VINA RESULT:    -6.557      3.765      7.879
REMARK INTER + INTRA:          -9.927
REMARK INTER:                  -8.873
REMARK INTRA:                  -1.054
REMARK UNBOUND:                -1.070
REMARK  Name = 
REMARK  7 active torsions:
REMARK  status: ('A' for Active; 'I' for Inactive)
REMARK    1  A    between atoms: C_1  and  O_2
REMARK    2  A    between atoms: O_2  and  C_3
REMARK    3  A    between atoms: C_5  and  O_6
REMARK    4  A    between atoms: O_6  and  C_7
REMARK    5  A    between atoms: C_10  and  C_11
REMARK    6  A    between atoms: C_11  and  N_12
REMARK    7  A    between atoms: C_13  and  C_15
REMARK                            x       y       z     vdW  Elec       q    Type
REMARK                         _______ _______ _______ _____ _____    ______ ____
ROOT
ATOM      1  C   UNL     1      48.784   8.851  15.857  0.00  0.00    +0.000 C 
ENDROOT
BRANCH   1   5
ATOM      2  C   UNL     1      51.140   5.870  17.902  0.00  0.00    +0.000 A 
ATOM      3  C   UNL     1      50.065   6.491  18.543  0.00  0.00    +0.000 A 
ATOM      4  C   UNL     1      49.321   7.468  17.883  0.00  0.00    +0.000 A 
ATOM      5  C   UNL     1      49.661   7.867  16.585  0.00  0.00    +0.000 A 
ATOM      6  C   UNL     1      50.804   7.314  15.986  0.00  0.00    +0.000 A 
ATOM      7  C   UNL     1      51.539   6.316  16.644  0.00  0.00    +0.000 A 
BRANCH   2   8
ATOM      8  O   UNL     1      51.867   4.850  18.481  0.00  0.00    +0.000 OA
BRANCH   8  11
ATOM      9  C   UNL     1      50.286   2.049  16.885  0.00  0.00    +0.000 A 
ATOM     10  C   UNL     1      50.442   3.324  17.376  0.00  0.00    +0.000 A 
ATOM     11  C   UNL     1      51.636   3.556  18.016  0.00  0.00    +0.000 A 
ATOM     12  N   UNL     1      52.570   2.605  18.213  0.00  0.00    +0.000 NA
ATOM     13  C   UNL     1      52.311   1.409  17.680  0.00  0.00    +0.000 A 
ATOM     14  N   UNL     1      51.207   1.077  17.007  0.00  0.00    +0.000 NA
BRANCH   9  16
ATOM     15  C   UNL     1      48.087   2.743  16.487  0.00  0.00    +0.000 C 
ATOM     16  O   UNL     1      49.104   1.778  16.223  0.00  0.00    +0.000 OA
ENDBRANCH   9  16
ENDBRANCH   8  11
ENDBRANCH   2   8
ENDBRANCH   1   5
BRANCH   1  17
ATOM     17  N   UNL     1      47.778   8.211  15.055  0.00  0.00    +0.000 N 
ATOM     18  C   UNL     1      47.801   8.339  13.689  0.00  0.00    +0.000 C 
ATOM     19  O   UNL     1      48.678   8.987  13.119  0.00  0.00    +0.000 OA
ATOM     20  H   UNL     1      47.202   7.496  15.491  0.00  0.00    +0.000 HD
BRANCH  18  21
ATOM     21  C   UNL     1      46.691   7.740  12.931  0.00  0.00    +0.000 A 
ATOM     22  C   UNL     1      45.916   8.538  12.098  0.00  0.00    +0.000 A 
ATOM     23  S   UNL     1      44.536   7.746  11.483  0.00  0.00    +0.000 S 
ATOM     24  C   UNL     1      44.954   6.299  12.275  0.00  0.00    +0.000 A 
ATOM     25  N   UNL     1      44.129   5.216  12.240  0.00  0.00    +0.000 NA
ATOM     26  C   UNL     1      44.588   4.180  12.860  0.00  0.00    +0.000 A 
ATOM     27  N   UNL     1      45.811   4.115  13.477  0.00  0.00    +0.000 N 
ATOM     28  C   UNL     1      46.692   5.171  13.493  0.00  0.00    +0.000 A 
ATOM     29  O   UNL     1      47.829   5.050  13.938  0.00  0.00    +0.000 OA
ATOM     30  C   UNL     1      46.176   6.393  12.913  0.00  0.00    +0.000 A 
ATOM     31  H   UNL     1      46.143   3.252  13.878  0.00  0.00    +0.000 HD
ENDBRANCH  18  21
ENDBRANCH   1  17
TORSDOF 6
ENDMDL
MODEL 6
REMARK VINA RESULT:    -6.371      2.311      2.945
REMARK INTER + INTRA:          -9.677
REMARK INTER:                  -8.591
REMARK INTRA:                  -1.086
REMARK UNBOUND:                -1.070
REMARK  Name = 
REMARK  7 active torsions:
REMARK  status: ('A' for Active; 'I' for Inactive)
REMARK    1  A    between atoms: C_1  and  O_2
REMARK    2  A    between atoms: O_2  and  C_3
REMARK    3  A    between atoms: C_5  and  O_6
REMARK    4  A    between atoms: O_6  and  C_7
REMARK    5  A    between atoms: C_10  and  C_11
REMARK    6  A    between atoms: C_11  and  N_12
REMARK    7  A    between atoms: C_13  and  C_15
REMARK                            x       y       z     vdW  Elec       q    Type
REMARK                         _______ _______ _______ _____ _____    ______ ____
ROOT
ATOM      1  C   UNL     1      49.691   8.133  13.300  0.00  0.00    +0.000 C 
ENDROOT
BRANCH   1   5
ATOM      2  C   UNL     1      45.689   6.555  12.968  0.00  0.00    +0.000 A 
ATOM      3  C   UNL     1      46.759   5.719  13.302  0.00  0.00    +0.000 A 
ATOM      4  C   UNL     1      48.052   6.233  13.387  0.00  0.00    +0.000 A 
ATOM      5  C   UNL     1      48.305   7.581  13.105  0.00  0.00    +0.000 A 
ATOM      6  C   UNL     1      47.243   8.389  12.669  0.00  0.00    +0.000 A 
ATOM      7  C   UNL     1      45.938   7.876  12.604  0.00  0.00    +0.000 A 
BRANCH   2   8
ATOM      8  O   UNL     1      44.381   6.116  12.936  0.00  0.00    +0.000 OA
BRANCH   8  11
ATOM      9  C   UNL     1      44.083   4.085   9.990  0.00  0.00    +0.000 A 
ATOM     10  C   UNL     1      44.333   5.196  10.761  0.00  0.00    +0.000 A 
ATOM     11  C   UNL     1      44.089   5.036  12.104  0.00  0.00    +0.000 A 
ATOM     12  N   UNL     1      43.585   3.906  12.638  0.00  0.00    +0.000 NA
ATOM     13  C   UNL     1      43.395   2.892  11.792  0.00  0.00    +0.000 A 
ATOM     14  N   UNL     1      43.630   2.917  10.477  0.00  0.00    +0.000 NA
BRANCH   9  16
ATOM     15  C   UNL     1      45.086   3.109   8.114  0.00  0.00    +0.000 C 
ATOM     16  O   UNL     1      44.327   4.200   8.635  0.00  0.00    +0.000 OA
ENDBRANCH   9  16
ENDBRANCH   8  11
ENDBRANCH   2   8
ENDBRANCH   1   5
BRANCH   1  17
ATOM     17  N   UNL     1      50.466   7.369  14.239  0.00  0.00    +0.000 N 
ATOM     18  C   UNL     1      50.921   7.953  15.395  0.00  0.00    +0.000 C 
ATOM     19  O   UNL     1      50.672   9.128  15.661  0.00  0.00    +0.000 OA
ATOM     20  H   UNL     1      50.475   6.357  14.141  0.00  0.00    +0.000 HD
BRANCH  18  21
ATOM     21  C   UNL     1      51.788   7.147  16.268  0.00  0.00    +0.000 A 
ATOM     22  C   UNL     1      53.070   7.593  16.566  0.00  0.00    +0.000 A 
ATOM     23  S   UNL     1      54.021   6.438  17.389  0.00  0.00    +0.000 S 
ATOM     24  C   UNL     1      52.736   5.324  17.410  0.00  0.00    +0.000 A 
ATOM     25  N   UNL     1      52.907   4.064  17.899  0.00  0.00    +0.000 NA
ATOM     26  C   UNL     1      51.838   3.338  17.877  0.00  0.00    +0.000 A 
ATOM     27  N   UNL     1      50.608   3.768  17.451  0.00  0.00    +0.000 N 
ATOM     28  C   UNL     1      50.384   5.046  16.995  0.00  0.00    +0.000 A 
ATOM     29  O   UNL     1      49.253   5.446  16.740  0.00  0.00    +0.000 OA
ATOM     30  C   UNL     1      51.575   5.862  16.889  0.00  0.00    +0.000 A 
ATOM     31  H   UNL     1      49.796   3.175  17.532  0.00  0.00    +0.000 HD
ENDBRANCH  18  21
ENDBRANCH   1  17
TORSDOF 6
ENDMDL
MODEL 7
REMARK VINA RESULT:    -6.101      5.329      7.180
REMARK INTER + INTRA:          -9.311
REMARK INTER:                  -8.663
REMARK INTRA:                  -0.648
REMARK UNBOUND:                -1.070
REMARK  Name = 
REMARK  7 active torsions:
REMARK  status: ('A' for Active; 'I' for Inactive)
REMARK    1  A    between atoms: C_1  and  O_2
REMARK    2  A    between atoms: O_2  and  C_3
REMARK    3  A    between atoms: C_5  and  O_6
REMARK    4  A    between atoms: O_6  and  C_7
REMARK    5  A    between atoms: C_10  and  C_11
REMARK    6  A    between atoms: C_11  and  N_12
REMARK    7  A    between atoms: C_13  and  C_15
REMARK                            x       y       z     vdW  Elec       q    Type
REMARK                         _______ _______ _______ _____ _____    ______ ____
ROOT
ATOM      1  C   UNL     1      50.516   8.490  12.393  0.00  0.00    +0.000 C 
ENDROOT
BRANCH   1   5
ATOM      2  C   UNL     1      47.036   6.037  13.091  0.00  0.00    +0.000 A 
ATOM      3  C   UNL     1      47.204   6.705  11.875  0.00  0.00    +0.000 A 
ATOM      4  C   UNL     1      48.321   7.513  11.665  0.00  0.00    +0.000 A 
ATOM      5  C   UNL     1      49.270   7.695  12.678  0.00  0.00    +0.000 A 
ATOM      6  C   UNL     1      49.042   7.105  13.931  0.00  0.00    +0.000 A 
ATOM      7  C   UNL     1      47.928   6.276  14.134  0.00  0.00    +0.000 A 
BRANCH   2   8
ATOM      8  O   UNL     1      45.987   5.172  13.329  0.00  0.00    +0.000 OA
BRANCH   8  11
ATOM      9  C   UNL     1      44.041   4.024  10.540  0.00  0.00    +0.000 A 
ATOM     10  C   UNL     1      45.080   4.088  11.436  0.00  0.00    +0.000 A 
ATOM     11  C   UNL     1      44.986   5.100  12.362  0.00  0.00    +0.000 A 
ATOM     12  N   UNL     1      43.990   6.008  12.369  0.00  0.00    +0.000 NA
ATOM     13  C   UNL     1      43.032   5.835  11.458  0.00  0.00    +0.000 A 
ATOM     14  N   UNL     1      42.997   4.871  10.534  0.00  0.00    +0.000 NA
BRANCH   9  16
ATOM     15  C   UNL     1      44.789   3.392   8.414  0.00  0.00    +0.000 C 
ATOM     16  O   UNL     1      44.091   3.012   9.600  0.00  0.00    +0.000 OA
ENDBRANCH   9  16
ENDBRANCH   8  11
ENDBRANCH   2   8
ENDBRANCH   1   5
BRANCH   1  17
ATOM     17  N   UNL     1      51.010   8.290  11.058  0.00  0.00    +0.000 N 
ATOM     18  C   UNL     1      52.356   8.139  10.837  0.00  0.00    +0.000 C 
ATOM     19  O   UNL     1      53.165   8.159  11.762  0.00  0.00    +0.000 OA
ATOM     20  H   UNL     1      50.342   8.042  10.333  0.00  0.00    +0.000 HD
BRANCH  18  21
ATOM     21  C   UNL     1      52.807   8.033   9.440  0.00  0.00    +0.000 A 
ATOM     22  C   UNL     1      52.760   9.150   8.614  0.00  0.00    +0.000 A 
ATOM     23  S   UNL     1      53.090   8.803   6.977  0.00  0.00    +0.000 S 
ATOM     24  C   UNL     1      53.349   7.158   7.326  0.00  0.00    +0.000 A 
ATOM     25  N   UNL     1      53.587   6.258   6.333  0.00  0.00    +0.000 NA
ATOM     26  C   UNL     1      53.792   5.052   6.748  0.00  0.00    +0.000 A 
ATOM     27  N   UNL     1      53.821   4.673   8.065  0.00  0.00    +0.000 N 
ATOM     28  C   UNL     1      53.633   5.560   9.099  0.00  0.00    +0.000 A 
ATOM     29  O   UNL     1      53.790   5.224  10.268  0.00  0.00    +0.000 OA
ATOM     30  C   UNL     1      53.283   6.901   8.682  0.00  0.00    +0.000 A 
ATOM     31  H   UNL     1      54.064   3.729   8.326  0.00  0.00    +0.000 HD
ENDBRANCH  18  21
ENDBRANCH   1  17
TORSDOF 6
ENDMDL
MODEL 8
REMARK VINA RESULT:    -5.888      1.944      3.163
REMARK INTER + INTRA:          -9.024
REMARK INTER:                  -8.586
REMARK INTRA:                  -0.438
REMARK UNBOUND:                -1.070
REMARK  Name = 
REMARK  7 active torsions:
REMARK  status: ('A' for Active; 'I' for Inactive)
REMARK    1  A    between atoms: C_1  and  O_2
REMARK    2  A    between atoms: O_2  and  C_3
REMARK    3  A    between atoms: C_5  and  O_6
REMARK    4  A    between atoms: O_6  and  C_7
REMARK    5  A    between atoms: C_10  and  C_11
REMARK    6  A    between atoms: C_11  and  N_12
REMARK    7  A    between atoms: C_13  and  C_15
REMARK                            x       y       z     vdW  Elec       q    Type
REMARK                         _______ _______ _______ _____ _____    ______ ____
ROOT
ATOM      1  C   UNL     1      47.310   4.318  15.581  0.00  0.00    +0.000 C 
ENDROOT
BRANCH   1   5
ATOM      2  C   UNL     1      45.727   5.416  11.721  0.00  0.00    +0.000 A 
ATOM      3  C   UNL     1      46.853   6.061  12.238  0.00  0.00    +0.000 A 
ATOM      4  C   UNL     1      47.346   5.715  13.495  0.00  0.00    +0.000 A 
ATOM      5  C   UNL     1      46.702   4.744  14.272  0.00  0.00    +0.000 A 
ATOM      6  C   UNL     1      45.512   4.176  13.791  0.00  0.00    +0.000 A 
ATOM      7  C   UNL     1      45.029   4.511  12.516  0.00  0.00    +0.000 A 
BRANCH   2   8
ATOM      8  O   UNL     1      45.236   5.670  10.456  0.00  0.00    +0.000 OA
BRANCH   8  11
ATOM      9  C   UNL     1      45.945   3.636   7.584  0.00  0.00    +0.000 A 
ATOM     10  C   UNL     1      45.959   4.733   8.412  0.00  0.00    +0.000 A 
ATOM     11  C   UNL     1      45.208   4.606   9.556  0.00  0.00    +0.000 A 
ATOM     12  N   UNL     1      44.459   3.521   9.835  0.00  0.00    +0.000 NA
ATOM     13  C   UNL     1      44.536   2.515   8.962  0.00  0.00    +0.000 A 
ATOM     14  N   UNL     1      45.257   2.509   7.838  0.00  0.00    +0.000 NA
BRANCH   9  16
ATOM     15  C   UNL     1      47.722   2.727   6.362  0.00  0.00    +0.000 C 
ATOM     16  O   UNL     1      46.698   3.719   6.428  0.00  0.00    +0.000 OA
ENDBRANCH   9  16
ENDBRANCH   8  11
ENDBRANCH   2   8
ENDBRANCH   1   5
BRANCH   1  17
ATOM     17  N   UNL     1      48.002   5.386  16.247  0.00  0.00    +0.000 N 
ATOM     18  C   UNL     1      47.839   5.579  17.596  0.00  0.00    +0.000 C 
ATOM     19  O   UNL     1      47.113   4.846  18.266  0.00  0.00    +0.000 OA
ATOM     20  H   UNL     1      48.769   5.839  15.756  0.00  0.00    +0.000 HD
BRANCH  18  21
ATOM     21  C   UNL     1      48.499   6.746  18.201  0.00  0.00    +0.000 A 
ATOM     22  C   UNL     1      47.884   7.418  19.251  0.00  0.00    +0.000 A 
ATOM     23  S   UNL     1      48.660   8.877  19.676  0.00  0.00    +0.000 S 
ATOM     24  C   UNL     1      49.867   8.635  18.501  0.00  0.00    +0.000 A 
ATOM     25  N   UNL     1      50.819   9.579  18.268  0.00  0.00    +0.000 NA
ATOM     26  C   UNL     1      51.685   9.248  17.368  0.00  0.00    +0.000 A 
ATOM     27  N   UNL     1      51.709   8.044  16.711  0.00  0.00    +0.000 N 
ATOM     28  C   UNL     1      50.794   7.047  16.953  0.00  0.00    +0.000 A 
ATOM     29  O   UNL     1      50.910   5.935  16.449  0.00  0.00    +0.000 OA
ATOM     30  C   UNL     1      49.733   7.414  17.867  0.00  0.00    +0.000 A 
ATOM     31  H   UNL     1      52.458   7.817  16.075  0.00  0.00    +0.000 HD
ENDBRANCH  18  21
ENDBRANCH   1  17
TORSDOF 6
ENDMDL
MODEL 9
REMARK VINA RESULT:    -5.790      1.656      2.127
REMARK INTER + INTRA:          -8.892
REMARK INTER:                  -8.480
REMARK INTRA:                  -0.412
REMARK UNBOUND:                -1.070
REMARK  Name = 
REMARK  7 active torsions:
REMARK  status: ('A' for Active; 'I' for Inactive)
REMARK    1  A    between atoms: C_1  and  O_2
REMARK    2  A    between atoms: O_2  and  C_3
REMARK    3  A    between atoms: C_5  and  O_6
REMARK    4  A    between atoms: O_6  and  C_7
REMARK    5  A    between atoms: C_10  and  C_11
REMARK    6  A    between atoms: C_11  and  N_12
REMARK    7  A    between atoms: C_13  and  C_15
REMARK                            x       y       z     vdW  Elec       q    Type
REMARK                         _______ _______ _______ _____ _____    ______ ____
ROOT
ATOM      1  C   UNL     1      49.080   8.456  14.165  0.00  0.00    +0.000 C 
ENDROOT
BRANCH   1   5
ATOM      2  C   UNL     1      45.587   7.227  11.951  0.00  0.00    +0.000 A 
ATOM      3  C   UNL     1      45.485   8.175  12.973  0.00  0.00    +0.000 A 
ATOM      4  C   UNL     1      46.615   8.551  13.698  0.00  0.00    +0.000 A 
ATOM      5  C   UNL     1      47.858   7.962  13.438  0.00  0.00    +0.000 A 
ATOM      6  C   UNL     1      47.932   6.937  12.482  0.00  0.00    +0.000 A 
ATOM      7  C   UNL     1      46.798   6.574  11.739  0.00  0.00    +0.000 A 
BRANCH   2   8
ATOM      8  O   UNL     1      44.516   6.868  11.157  0.00  0.00    +0.000 OA
BRANCH   8  11
ATOM      9  C   UNL     1      44.477   3.536   9.820  0.00  0.00    +0.000 A 
ATOM     10  C   UNL     1      44.714   4.889   9.883  0.00  0.00    +0.000 A 
ATOM     11  C   UNL     1      44.250   5.507  11.019  0.00  0.00    +0.000 A 
ATOM     12  N   UNL     1      43.560   4.866  11.984  0.00  0.00    +0.000 NA
ATOM     13  C   UNL     1      43.404   3.551  11.818  0.00  0.00    +0.000 A 
ATOM     14  N   UNL     1      43.840   2.838  10.777  0.00  0.00    +0.000 NA
BRANCH   9  16
ATOM     15  C   UNL     1      44.877   1.455   8.828  0.00  0.00    +0.000 C 
ATOM     16  O   UNL     1      44.939   2.875   8.698  0.00  0.00    +0.000 OA
ENDBRANCH   9  16
ENDBRANCH   8  11
ENDBRANCH   2   8
ENDBRANCH   1   5
BRANCH   1  17
ATOM     17  N   UNL     1      48.971   8.320  15.591  0.00  0.00    +0.000 N 
ATOM     18  C   UNL     1      49.260   7.122  16.195  0.00  0.00    +0.000 C 
ATOM     19  O   UNL     1      49.627   6.147  15.542  0.00  0.00    +0.000 OA
ATOM     20  H   UNL     1      48.898   9.168  16.148  0.00  0.00    +0.000 HD
BRANCH  18  21
ATOM     21  C   UNL     1      49.039   7.020  17.646  0.00  0.00    +0.000 A 
ATOM     22  C   UNL     1      49.107   8.163  18.435  0.00  0.00    +0.000 A 
ATOM     23  S   UNL     1      49.064   7.840  20.109  0.00  0.00    +0.000 S 
ATOM     24  C   UNL     1      48.910   6.169  19.833  0.00  0.00    +0.000 A 
ATOM     25  N   UNL     1      48.912   5.283  20.868  0.00  0.00    +0.000 NA
ATOM     26  C   UNL     1      48.760   4.050  20.511  0.00  0.00    +0.000 A 
ATOM     27  N   UNL     1      48.566   3.628  19.220  0.00  0.00    +0.000 N 
ATOM     28  C   UNL     1      48.510   4.495  18.155  0.00  0.00    +0.000 A 
ATOM     29  O   UNL     1      48.209   4.109  17.030  0.00  0.00    +0.000 OA
ATOM     30  C   UNL     1      48.793   5.875  18.488  0.00  0.00    +0.000 A 
ATOM     31  H   UNL     1      48.376   2.659  19.017  0.00  0.00    +0.000 HD
ENDBRANCH  18  21
ENDBRANCH   1  17
TORSDOF 6
ENDMDL
