MODEL 1
REMARK VINA RESULT:    -7.525      0.000      0.000
REMARK INTER + INTRA:         -11.446
REMARK INTER:                 -10.604
REMARK INTRA:                  -0.842
REMARK UNBOUND:                -0.842
REMARK  Name = 
REMARK  7 active torsions:
REMARK  status: ('A' for Active; 'I' for Inactive)
REMARK    1  A    between atoms: C_2  and  C_19
REMARK    2  A    between atoms: N_3  and  C_4
REMARK    3  A    between atoms: C_4  and  C_5
REMARK    4  A    between atoms: C_8  and  C_9
REMARK    5  A    between atoms: C_9  and  C_10
REMARK    6  A    between atoms: C_10  and  C_11
REMARK    7  A    between atoms: C_11  and  N_12
REMARK                            x       y       z     vdW  Elec       q    Type
REMARK                         _______ _______ _______ _____ _____    ______ ____
ROOT
ATOM      1  O   UNL     1      49.042   6.434  13.462  0.00  0.00    +0.000 OA
ATOM      2  C   UNL     1      48.212   6.459  14.366  0.00  0.00    +0.000 C 
ATOM      3  N   UNL     1      46.880   6.688  14.125  0.00  0.00    +0.000 N 
ATOM      4  H   UNL     1      46.258   6.900  14.900  0.00  0.00    +0.000 HD
ENDROOT
BRANCH   2   5
ATOM      5  C   UNL     1      48.603   6.213  15.759  0.00  0.00    +0.000 A 
ATOM      6  C   UNL     1      49.177   7.235  16.502  0.00  0.00    +0.000 A 
ATOM      7  S   UNL     1      49.548   6.791  18.106  0.00  0.00    +0.000 S 
ATOM      8  C   UNL     1      48.910   5.231  17.877  0.00  0.00    +0.000 A 
ATOM      9  N   UNL     1      48.873   4.334  18.900  0.00  0.00    +0.000 NA
ATOM     10  C   UNL     1      48.327   3.204  18.598  0.00  0.00    +0.000 A 
ATOM     11  N   UNL     1      47.830   2.884  17.361  0.00  0.00    +0.000 N 
ATOM     12  C   UNL     1      47.887   3.739  16.287  0.00  0.00    +0.000 A 
ATOM     13  O   UNL     1      47.496   3.397  15.177  0.00  0.00    +0.000 OA
ATOM     14  C   UNL     1      48.457   5.039  16.584  0.00  0.00    +0.000 A 
ATOM     15  H   UNL     1      47.440   1.970  17.182  0.00  0.00    +0.000 HD
ENDBRANCH   2   5
BRANCH   3  16
ATOM     16  C   UNL     1      46.449   7.074  12.807  0.00  0.00    +0.000 C 
BRANCH  16  17
ATOM     17  C   UNL     1      45.864   5.922  12.033  0.00  0.00    +0.000 A 
ATOM     18  C   UNL     1      45.767   5.980  10.637  0.00  0.00    +0.000 A 
ATOM     19  C   UNL     1      45.285   4.887   9.912  0.00  0.00    +0.000 A 
ATOM     20  C   UNL     1      44.889   3.712  10.566  0.00  0.00    +0.000 A 
ATOM     21  C   UNL     1      44.940   3.674  11.964  0.00  0.00    +0.000 A 
ATOM     22  C   UNL     1      45.416   4.771  12.692  0.00  0.00    +0.000 A 
BRANCH  20  23
ATOM     23  C   UNL     1      44.397   2.518   9.778  0.00  0.00    +0.000 C 
BRANCH  23  24
ATOM     24  C   UNL     1      44.845   2.558   8.311  0.00  0.00    +0.000 C 
BRANCH  24  25
ATOM     25  C   UNL     1      46.075   1.684   8.023  0.00  0.00    +0.000 C 
BRANCH  25  26
ATOM     26  N   UNL     1      47.274   2.434   7.612  0.00  0.00    +0.000 NA
ATOM     27  C   UNL     1      47.858   1.958   6.352  0.00  0.00    +0.000 C 
ATOM     28  C   UNL     1      47.011   2.611   5.278  0.00  0.00    +0.000 C 
ATOM     29  O   UNL     1      46.537   3.835   5.852  0.00  0.00    +0.000 OA
ATOM     30  C   UNL     1      46.907   3.804   7.233  0.00  0.00    +0.000 C 
ENDBRANCH  25  26
ENDBRANCH  24  25
ENDBRANCH  23  24
ENDBRANCH  20  23
ENDBRANCH  16  17
ENDBRANCH   3  16
TORSDOF 7
ENDMDL
MODEL 2
REMARK VINA RESULT:    -7.039      1.152      1.634
REMARK INTER + INTRA:         -10.761
REMARK INTER:                  -9.897
REMARK INTRA:                  -0.864
REMARK UNBOUND:                -0.842
REMARK  Name = 
REMARK  7 active torsions:
REMARK  status: ('A' for Active; 'I' for Inactive)
REMARK    1  A    between atoms: C_2  and  C_19
REMARK    2  A    between atoms: N_3  and  C_4
REMARK    3  A    between atoms: C_4  and  C_5
REMARK    4  A    between atoms: C_8  and  C_9
REMARK    5  A    between atoms: C_9  and  C_10
REMARK    6  A    between atoms: C_10  and  C_11
REMARK    7  A    between atoms: C_11  and  N_12
REMARK                            x       y       z     vdW  Elec       q    Type
REMARK                         _______ _______ _______ _____ _____    ______ ____
ROOT
ATOM      1  O   UNL     1      50.022   6.972  14.672  0.00  0.00    +0.000 OA
ATOM      2  C   UNL     1      49.008   6.717  15.314  0.00  0.00    +0.000 C 
ATOM      3  N   UNL     1      47.766   6.684  14.728  0.00  0.00    +0.000 N 
ATOM      4  H   UNL     1      46.935   6.670  15.312  0.00  0.00    +0.000 HD
ENDROOT
BRANCH   2   5
ATOM      5  C   UNL     1      49.077   6.402  16.745  0.00  0.00    +0.000 A 
ATOM      6  C   UNL     1      49.488   7.377  17.644  0.00  0.00    +0.000 A 
ATOM      7  S   UNL     1      49.487   6.855  19.268  0.00  0.00    +0.000 S 
ATOM      8  C   UNL     1      48.891   5.323  18.830  0.00  0.00    +0.000 A 
ATOM      9  N   UNL     1      48.614   4.385  19.776  0.00  0.00    +0.000 NA
ATOM     10  C   UNL     1      48.129   3.284  19.309  0.00  0.00    +0.000 A 
ATOM     11  N   UNL     1      47.914   3.029  17.979  0.00  0.00    +0.000 N 
ATOM     12  C   UNL     1      48.222   3.928  16.986  0.00  0.00    +0.000 A 
ATOM     13  O   UNL     1      48.080   3.643  15.801  0.00  0.00    +0.000 OA
ATOM     14  C   UNL     1      48.732   5.199  17.462  0.00  0.00    +0.000 A 
ATOM     15  H   UNL     1      47.558   2.135  17.676  0.00  0.00    +0.000 HD
ENDBRANCH   2   5
BRANCH   3  16
ATOM     16  C   UNL     1      47.608   7.117  13.365  0.00  0.00    +0.000 C 
BRANCH  16  17
ATOM     17  C   UNL     1      46.791   6.154  12.546  0.00  0.00    +0.000 A 
ATOM     18  C   UNL     1      46.378   4.931  13.091  0.00  0.00    +0.000 A 
ATOM     19  C   UNL     1      45.566   4.064  12.355  0.00  0.00    +0.000 A 
ATOM     20  C   UNL     1      45.147   4.399  11.060  0.00  0.00    +0.000 A 
ATOM     21  C   UNL     1      45.602   5.598  10.499  0.00  0.00    +0.000 A 
ATOM     22  C   UNL     1      46.421   6.464  11.232  0.00  0.00    +0.000 A 
BRANCH  20  23
ATOM     23  C   UNL     1      44.242   3.473  10.277  0.00  0.00    +0.000 C 
BRANCH  23  24
ATOM     24  C   UNL     1      45.028   2.444   9.453  0.00  0.00    +0.000 C 
BRANCH  24  25
ATOM     25  C   UNL     1      45.807   3.063   8.283  0.00  0.00    +0.000 C 
BRANCH  25  26
ATOM     26  N   UNL     1      45.919   2.198   7.097  0.00  0.00    +0.000 NA
ATOM     27  C   UNL     1      46.728   2.781   6.020  0.00  0.00    +0.000 C 
ATOM     28  C   UNL     1      48.159   2.497   6.433  0.00  0.00    +0.000 C 
ATOM     29  O   UNL     1      48.104   1.294   7.210  0.00  0.00    +0.000 OA
ATOM     30  C   UNL     1      46.718   1.008   7.414  0.00  0.00    +0.000 C 
ENDBRANCH  25  26
ENDBRANCH  24  25
ENDBRANCH  23  24
ENDBRANCH  20  23
ENDBRANCH  16  17
ENDBRANCH   3  16
TORSDOF 7
ENDMDL
MODEL 3
REMARK VINA RESULT:    -6.987      3.438      8.147
REMARK INTER + INTRA:         -10.688
REMARK INTER:                  -9.657
REMARK INTRA:                  -1.032
REMARK UNBOUND:                -0.842
REMARK  Name = 
REMARK  7 active torsions:
REMARK  status: ('A' for Active; 'I' for Inactive)
REMARK    1  A    between atoms: C_2  and  C_19
REMARK    2  A    between atoms: N_3  and  C_4
REMARK    3  A    between atoms: C_4  and  C_5
REMARK    4  A    between atoms: C_8  and  C_9
REMARK    5  A    between atoms: C_9  and  C_10
REMARK    6  A    between atoms: C_10  and  C_11
REMARK    7  A    between atoms: C_11  and  N_12
REMARK                            x       y       z     vdW  Elec       q    Type
REMARK                         _______ _______ _______ _____ _____    ______ ____
ROOT
ATOM      1  O   UNL     1      45.474   7.930  11.573  0.00  0.00    +0.000 OA
ATOM      2  C   UNL     1      46.120   6.903  11.385  0.00  0.00    +0.000 C 
ATOM      3  N   UNL     1      47.433   6.790  11.771  0.00  0.00    +0.000 N 
ATOM      4  H   UNL     1      47.992   6.014  11.427  0.00  0.00    +0.000 HD
ENDROOT
BRANCH   2   5
ATOM      5  C   UNL     1      45.506   5.726  10.760  0.00  0.00    +0.000 A 
ATOM      6  C   UNL     1      45.686   5.496   9.403  0.00  0.00    +0.000 A 
ATOM      7  S   UNL     1      44.928   4.074   8.843  0.00  0.00    +0.000 S 
ATOM      8  C   UNL     1      44.374   3.692  10.406  0.00  0.00    +0.000 A 
ATOM      9  N   UNL     1      43.679   2.546  10.639  0.00  0.00    +0.000 NA
ATOM     10  C   UNL     1      43.355   2.361  11.875  0.00  0.00    +0.000 A 
ATOM     11  N   UNL     1      43.648   3.228  12.895  0.00  0.00    +0.000 N 
ATOM     12  C   UNL     1      44.307   4.419  12.700  0.00  0.00    +0.000 A 
ATOM     13  O   UNL     1      44.493   5.204  13.623  0.00  0.00    +0.000 OA
ATOM     14  C   UNL     1      44.728   4.655  11.333  0.00  0.00    +0.000 A 
ATOM     15  H   UNL     1      43.341   3.039  13.838  0.00  0.00    +0.000 HD
ENDBRANCH   2   5
BRANCH   3  16
ATOM     16  C   UNL     1      48.137   7.946  12.260  0.00  0.00    +0.000 C 
BRANCH  16  17
ATOM     17  C   UNL     1      48.898   7.662  13.527  0.00  0.00    +0.000 A 
ATOM     18  C   UNL     1      48.315   6.909  14.553  0.00  0.00    +0.000 A 
ATOM     19  C   UNL     1      49.043   6.590  15.703  0.00  0.00    +0.000 A 
ATOM     20  C   UNL     1      50.370   7.016  15.852  0.00  0.00    +0.000 A 
ATOM     21  C   UNL     1      50.934   7.812  14.848  0.00  0.00    +0.000 A 
ATOM     22  C   UNL     1      50.204   8.137  13.700  0.00  0.00    +0.000 A 
BRANCH  20  23
ATOM     23  C   UNL     1      51.167   6.644  17.083  0.00  0.00    +0.000 C 
BRANCH  23  24
ATOM     24  C   UNL     1      50.546   5.469  17.850  0.00  0.00    +0.000 C 
BRANCH  24  25
ATOM     25  C   UNL     1      51.108   4.101  17.433  0.00  0.00    +0.000 C 
BRANCH  25  26
ATOM     26  N   UNL     1      50.363   2.947  17.964  0.00  0.00    +0.000 NA
ATOM     27  C   UNL     1      48.907   3.136  17.957  0.00  0.00    +0.000 C 
ATOM     28  C   UNL     1      48.496   2.819  16.533  0.00  0.00    +0.000 C 
ATOM     29  O   UNL     1      49.463   1.877  16.054  0.00  0.00    +0.000 OA
ATOM     30  C   UNL     1      50.485   1.804  17.051  0.00  0.00    +0.000 C 
ENDBRANCH  25  26
ENDBRANCH  24  25
ENDBRANCH  23  24
ENDBRANCH  20  23
ENDBRANCH  16  17
ENDBRANCH   3  16
TORSDOF 7
ENDMDL
MODEL 4
REMARK VINA RESULT:    -6.681      3.131      4.021
REMARK INTER + INTRA:         -10.257
REMARK INTER:                  -8.755
REMARK INTRA:                  -1.501
REMARK UNBOUND:                -0.842
REMARK  Name = 
REMARK  7 active torsions:
REMARK  status: ('A' for Active; 'I' for Inactive)
REMARK    1  A    between atoms: C_2  and  C_19
REMARK    2  A    between atoms: N_3  and  C_4
REMARK    3  A    between atoms: C_4  and  C_5
REMARK    4  A    between atoms: C_8  and  C_9
REMARK    5  A    between atoms: C_9  and  C_10
REMARK    6  A    between atoms: C_10  and  C_11
REMARK    7  A    between atoms: C_11  and  N_12
REMARK                            x       y       z     vdW  Elec       q    Type
REMARK                         _______ _______ _______ _____ _____    ______ ____
ROOT
ATOM      1  O   UNL     1      48.677   8.707  16.385  0.00  0.00    +0.000 OA
ATOM      2  C   UNL     1      49.012   7.567  16.079  0.00  0.00    +0.000 C 
ATOM      3  N   UNL     1      49.387   7.238  14.799  0.00  0.00    +0.000 N 
ATOM      4  H   UNL     1      49.463   6.261  14.534  0.00  0.00    +0.000 HD
ENDROOT
BRANCH   2   5
ATOM      5  C   UNL     1      49.059   6.496  17.082  0.00  0.00    +0.000 A 
ATOM      6  C   UNL     1      49.708   6.714  18.289  0.00  0.00    +0.000 A 
ATOM      7  S   UNL     1      49.647   5.379  19.349  0.00  0.00    +0.000 S 
ATOM      8  C   UNL     1      48.709   4.482  18.250  0.00  0.00    +0.000 A 
ATOM      9  N   UNL     1      48.262   3.236  18.567  0.00  0.00    +0.000 NA
ATOM     10  C   UNL     1      47.528   2.687  17.658  0.00  0.00    +0.000 A 
ATOM     11  N   UNL     1      47.216   3.262  16.454  0.00  0.00    +0.000 N 
ATOM     12  C   UNL     1      47.681   4.498  16.072  0.00  0.00    +0.000 A 
ATOM     13  O   UNL     1      47.439   4.956  14.961  0.00  0.00    +0.000 OA
ATOM     14  C   UNL     1      48.479   5.176  17.075  0.00  0.00    +0.000 A 
ATOM     15  H   UNL     1      46.659   2.767  15.774  0.00  0.00    +0.000 HD
ENDBRANCH   2   5
BRANCH   3  16
ATOM     16  C   UNL     1      49.232   8.200  13.740  0.00  0.00    +0.000 C 
BRANCH  16  17
ATOM     17  C   UNL     1      47.918   8.056  13.021  0.00  0.00    +0.000 A 
ATOM     18  C   UNL     1      47.703   6.990  12.139  0.00  0.00    +0.000 A 
ATOM     19  C   UNL     1      46.462   6.818  11.520  0.00  0.00    +0.000 A 
ATOM     20  C   UNL     1      45.408   7.707  11.769  0.00  0.00    +0.000 A 
ATOM     21  C   UNL     1      45.640   8.801  12.612  0.00  0.00    +0.000 A 
ATOM     22  C   UNL     1      46.884   8.978  13.227  0.00  0.00    +0.000 A 
BRANCH  20  23
ATOM     23  C   UNL     1      44.055   7.503  11.123  0.00  0.00    +0.000 C 
BRANCH  23  24
ATOM     24  C   UNL     1      43.296   6.309  11.717  0.00  0.00    +0.000 C 
BRANCH  24  25
ATOM     25  C   UNL     1      43.343   5.053  10.833  0.00  0.00    +0.000 C 
BRANCH  25  26
ATOM     26  N   UNL     1      43.183   3.785  11.564  0.00  0.00    +0.000 NA
ATOM     27  C   UNL     1      44.250   2.813  11.294  0.00  0.00    +0.000 C 
ATOM     28  C   UNL     1      45.390   3.253  12.191  0.00  0.00    +0.000 C 
ATOM     29  O   UNL     1      44.773   3.890  13.315  0.00  0.00    +0.000 OA
ATOM     30  C   UNL     1      43.382   4.003  13.002  0.00  0.00    +0.000 C 
ENDBRANCH  25  26
ENDBRANCH  24  25
ENDBRANCH  23  24
ENDBRANCH  20  23
ENDBRANCH  16  17
ENDBRANCH   3  16
TORSDOF 7
ENDMDL
MODEL 5
REMARK VINA RESULT:    -6.488      2.341      3.222
REMARK INTER + INTRA:          -9.985
REMARK INTER:                  -9.043
REMARK INTRA:                  -0.942
REMARK UNBOUND:                -0.842
REMARK  Name = 
REMARK  7 active torsions:
REMARK  status: ('A' for Active; 'I' for Inactive)
REMARK    1  A    between atoms: C_2  and  C_19
REMARK    2  A    between atoms: N_3  and  C_4
REMARK    3  A    between atoms: C_4  and  C_5
REMARK    4  A    between atoms: C_8  and  C_9
REMARK    5  A    between atoms: C_9  and  C_10
REMARK    6  A    between atoms: C_10  and  C_11
REMARK    7  A    between atoms: C_11  and  N_12
REMARK                            x       y       z     vdW  Elec       q    Type
REMARK                         _______ _______ _______ _____ _____    ______ ____
ROOT
ATOM      1  O   UNL     1      49.588   4.370  16.662  0.00  0.00    +0.000 OA
ATOM      2  C   UNL     1      48.874   5.368  16.682  0.00  0.00    +0.000 C 
ATOM      3  N   UNL     1      47.614   5.371  16.136  0.00  0.00    +0.000 N 
ATOM      4  H   UNL     1      47.132   6.254  15.989  0.00  0.00    +0.000 HD
ENDROOT
BRANCH   2   5
ATOM      5  C   UNL     1      49.324   6.609  17.323  0.00  0.00    +0.000 A 
ATOM      6  C   UNL     1      50.389   7.315  16.780  0.00  0.00    +0.000 A 
ATOM      7  S   UNL     1      50.767   8.744  17.632  0.00  0.00    +0.000 S 
ATOM      8  C   UNL     1      49.489   8.493  18.726  0.00  0.00    +0.000 A 
ATOM      9  N   UNL     1      49.221   9.398  19.706  0.00  0.00    +0.000 NA
ATOM     10  C   UNL     1      48.200   9.102  20.439  0.00  0.00    +0.000 A 
ATOM     11  N   UNL     1      47.434   7.975  20.291  0.00  0.00    +0.000 N 
ATOM     12  C   UNL     1      47.695   7.012  19.346  0.00  0.00    +0.000 A 
ATOM     13  O   UNL     1      47.031   5.983  19.284  0.00  0.00    +0.000 OA
ATOM     14  C   UNL     1      48.809   7.316  18.469  0.00  0.00    +0.000 A 
ATOM     15  H   UNL     1      46.664   7.788  20.917  0.00  0.00    +0.000 HD
ENDBRANCH   2   5
BRANCH   3  16
ATOM     16  C   UNL     1      47.164   4.238  15.371  0.00  0.00    +0.000 C 
BRANCH  16  17
ATOM     17  C   UNL     1      46.661   4.628  14.006  0.00  0.00    +0.000 A 
ATOM     18  C   UNL     1      47.015   5.862  13.445  0.00  0.00    +0.000 A 
ATOM     19  C   UNL     1      46.602   6.199  12.153  0.00  0.00    +0.000 A 
ATOM     20  C   UNL     1      45.829   5.311  11.393  0.00  0.00    +0.000 A 
ATOM     21  C   UNL     1      45.435   4.100  11.974  0.00  0.00    +0.000 A 
ATOM     22  C   UNL     1      45.841   3.764  13.270  0.00  0.00    +0.000 A 
BRANCH  20  23
ATOM     23  C   UNL     1      45.410   5.663   9.982  0.00  0.00    +0.000 C 
BRANCH  23  24
ATOM     24  C   UNL     1      45.116   4.422   9.130  0.00  0.00    +0.000 C 
BRANCH  24  25
ATOM     25  C   UNL     1      46.151   4.182   8.021  0.00  0.00    +0.000 C 
BRANCH  25  26
ATOM     26  N   UNL     1      45.863   3.025   7.156  0.00  0.00    +0.000 NA
ATOM     27  C   UNL     1      46.717   2.958   5.964  0.00  0.00    +0.000 C 
ATOM     28  C   UNL     1      48.007   2.337   6.463  0.00  0.00    +0.000 C 
ATOM     29  O   UNL     1      47.632   1.507   7.569  0.00  0.00    +0.000 OA
ATOM     30  C   UNL     1      46.253   1.781   7.832  0.00  0.00    +0.000 C 
ENDBRANCH  25  26
ENDBRANCH  24  25
ENDBRANCH  23  24
ENDBRANCH  20  23
ENDBRANCH  16  17
ENDBRANCH   3  16
TORSDOF 7
ENDMDL
MODEL 6
REMARK VINA RESULT:    -6.450      4.647      7.462
REMARK INTER + INTRA:          -9.932
REMARK INTER:                  -9.150
REMARK INTRA:                  -0.782
REMARK UNBOUND:                -0.842
REMARK  Name = 
REMARK  7 active torsions:
REMARK  status: ('A' for Active; 'I' for Inactive)
REMARK    1  A    between atoms: C_2  and  C_19
REMARK    2  A    between atoms: N_3  and  C_4
REMARK    3  A    between atoms: C_4  and  C_5
REMARK    4  A    between atoms: C_8  and  C_9
REMARK    5  A    between atoms: C_9  and  C_10
REMARK    6  A    between atoms: C_10  and  C_11
REMARK    7  A    between atoms: C_11  and  N_12
REMARK                            x       y       z     vdW  Elec       q    Type
REMARK                         _______ _______ _______ _____ _____    ______ ____
ROOT
ATOM      1  O   UNL     1      43.839   7.339  11.132  0.00  0.00    +0.000 OA
ATOM      2  C   UNL     1      44.622   6.480  11.528  0.00  0.00    +0.000 C 
ATOM      3  N   UNL     1      45.743   6.798  12.255  0.00  0.00    +0.000 N 
ATOM      4  H   UNL     1      46.466   6.098  12.393  0.00  0.00    +0.000 HD
ENDROOT
BRANCH   2   5
ATOM      5  C   UNL     1      44.379   5.057  11.268  0.00  0.00    +0.000 A 
ATOM      6  C   UNL     1      43.600   4.321  12.150  0.00  0.00    +0.000 A 
ATOM      7  S   UNL     1      43.396   2.691  11.687  0.00  0.00    +0.000 S 
ATOM      8  C   UNL     1      44.302   2.927  10.267  0.00  0.00    +0.000 A 
ATOM      9  N   UNL     1      44.475   1.915   9.373  0.00  0.00    +0.000 NA
ATOM     10  C   UNL     1      45.148   2.243   8.322  0.00  0.00    +0.000 A 
ATOM     11  N   UNL     1      45.678   3.486   8.091  0.00  0.00    +0.000 N 
ATOM     12  C   UNL     1      45.568   4.524   8.985  0.00  0.00    +0.000 A 
ATOM     13  O   UNL     1      46.111   5.604   8.779  0.00  0.00    +0.000 OA
ATOM     14  C   UNL     1      44.785   4.219  10.167  0.00  0.00    +0.000 A 
ATOM     15  H   UNL     1      46.220   3.670   7.259  0.00  0.00    +0.000 HD
ENDBRANCH   2   5
BRANCH   3  16
ATOM     16  C   UNL     1      46.116   8.177  12.427  0.00  0.00    +0.000 C 
BRANCH  16  17
ATOM     17  C   UNL     1      47.574   8.418  12.138  0.00  0.00    +0.000 A 
ATOM     18  C   UNL     1      48.485   7.355  12.148  0.00  0.00    +0.000 A 
ATOM     19  C   UNL     1      49.827   7.566  11.818  0.00  0.00    +0.000 A 
ATOM     20  C   UNL     1      50.287   8.844  11.470  0.00  0.00    +0.000 A 
ATOM     21  C   UNL     1      49.385   9.914  11.509  0.00  0.00    +0.000 A 
ATOM     22  C   UNL     1      48.043   9.705  11.847  0.00  0.00    +0.000 A 
BRANCH  20  23
ATOM     23  C   UNL     1      51.732   9.065  11.082  0.00  0.00    +0.000 C 
BRANCH  23  24
ATOM     24  C   UNL     1      52.466   7.752  10.780  0.00  0.00    +0.000 C 
BRANCH  24  25
ATOM     25  C   UNL     1      52.249   7.246   9.346  0.00  0.00    +0.000 C 
BRANCH  25  26
ATOM     26  N   UNL     1      53.437   7.332   8.481  0.00  0.00    +0.000 NA
ATOM     27  C   UNL     1      54.228   6.096   8.447  0.00  0.00    +0.000 C 
ATOM     28  C   UNL     1      53.498   5.213   7.453  0.00  0.00    +0.000 C 
ATOM     29  O   UNL     1      52.860   6.110   6.536  0.00  0.00    +0.000 OA
ATOM     30  C   UNL     1      53.031   7.425   7.073  0.00  0.00    +0.000 C 
ENDBRANCH  25  26
ENDBRANCH  24  25
ENDBRANCH  23  24
ENDBRANCH  20  23
ENDBRANCH  16  17
ENDBRANCH   3  16
TORSDOF 7
ENDMDL
MODEL 7
REMARK VINA RESULT:    -6.323      2.783      8.696
REMARK INTER + INTRA:          -9.751
REMARK INTER:                  -8.664
REMARK INTRA:                  -1.087
REMARK UNBOUND:                -0.842
REMARK  Name = 
REMARK  7 active torsions:
REMARK  status: ('A' for Active; 'I' for Inactive)
REMARK    1  A    between atoms: C_2  and  C_19
REMARK    2  A    between atoms: N_3  and  C_4
REMARK    3  A    between atoms: C_4  and  C_5
REMARK    4  A    between atoms: C_8  and  C_9
REMARK    5  A    between atoms: C_9  and  C_10
REMARK    6  A    between atoms: C_10  and  C_11
REMARK    7  A    between atoms: C_11  and  N_12
REMARK                            x       y       z     vdW  Elec       q    Type
REMARK                         _______ _______ _______ _____ _____    ______ ____
ROOT
ATOM      1  O   UNL     1      44.875   7.429  12.041  0.00  0.00    +0.000 OA
ATOM      2  C   UNL     1      45.583   6.457  11.796  0.00  0.00    +0.000 C 
ATOM      3  N   UNL     1      46.954   6.544  11.773  0.00  0.00    +0.000 N 
ATOM      4  H   UNL     1      47.499   5.784  11.375  0.00  0.00    +0.000 HD
ENDROOT
BRANCH   2   5
ATOM      5  C   UNL     1      44.996   5.136  11.543  0.00  0.00    +0.000 A 
ATOM      6  C   UNL     1      44.274   4.503  12.545  0.00  0.00    +0.000 A 
ATOM      7  S   UNL     1      43.640   2.989  12.079  0.00  0.00    +0.000 S 
ATOM      8  C   UNL     1      44.267   3.152  10.506  0.00  0.00    +0.000 A 
ATOM      9  N   UNL     1      44.037   2.200   9.561  0.00  0.00    +0.000 NA
ATOM     10  C   UNL     1      44.537   2.470   8.402  0.00  0.00    +0.000 A 
ATOM     11  N   UNL     1      45.260   3.596   8.107  0.00  0.00    +0.000 N 
ATOM     12  C   UNL     1      45.557   4.560   9.040  0.00  0.00    +0.000 A 
ATOM     13  O   UNL     1      46.264   5.523   8.761  0.00  0.00    +0.000 OA
ATOM     14  C   UNL     1      44.984   4.325  10.351  0.00  0.00    +0.000 A 
ATOM     15  H   UNL     1      45.648   3.734   7.185  0.00  0.00    +0.000 HD
ENDBRANCH   2   5
BRANCH   3  16
ATOM     16  C   UNL     1      47.590   7.831  11.873  0.00  0.00    +0.000 C 
BRANCH  16  17
ATOM     17  C   UNL     1      48.246   8.045  13.211  0.00  0.00    +0.000 A 
ATOM     18  C   UNL     1      47.650   8.874  14.170  0.00  0.00    +0.000 A 
ATOM     19  C   UNL     1      48.224   9.024  15.435  0.00  0.00    +0.000 A 
ATOM     20  C   UNL     1      49.405   8.348  15.771  0.00  0.00    +0.000 A 
ATOM     21  C   UNL     1      50.026   7.560  14.795  0.00  0.00    +0.000 A 
ATOM     22  C   UNL     1      49.456   7.415  13.525  0.00  0.00    +0.000 A 
BRANCH  20  23
ATOM     23  C   UNL     1      50.008   8.486  17.152  0.00  0.00    +0.000 C 
BRANCH  23  24
ATOM     24  C   UNL     1      49.060   8.002  18.257  0.00  0.00    +0.000 C 
BRANCH  24  25
ATOM     25  C   UNL     1      48.568   6.561  18.053  0.00  0.00    +0.000 C 
BRANCH  25  26
ATOM     26  N   UNL     1      49.426   5.531  18.663  0.00  0.00    +0.000 NA
ATOM     27  C   UNL     1      48.722   4.273  18.942  0.00  0.00    +0.000 C 
ATOM     28  C   UNL     1      48.706   3.552  17.609  0.00  0.00    +0.000 C 
ATOM     29  O   UNL     1      49.873   4.002  16.912  0.00  0.00    +0.000 OA
ATOM     30  C   UNL     1      50.424   5.066  17.692  0.00  0.00    +0.000 C 
ENDBRANCH  25  26
ENDBRANCH  24  25
ENDBRANCH  23  24
ENDBRANCH  20  23
ENDBRANCH  16  17
ENDBRANCH   3  16
TORSDOF 7
ENDMDL
MODEL 8
REMARK VINA RESULT:    -6.269      3.129      4.853
REMARK INTER + INTRA:          -9.676
REMARK INTER:                  -8.648
REMARK INTRA:                  -1.028
REMARK UNBOUND:                -0.842
REMARK  Name = 
REMARK  7 active torsions:
REMARK  status: ('A' for Active; 'I' for Inactive)
REMARK    1  A    between atoms: C_2  and  C_19
REMARK    2  A    between atoms: N_3  and  C_4
REMARK    3  A    between atoms: C_4  and  C_5
REMARK    4  A    between atoms: C_8  and  C_9
REMARK    5  A    between atoms: C_9  and  C_10
REMARK    6  A    between atoms: C_10  and  C_11
REMARK    7  A    between atoms: C_11  and  N_12
REMARK                            x       y       z     vdW  Elec       q    Type
REMARK                         _______ _______ _______ _____ _____    ______ ____
ROOT
ATOM      1  O   UNL     1      49.806   6.320  19.141  0.00  0.00    +0.000 OA
ATOM      2  C   UNL     1      50.464   5.896  18.196  0.00  0.00    +0.000 C 
ATOM      3  N   UNL     1      50.302   6.381  16.921  0.00  0.00    +0.000 N 
ATOM      4  H   UNL     1      50.709   5.879  16.137  0.00  0.00    +0.000 HD
ENDROOT
BRANCH   2   5
ATOM      5  C   UNL     1      51.487   4.861  18.389  0.00  0.00    +0.000 A 
ATOM      6  C   UNL     1      52.650   5.167  19.082  0.00  0.00    +0.000 A 
ATOM      7  S   UNL     1      53.720   3.847  19.239  0.00  0.00    +0.000 S 
ATOM      8  C   UNL     1      52.643   2.810  18.427  0.00  0.00    +0.000 A 
ATOM      9  N   UNL     1      52.936   1.492  18.259  0.00  0.00    +0.000 NA
ATOM     10  C   UNL     1      52.014   0.814  17.663  0.00  0.00    +0.000 A 
ATOM     11  N   UNL     1      50.834   1.338  17.203  0.00  0.00    +0.000 N 
ATOM     12  C   UNL     1      50.515   2.671  17.309  0.00  0.00    +0.000 A 
ATOM     13  O   UNL     1      49.481   3.120  16.827  0.00  0.00    +0.000 OA
ATOM     14  C   UNL     1      51.502   3.471  18.008  0.00  0.00    +0.000 A 
ATOM     15  H   UNL     1      50.165   0.757  16.718  0.00  0.00    +0.000 HD
ENDBRANCH   2   5
BRANCH   3  16
ATOM     16  C   UNL     1      49.225   7.292  16.635  0.00  0.00    +0.000 C 
BRANCH  16  17
ATOM     17  C   UNL     1      48.647   7.085  15.260  0.00  0.00    +0.000 A 
ATOM     18  C   UNL     1      48.051   5.865  14.916  0.00  0.00    +0.000 A 
ATOM     19  C   UNL     1      47.457   5.693  13.663  0.00  0.00    +0.000 A 
ATOM     20  C   UNL     1      47.445   6.735  12.726  0.00  0.00    +0.000 A 
ATOM     21  C   UNL     1      48.085   7.936  13.053  0.00  0.00    +0.000 A 
ATOM     22  C   UNL     1      48.686   8.107  14.305  0.00  0.00    +0.000 A 
BRANCH  20  23
ATOM     23  C   UNL     1      46.774   6.558  11.382  0.00  0.00    +0.000 C 
BRANCH  23  24
ATOM     24  C   UNL     1      45.257   6.357  11.505  0.00  0.00    +0.000 C 
BRANCH  24  25
ATOM     25  C   UNL     1      44.715   5.230  10.613  0.00  0.00    +0.000 C 
BRANCH  25  26
ATOM     26  N   UNL     1      45.196   3.885  10.969  0.00  0.00    +0.000 NA
ATOM     27  C   UNL     1      44.937   3.521  12.368  0.00  0.00    +0.000 C 
ATOM     28  C   UNL     1      43.490   3.068  12.373  0.00  0.00    +0.000 C 
ATOM     29  O   UNL     1      43.244   2.549  11.060  0.00  0.00    +0.000 OA
ATOM     30  C   UNL     1      44.398   2.864  10.278  0.00  0.00    +0.000 C 
ENDBRANCH  25  26
ENDBRANCH  24  25
ENDBRANCH  23  24
ENDBRANCH  20  23
ENDBRANCH  16  17
ENDBRANCH   3  16
TORSDOF 7
ENDMDL
MODEL 9
REMARK VINA RESULT:    -5.966      3.239      8.525
REMARK INTER + INTRA:          -9.249
REMARK INTER:                  -8.014
REMARK INTRA:                  -1.235
REMARK UNBOUND:                -0.842
REMARK  Name = 
REMARK  7 active torsions:
REMARK  status: ('A' for Active; 'I' for Inactive)
REMARK    1  A    between atoms: C_2  and  C_19
REMARK    2  A    between atoms: N_3  and  C_4
REMARK    3  A    between atoms: C_4  and  C_5
REMARK    4  A    between atoms: C_8  and  C_9
REMARK    5  A    between atoms: C_9  and  C_10
REMARK    6  A    between atoms: C_10  and  C_11
REMARK    7  A    between atoms: C_11  and  N_12
REMARK                            x       y       z     vdW  Elec       q    Type
REMARK                         _______ _______ _______ _____ _____    ______ ____
ROOT
ATOM      1  O   UNL     1      43.853   7.410  11.532  0.00  0.00    +0.000 OA
ATOM      2  C   UNL     1      44.755   6.579  11.482  0.00  0.00    +0.000 C 
ATOM      3  N   UNL     1      46.072   6.924  11.659  0.00  0.00    +0.000 N 
ATOM      4  H   UNL     1      46.802   6.261  11.416  0.00  0.00    +0.000 HD
ENDROOT
BRANCH   2   5
ATOM      5  C   UNL     1      44.464   5.158  11.258  0.00  0.00    +0.000 A 
ATOM      6  C   UNL     1      43.658   4.473  12.157  0.00  0.00    +0.000 A 
ATOM      7  S   UNL     1      43.399   2.840  11.736  0.00  0.00    +0.000 S 
ATOM      8  C   UNL     1      44.315   3.007  10.313  0.00  0.00    +0.000 A 
ATOM      9  N   UNL     1      44.456   1.966   9.447  0.00  0.00    +0.000 NA
ATOM     10  C   UNL     1      45.142   2.243   8.389  0.00  0.00    +0.000 A 
ATOM     11  N   UNL     1      45.715   3.460   8.128  0.00  0.00    +0.000 N 
ATOM     12  C   UNL     1      45.638   4.525   8.994  0.00  0.00    +0.000 A 
ATOM     13  O   UNL     1      46.219   5.579   8.761  0.00  0.00    +0.000 OA
ATOM     14  C   UNL     1      44.843   4.278  10.181  0.00  0.00    +0.000 A 
ATOM     15  H   UNL     1      46.264   3.604   7.293  0.00  0.00    +0.000 HD
ENDBRANCH   2   5
BRANCH   3  16
ATOM     16  C   UNL     1      46.442   8.312  11.743  0.00  0.00    +0.000 C 
BRANCH  16  17
ATOM     17  C   UNL     1      47.823   8.506  12.311  0.00  0.00    +0.000 A 
ATOM     18  C   UNL     1      48.832   7.568  12.061  0.00  0.00    +0.000 A 
ATOM     19  C   UNL     1      50.131   7.778  12.534  0.00  0.00    +0.000 A 
ATOM     20  C   UNL     1      50.449   8.931  13.266  0.00  0.00    +0.000 A 
ATOM     21  C   UNL     1      49.427   9.842  13.557  0.00  0.00    +0.000 A 
ATOM     22  C   UNL     1      48.125   9.629  13.091  0.00  0.00    +0.000 A 
BRANCH  20  23
ATOM     23  C   UNL     1      51.862   9.173  13.750  0.00  0.00    +0.000 C 
BRANCH  23  24
ATOM     24  C   UNL     1      52.036   8.842  15.238  0.00  0.00    +0.000 C 
BRANCH  24  25
ATOM     25  C   UNL     1      51.670   7.392  15.590  0.00  0.00    +0.000 C 
BRANCH  25  26
ATOM     26  N   UNL     1      50.805   7.251  16.773  0.00  0.00    +0.000 NA
ATOM     27  C   UNL     1      49.439   7.747  16.563  0.00  0.00    +0.000 C 
ATOM     28  C   UNL     1      48.737   6.613  15.843  0.00  0.00    +0.000 C 
ATOM     29  O   UNL     1      49.394   5.416  16.276  0.00  0.00    +0.000 OA
ATOM     30  C   UNL     1      50.534   5.832  17.033  0.00  0.00    +0.000 C 
ENDBRANCH  25  26
ENDBRANCH  24  25
ENDBRANCH  23  24
ENDBRANCH  20  23
ENDBRANCH  16  17
ENDBRANCH   3  16
TORSDOF 7
ENDMDL
