MODEL 1
REMARK VINA RESULT:    -7.996      0.000      0.000
REMARK INTER + INTRA:         -12.735
REMARK INTER:                 -11.736
REMARK INTRA:                  -0.999
REMARK UNBOUND:                -0.999
REMARK  Name = 
REMARK  10 active torsions:
REMARK  status: ('A' for Active; 'I' for Inactive)
REMARK    1  A    between atoms: C_1  and  O_2
REMARK    2  A    between atoms: O_2  and  C_3
REMARK    3  A    between atoms: C_7  and  C_8
REMARK    4  A    between atoms: C_8  and  N_9
REMARK    5  A    between atoms: N_9  and  C_10
REMARK    6  A    between atoms: N_9  and  C_11
REMARK    7  A    between atoms: C_11  and  C_12
REMARK    8  A    between atoms: C_15  and  C_16
REMARK    9  A    between atoms: C_16  and  N_17
REMARK   10  A    between atoms: C_18  and  C_20
REMARK                            x       y       z     vdW  Elec       q    Type
REMARK                         _______ _______ _______ _____ _____    ______ ____
ROOT
ATOM      1  C   UNL     1      46.409   4.953  13.018  0.00  0.00    +0.000 A 
ATOM      2  C   UNL     1      47.067   6.123  12.619  0.00  0.00    +0.000 A 
ATOM      3  C   UNL     1      47.945   6.777  13.490  0.00  0.00    +0.000 A 
ATOM      4  C   UNL     1      48.182   6.267  14.774  0.00  0.00    +0.000 A 
ATOM      5  C   UNL     1      47.531   5.091  15.168  0.00  0.00    +0.000 A 
ATOM      6  C   UNL     1      46.658   4.439  14.298  0.00  0.00    +0.000 A 
ENDROOT
BRANCH   1   7
ATOM      7  C   UNL     1      45.384   4.286  12.129  0.00  0.00    +0.000 C 
BRANCH   7   8
ATOM      8  N   UNL     1      44.527   5.207  11.364  0.00  0.00    +0.000 NA
ATOM      9  C   UNL     1      43.494   5.733  12.269  0.00  0.00    +0.000 C 
BRANCH   8  10
ATOM     10  C   UNL     1      43.940   4.553  10.177  0.00  0.00    +0.000 C 
BRANCH  10  15
ATOM     11  C   UNL     1      45.973   1.894   8.346  0.00  0.00    +0.000 A 
ATOM     12  C   UNL     1      46.679   2.681   7.435  0.00  0.00    +0.000 A 
ATOM     13  C   UNL     1      46.590   4.074   7.490  0.00  0.00    +0.000 A 
ATOM     14  C   UNL     1      45.766   4.685   8.432  0.00  0.00    +0.000 A 
ATOM     15  C   UNL     1      45.009   3.906   9.318  0.00  0.00    +0.000 A 
ATOM     16  C   UNL     1      45.156   2.511   9.296  0.00  0.00    +0.000 A 
BRANCH  11  18
ATOM     17  C   UNL     1      46.803  -0.145   7.461  0.00  0.00    +0.000 C 
ATOM     18  O   UNL     1      45.971   0.527   8.398  0.00  0.00    +0.000 OA
ENDBRANCH  11  18
ENDBRANCH  10  15
ENDBRANCH   8  10
ENDBRANCH   7   8
ENDBRANCH   1   7
BRANCH   4  19
ATOM     19  C   UNL     1      49.045   7.010  15.759  0.00  0.00    +0.000 C 
BRANCH  19  20
ATOM     20  N   UNL     1      50.089   6.148  16.261  0.00  0.00    +0.000 N 
ATOM     21  C   UNL     1      50.116   5.731  17.563  0.00  0.00    +0.000 C 
ATOM     22  O   UNL     1      49.232   6.039  18.362  0.00  0.00    +0.000 OA
ATOM     23  H   UNL     1      50.925   6.065  15.690  0.00  0.00    +0.000 HD
BRANCH  21  24
ATOM     24  C   UNL     1      51.220   4.845  17.946  0.00  0.00    +0.000 A 
ATOM     25  C   UNL     1      52.344   5.375  18.565  0.00  0.00    +0.000 A 
ATOM     26  S   UNL     1      53.509   4.207  18.990  0.00  0.00    +0.000 S 
ATOM     27  C   UNL     1      52.579   2.953  18.310  0.00  0.00    +0.000 A 
ATOM     28  N   UNL     1      53.025   1.670  18.325  0.00  0.00    +0.000 NA
ATOM     29  C   UNL     1      52.231   0.824  17.754  0.00  0.00    +0.000 A 
ATOM     30  N   UNL     1      51.034   1.147  17.173  0.00  0.00    +0.000 N 
ATOM     31  C   UNL     1      50.538   2.429  17.149  0.00  0.00    +0.000 A 
ATOM     32  O   UNL     1      49.451   2.679  16.634  0.00  0.00    +0.000 OA
ATOM     33  C   UNL     1      51.390   3.416  17.777  0.00  0.00    +0.000 A 
ATOM     34  H   UNL     1      50.457   0.437  16.746  0.00  0.00    +0.000 HD
ENDBRANCH  21  24
ENDBRANCH  19  20
ENDBRANCH   4  19
TORSDOF 8
ENDMDL
MODEL 2
REMARK VINA RESULT:    -7.718      3.367      8.763
REMARK INTER + INTRA:         -12.326
REMARK INTER:                 -10.473
REMARK INTRA:                  -1.853
REMARK UNBOUND:                -0.999
REMARK  Name = 
REMARK  10 active torsions:
REMARK  status: ('A' for Active; 'I' for Inactive)
REMARK    1  A    between atoms: C_1  and  O_2
REMARK    2  A    between atoms: O_2  and  C_3
REMARK    3  A    between atoms: C_7  and  C_8
REMARK    4  A    between atoms: C_8  and  N_9
REMARK    5  A    between atoms: N_9  and  C_10
REMARK    6  A    between atoms: N_9  and  C_11
REMARK    7  A    between atoms: C_11  and  C_12
REMARK    8  A    between atoms: C_15  and  C_16
REMARK    9  A    between atoms: C_16  and  N_17
REMARK   10  A    between atoms: C_18  and  C_20
REMARK                            x       y       z     vdW  Elec       q    Type
REMARK                         _______ _______ _______ _____ _____    ______ ____
ROOT
ATOM      1  C   UNL     1      49.406   8.073  15.453  0.00  0.00    +0.000 A 
ATOM      2  C   UNL     1      49.782   7.301  14.347  0.00  0.00    +0.000 A 
ATOM      3  C   UNL     1      49.028   7.334  13.168  0.00  0.00    +0.000 A 
ATOM      4  C   UNL     1      47.888   8.145  13.076  0.00  0.00    +0.000 A 
ATOM      5  C   UNL     1      47.521   8.925  14.180  0.00  0.00    +0.000 A 
ATOM      6  C   UNL     1      48.274   8.894  15.353  0.00  0.00    +0.000 A 
ENDROOT
BRANCH   1   7
ATOM      7  C   UNL     1      50.150   7.979  16.765  0.00  0.00    +0.000 C 
BRANCH   7   8
ATOM      8  N   UNL     1      49.450   7.238  17.828  0.00  0.00    +0.000 NA
ATOM      9  C   UNL     1      49.157   8.171  18.926  0.00  0.00    +0.000 C 
BRANCH   8  10
ATOM     10  C   UNL     1      50.229   6.070  18.287  0.00  0.00    +0.000 C 
BRANCH  10  15
ATOM     11  C   UNL     1      47.952   3.625  16.445  0.00  0.00    +0.000 A 
ATOM     12  C   UNL     1      48.701   2.451  16.529  0.00  0.00    +0.000 A 
ATOM     13  C   UNL     1      49.879   2.418  17.280  0.00  0.00    +0.000 A 
ATOM     14  C   UNL     1      50.332   3.570  17.918  0.00  0.00    +0.000 A 
ATOM     15  C   UNL     1      49.620   4.771  17.797  0.00  0.00    +0.000 A 
ATOM     16  C   UNL     1      48.405   4.775  17.096  0.00  0.00    +0.000 A 
BRANCH  11  18
ATOM     17  C   UNL     1      46.834   4.682  14.638  0.00  0.00    +0.000 C 
ATOM     18  O   UNL     1      46.789   3.790  15.745  0.00  0.00    +0.000 OA
ENDBRANCH  11  18
ENDBRANCH  10  15
ENDBRANCH   8  10
ENDBRANCH   7   8
ENDBRANCH   1   7
BRANCH   4  19
ATOM     19  C   UNL     1      47.011   8.118  11.854  0.00  0.00    +0.000 C 
BRANCH  19  20
ATOM     20  N   UNL     1      46.461   6.797  11.660  0.00  0.00    +0.000 N 
ATOM     21  C   UNL     1      45.122   6.593  11.472  0.00  0.00    +0.000 C 
ATOM     22  O   UNL     1      44.325   7.529  11.420  0.00  0.00    +0.000 OA
ATOM     23  H   UNL     1      47.057   6.015  11.914  0.00  0.00    +0.000 HD
BRANCH  21  24
ATOM     24  C   UNL     1      44.691   5.206  11.272  0.00  0.00    +0.000 A 
ATOM     25  C   UNL     1      43.951   4.567  12.258  0.00  0.00    +0.000 A 
ATOM     26  S   UNL     1      43.487   2.980  11.847  0.00  0.00    +0.000 S 
ATOM     27  C   UNL     1      44.307   3.067  10.358  0.00  0.00    +0.000 A 
ATOM     28  N   UNL     1      44.319   2.007   9.508  0.00  0.00    +0.000 NA
ATOM     29  C   UNL     1      44.998   2.201   8.424  0.00  0.00    +0.000 A 
ATOM     30  N   UNL     1      45.664   3.359   8.118  0.00  0.00    +0.000 N 
ATOM     31  C   UNL     1      45.665   4.460   8.942  0.00  0.00    +0.000 A 
ATOM     32  O   UNL     1      46.258   5.487   8.624  0.00  0.00    +0.000 OA
ATOM     33  C   UNL     1      44.916   4.294  10.169  0.00  0.00    +0.000 A 
ATOM     34  H   UNL     1      46.174   3.448   7.251  0.00  0.00    +0.000 HD
ENDBRANCH  21  24
ENDBRANCH  19  20
ENDBRANCH   4  19
TORSDOF 8
ENDMDL
MODEL 3
REMARK VINA RESULT:    -7.442      2.065      2.836
REMARK INTER + INTRA:         -11.921
REMARK INTER:                 -10.506
REMARK INTRA:                  -1.416
REMARK UNBOUND:                -0.999
REMARK  Name = 
REMARK  10 active torsions:
REMARK  status: ('A' for Active; 'I' for Inactive)
REMARK    1  A    between atoms: C_1  and  O_2
REMARK    2  A    between atoms: O_2  and  C_3
REMARK    3  A    between atoms: C_7  and  C_8
REMARK    4  A    between atoms: C_8  and  N_9
REMARK    5  A    between atoms: N_9  and  C_10
REMARK    6  A    between atoms: N_9  and  C_11
REMARK    7  A    between atoms: C_11  and  C_12
REMARK    8  A    between atoms: C_15  and  C_16
REMARK    9  A    between atoms: C_16  and  N_17
REMARK   10  A    between atoms: C_18  and  C_20
REMARK                            x       y       z     vdW  Elec       q    Type
REMARK                         _______ _______ _______ _____ _____    ______ ____
ROOT
ATOM      1  C   UNL     1      45.725   5.813  12.671  0.00  0.00    +0.000 A 
ATOM      2  C   UNL     1      46.854   5.437  13.408  0.00  0.00    +0.000 A 
ATOM      3  C   UNL     1      48.042   6.171  13.313  0.00  0.00    +0.000 A 
ATOM      4  C   UNL     1      48.116   7.298  12.482  0.00  0.00    +0.000 A 
ATOM      5  C   UNL     1      46.982   7.679  11.755  0.00  0.00    +0.000 A 
ATOM      6  C   UNL     1      45.798   6.948  11.851  0.00  0.00    +0.000 A 
ENDROOT
BRANCH   1   7
ATOM      7  C   UNL     1      44.464   4.979  12.685  0.00  0.00    +0.000 C 
BRANCH   7   8
ATOM      8  N   UNL     1      43.602   5.130  11.501  0.00  0.00    +0.000 NA
ATOM      9  C   UNL     1      42.324   5.717  11.933  0.00  0.00    +0.000 C 
BRANCH   8  10
ATOM     10  C   UNL     1      43.411   3.848  10.793  0.00  0.00    +0.000 C 
BRANCH  10  15
ATOM     11  C   UNL     1      45.821   1.998   8.487  0.00  0.00    +0.000 A 
ATOM     12  C   UNL     1      46.316   3.053   7.719  0.00  0.00    +0.000 A 
ATOM     13  C   UNL     1      45.964   4.370   8.023  0.00  0.00    +0.000 A 
ATOM     14  C   UNL     1      45.087   4.636   9.071  0.00  0.00    +0.000 A 
ATOM     15  C   UNL     1      44.539   3.582   9.816  0.00  0.00    +0.000 A 
ATOM     16  C   UNL     1      44.950   2.269   9.544  0.00  0.00    +0.000 A 
BRANCH  11  18
ATOM     17  C   UNL     1      47.054   0.351   7.304  0.00  0.00    +0.000 C 
ATOM     18  O   UNL     1      46.084   0.669   8.294  0.00  0.00    +0.000 OA
ENDBRANCH  11  18
ENDBRANCH  10  15
ENDBRANCH   8  10
ENDBRANCH   7   8
ENDBRANCH   1   7
BRANCH   4  19
ATOM     19  C   UNL     1      49.412   8.040  12.292  0.00  0.00    +0.000 C 
BRANCH  19  20
ATOM     20  N   UNL     1      50.413   7.543  13.206  0.00  0.00    +0.000 N 
ATOM     21  C   UNL     1      50.700   8.183  14.380  0.00  0.00    +0.000 C 
ATOM     22  O   UNL     1      50.092   9.193  14.733  0.00  0.00    +0.000 OA
ATOM     23  H   UNL     1      51.062   6.853  12.839  0.00  0.00    +0.000 HD
BRANCH  21  24
ATOM     24  C   UNL     1      51.726   7.570  15.228  0.00  0.00    +0.000 A 
ATOM     25  C   UNL     1      53.054   7.951  15.087  0.00  0.00    +0.000 A 
ATOM     26  S   UNL     1      54.109   7.183  16.181  0.00  0.00    +0.000 S 
ATOM     27  C   UNL     1      52.839   6.269  16.850  0.00  0.00    +0.000 A 
ATOM     28  N   UNL     1      53.073   5.377  17.848  0.00  0.00    +0.000 NA
ATOM     29  C   UNL     1      52.023   4.735  18.246  0.00  0.00    +0.000 A 
ATOM     30  N   UNL     1      50.764   4.905  17.735  0.00  0.00    +0.000 N 
ATOM     31  C   UNL     1      50.479   5.806  16.736  0.00  0.00    +0.000 A 
ATOM     32  O   UNL     1      49.334   5.945  16.315  0.00  0.00    +0.000 OA
ATOM     33  C   UNL     1      51.623   6.553  16.256  0.00  0.00    +0.000 A 
ATOM     34  H   UNL     1      49.984   4.374  18.093  0.00  0.00    +0.000 HD
ENDBRANCH  21  24
ENDBRANCH  19  20
ENDBRANCH   4  19
TORSDOF 8
ENDMDL
MODEL 4
REMARK VINA RESULT:    -7.400      3.161      3.547
REMARK INTER + INTRA:         -11.860
REMARK INTER:                 -10.581
REMARK INTRA:                  -1.279
REMARK UNBOUND:                -0.999
REMARK  Name = 
REMARK  10 active torsions:
REMARK  status: ('A' for Active; 'I' for Inactive)
REMARK    1  A    between atoms: C_1  and  O_2
REMARK    2  A    between atoms: O_2  and  C_3
REMARK    3  A    between atoms: C_7  and  C_8
REMARK    4  A    between atoms: C_8  and  N_9
REMARK    5  A    between atoms: N_9  and  C_10
REMARK    6  A    between atoms: N_9  and  C_11
REMARK    7  A    between atoms: C_11  and  C_12
REMARK    8  A    between atoms: C_15  and  C_16
REMARK    9  A    between atoms: C_16  and  N_17
REMARK   10  A    between atoms: C_18  and  C_20
REMARK                            x       y       z     vdW  Elec       q    Type
REMARK                         _______ _______ _______ _____ _____    ______ ____
ROOT
ATOM      1  C   UNL     1      45.921   4.737  12.820  0.00  0.00    +0.000 A 
ATOM      2  C   UNL     1      46.614   4.508  14.015  0.00  0.00    +0.000 A 
ATOM      3  C   UNL     1      47.606   5.398  14.442  0.00  0.00    +0.000 A 
ATOM      4  C   UNL     1      47.917   6.535  13.683  0.00  0.00    +0.000 A 
ATOM      5  C   UNL     1      47.214   6.767  12.493  0.00  0.00    +0.000 A 
ATOM      6  C   UNL     1      46.224   5.881  12.069  0.00  0.00    +0.000 A 
ENDROOT
BRANCH   1   7
ATOM      7  C   UNL     1      44.915   3.739  12.293  0.00  0.00    +0.000 C 
BRANCH   7   8
ATOM      8  N   UNL     1      44.244   4.130  11.042  0.00  0.00    +0.000 NA
ATOM      9  C   UNL     1      42.914   4.661  11.378  0.00  0.00    +0.000 C 
BRANCH   8  10
ATOM     10  C   UNL     1      44.166   3.007  10.086  0.00  0.00    +0.000 C 
BRANCH  10  15
ATOM     11  C   UNL     1      46.607   1.976   7.342  0.00  0.00    +0.000 A 
ATOM     12  C   UNL     1      47.028   3.224   6.879  0.00  0.00    +0.000 A 
ATOM     13  C   UNL     1      46.618   4.391   7.529  0.00  0.00    +0.000 A 
ATOM     14  C   UNL     1      45.755   4.318   8.620  0.00  0.00    +0.000 A 
ATOM     15  C   UNL     1      45.280   3.075   9.061  0.00  0.00    +0.000 A 
ATOM     16  C   UNL     1      45.750   1.907   8.443  0.00  0.00    +0.000 A 
BRANCH  11  18
ATOM     17  C   UNL     1      46.760  -0.374   7.632  0.00  0.00    +0.000 C 
ATOM     18  O   UNL     1      46.931   0.764   6.797  0.00  0.00    +0.000 OA
ENDBRANCH  11  18
ENDBRANCH  10  15
ENDBRANCH   8  10
ENDBRANCH   7   8
ENDBRANCH   1   7
BRANCH   4  19
ATOM     19  C   UNL     1      49.047   7.448  14.075  0.00  0.00    +0.000 C 
BRANCH  19  20
ATOM     20  N   UNL     1      48.965   7.772  15.479  0.00  0.00    +0.000 N 
ATOM     21  C   UNL     1      49.916   7.361  16.371  0.00  0.00    +0.000 C 
ATOM     22  O   UNL     1      50.909   6.727  16.015  0.00  0.00    +0.000 OA
ATOM     23  H   UNL     1      48.065   8.096  15.820  0.00  0.00    +0.000 HD
BRANCH  21  24
ATOM     24  C   UNL     1      49.727   7.768  17.767  0.00  0.00    +0.000 A 
ATOM     25  C   UNL     1      50.473   8.818  18.285  0.00  0.00    +0.000 A 
ATOM     26  S   UNL     1      50.096   9.196  19.903  0.00  0.00    +0.000 S 
ATOM     27  C   UNL     1      48.960   7.931  19.991  0.00  0.00    +0.000 A 
ATOM     28  N   UNL     1      48.273   7.691  21.139  0.00  0.00    +0.000 NA
ATOM     29  C   UNL     1      47.461   6.687  21.073  0.00  0.00    +0.000 A 
ATOM     30  N   UNL     1      47.275   5.905  19.964  0.00  0.00    +0.000 N 
ATOM     31  C   UNL     1      47.937   6.121  18.778  0.00  0.00    +0.000 A 
ATOM     32  O   UNL     1      47.731   5.410  17.799  0.00  0.00    +0.000 OA
ATOM     33  C   UNL     1      48.859   7.237  18.799  0.00  0.00    +0.000 A 
ATOM     34  H   UNL     1      46.621   5.136  19.977  0.00  0.00    +0.000 HD
ENDBRANCH  21  24
ENDBRANCH  19  20
ENDBRANCH   4  19
TORSDOF 8
ENDMDL
MODEL 5
REMARK VINA RESULT:    -7.191      3.564      8.706
REMARK INTER + INTRA:         -11.553
REMARK INTER:                 -10.006
REMARK INTRA:                  -1.548
REMARK UNBOUND:                -0.999
REMARK  Name = 
REMARK  10 active torsions:
REMARK  status: ('A' for Active; 'I' for Inactive)
REMARK    1  A    between atoms: C_1  and  O_2
REMARK    2  A    between atoms: O_2  and  C_3
REMARK    3  A    between atoms: C_7  and  C_8
REMARK    4  A    between atoms: C_8  and  N_9
REMARK    5  A    between atoms: N_9  and  C_10
REMARK    6  A    between atoms: N_9  and  C_11
REMARK    7  A    between atoms: C_11  and  C_12
REMARK    8  A    between atoms: C_15  and  C_16
REMARK    9  A    between atoms: C_16  and  N_17
REMARK   10  A    between atoms: C_18  and  C_20
REMARK                            x       y       z     vdW  Elec       q    Type
REMARK                         _______ _______ _______ _____ _____    ______ ____
ROOT
ATOM      1  C   UNL     1      50.600   7.417  15.365  0.00  0.00    +0.000 A 
ATOM      2  C   UNL     1      49.249   7.048  15.342  0.00  0.00    +0.000 A 
ATOM      3  C   UNL     1      48.457   7.322  14.222  0.00  0.00    +0.000 A 
ATOM      4  C   UNL     1      49.005   7.965  13.103  0.00  0.00    +0.000 A 
ATOM      5  C   UNL     1      50.359   8.323  13.124  0.00  0.00    +0.000 A 
ATOM      6  C   UNL     1      51.149   8.048  14.240  0.00  0.00    +0.000 A 
ENDROOT
BRANCH   1   7
ATOM      7  C   UNL     1      51.447   7.217  16.601  0.00  0.00    +0.000 C 
BRANCH   7   8
ATOM      8  N   UNL     1      50.768   6.550  17.723  0.00  0.00    +0.000 NA
ATOM      9  C   UNL     1      50.648   7.512  18.828  0.00  0.00    +0.000 C 
BRANCH   8  10
ATOM     10  C   UNL     1      51.470   5.318  18.136  0.00  0.00    +0.000 C 
BRANCH  10  15
ATOM     11  C   UNL     1      48.626   3.089  16.915  0.00  0.00    +0.000 A 
ATOM     12  C   UNL     1      49.308   1.895  16.677  0.00  0.00    +0.000 A 
ATOM     13  C   UNL     1      50.656   1.773  17.022  0.00  0.00    +0.000 A 
ATOM     14  C   UNL     1      51.338   2.856  17.571  0.00  0.00    +0.000 A 
ATOM     15  C   UNL     1      50.680   4.079  17.764  0.00  0.00    +0.000 A 
ATOM     16  C   UNL     1      49.311   4.169  17.476  0.00  0.00    +0.000 A 
BRANCH  11  18
ATOM     17  C   UNL     1      47.059   4.167  15.496  0.00  0.00    +0.000 C 
ATOM     18  O   UNL     1      47.313   3.338  16.623  0.00  0.00    +0.000 OA
ENDBRANCH  11  18
ENDBRANCH  10  15
ENDBRANCH   8  10
ENDBRANCH   7   8
ENDBRANCH   1   7
BRANCH   4  19
ATOM     19  C   UNL     1      48.146   8.356  11.931  0.00  0.00    +0.000 C 
BRANCH  19  20
ATOM     20  N   UNL     1      47.491   7.194  11.380  0.00  0.00    +0.000 N 
ATOM     21  C   UNL     1      46.136   7.023  11.460  0.00  0.00    +0.000 C 
ATOM     22  O   UNL     1      45.405   7.870  11.973  0.00  0.00    +0.000 OA
ATOM     23  H   UNL     1      48.084   6.400  11.155  0.00  0.00    +0.000 HD
BRANCH  21  24
ATOM     24  C   UNL     1      45.590   5.808  10.849  0.00  0.00    +0.000 A 
ATOM     25  C   UNL     1      45.817   5.553   9.503  0.00  0.00    +0.000 A 
ATOM     26  S   UNL     1      45.159   4.077   8.964  0.00  0.00    +0.000 S 
ATOM     27  C   UNL     1      44.497   3.748  10.497  0.00  0.00    +0.000 A 
ATOM     28  N   UNL     1      43.776   2.617  10.716  0.00  0.00    +0.000 NA
ATOM     29  C   UNL     1      43.313   2.506  11.918  0.00  0.00    +0.000 A 
ATOM     30  N   UNL     1      43.506   3.423  12.917  0.00  0.00    +0.000 N 
ATOM     31  C   UNL     1      44.240   4.572  12.743  0.00  0.00    +0.000 A 
ATOM     32  O   UNL     1      44.407   5.363  13.668  0.00  0.00    +0.000 OA
ATOM     33  C   UNL     1      44.783   4.744  11.412  0.00  0.00    +0.000 A 
ATOM     34  H   UNL     1      43.119   3.274  13.837  0.00  0.00    +0.000 HD
ENDBRANCH  21  24
ENDBRANCH  19  20
ENDBRANCH   4  19
TORSDOF 8
ENDMDL
MODEL 6
REMARK VINA RESULT:    -7.124      3.824      9.969
REMARK INTER + INTRA:         -11.455
REMARK INTER:                 -10.194
REMARK INTRA:                  -1.261
REMARK UNBOUND:                -0.999
REMARK  Name = 
REMARK  10 active torsions:
REMARK  status: ('A' for Active; 'I' for Inactive)
REMARK    1  A    between atoms: C_1  and  O_2
REMARK    2  A    between atoms: O_2  and  C_3
REMARK    3  A    between atoms: C_7  and  C_8
REMARK    4  A    between atoms: C_8  and  N_9
REMARK    5  A    between atoms: N_9  and  C_10
REMARK    6  A    between atoms: N_9  and  C_11
REMARK    7  A    between atoms: C_11  and  C_12
REMARK    8  A    between atoms: C_15  and  C_16
REMARK    9  A    between atoms: C_16  and  N_17
REMARK   10  A    between atoms: C_18  and  C_20
REMARK                            x       y       z     vdW  Elec       q    Type
REMARK                         _______ _______ _______ _____ _____    ______ ____
ROOT
ATOM      1  C   UNL     1      51.466   4.055  17.707  0.00  0.00    +0.000 A 
ATOM      2  C   UNL     1      50.979   2.762  17.480  0.00  0.00    +0.000 A 
ATOM      3  C   UNL     1      49.638   2.558  17.136  0.00  0.00    +0.000 A 
ATOM      4  C   UNL     1      48.764   3.646  17.006  0.00  0.00    +0.000 A 
ATOM      5  C   UNL     1      49.256   4.940  17.223  0.00  0.00    +0.000 A 
ATOM      6  C   UNL     1      50.593   5.142  17.564  0.00  0.00    +0.000 A 
ENDROOT
BRANCH   1   7
ATOM      7  C   UNL     1      52.884   4.289  18.174  0.00  0.00    +0.000 C 
BRANCH   7   8
ATOM      8  N   UNL     1      53.358   3.368  19.220  0.00  0.00    +0.000 NA
ATOM      9  C   UNL     1      53.129   3.999  20.529  0.00  0.00    +0.000 C 
BRANCH   8  10
ATOM     10  C   UNL     1      54.773   2.995  19.025  0.00  0.00    +0.000 C 
BRANCH  10  15
ATOM     11  C   UNL     1      54.374  -0.671  18.050  0.00  0.00    +0.000 A 
ATOM     12  C   UNL     1      54.744  -0.629  16.705  0.00  0.00    +0.000 A 
ATOM     13  C   UNL     1      55.236   0.553  16.146  0.00  0.00    +0.000 A 
ATOM     14  C   UNL     1      55.323   1.708  16.919  0.00  0.00    +0.000 A 
ATOM     15  C   UNL     1      54.903   1.695  18.256  0.00  0.00    +0.000 A 
ATOM     16  C   UNL     1      54.473   0.487  18.824  0.00  0.00    +0.000 A 
BRANCH  11  18
ATOM     17  C   UNL     1      54.647  -2.952  18.643  0.00  0.00    +0.000 C 
ATOM     18  O   UNL     1      53.878  -1.759  18.715  0.00  0.00    +0.000 OA
ENDBRANCH  11  18
ENDBRANCH  10  15
ENDBRANCH   8  10
ENDBRANCH   7   8
ENDBRANCH   1   7
BRANCH   4  19
ATOM     19  C   UNL     1      47.298   3.439  16.734  0.00  0.00    +0.000 C 
BRANCH  19  20
ATOM     20  N   UNL     1      46.821   4.418  15.786  0.00  0.00    +0.000 N 
ATOM     21  C   UNL     1      46.811   4.174  14.441  0.00  0.00    +0.000 C 
ATOM     22  O   UNL     1      47.171   3.094  13.974  0.00  0.00    +0.000 OA
ATOM     23  H   UNL     1      46.729   5.372  16.124  0.00  0.00    +0.000 HD
BRANCH  21  24
ATOM     24  C   UNL     1      46.288   5.243  13.584  0.00  0.00    +0.000 A 
ATOM     25  C   UNL     1      47.051   6.381  13.361  0.00  0.00    +0.000 A 
ATOM     26  S   UNL     1      46.322   7.500  12.303  0.00  0.00    +0.000 S 
ATOM     27  C   UNL     1      44.932   6.530  12.146  0.00  0.00    +0.000 A 
ATOM     28  N   UNL     1      43.889   6.929  11.373  0.00  0.00    +0.000 NA
ATOM     29  C   UNL     1      42.889   6.108  11.363  0.00  0.00    +0.000 A 
ATOM     30  N   UNL     1      42.843   4.927  12.055  0.00  0.00    +0.000 N 
ATOM     31  C   UNL     1      43.881   4.478  12.837  0.00  0.00    +0.000 A 
ATOM     32  O   UNL     1      43.810   3.404  13.428  0.00  0.00    +0.000 OA
ATOM     33  C   UNL     1      45.026   5.362  12.881  0.00  0.00    +0.000 A 
ATOM     34  H   UNL     1      42.032   4.327  12.001  0.00  0.00    +0.000 HD
ENDBRANCH  21  24
ENDBRANCH  19  20
ENDBRANCH   4  19
TORSDOF 8
ENDMDL
MODEL 7
REMARK VINA RESULT:    -7.022      3.749      9.227
REMARK INTER + INTRA:         -11.305
REMARK INTER:                  -9.740
REMARK INTRA:                  -1.565
REMARK UNBOUND:                -0.999
REMARK  Name = 
REMARK  10 active torsions:
REMARK  status: ('A' for Active; 'I' for Inactive)
REMARK    1  A    between atoms: C_1  and  O_2
REMARK    2  A    between atoms: O_2  and  C_3
REMARK    3  A    between atoms: C_7  and  C_8
REMARK    4  A    between atoms: C_8  and  N_9
REMARK    5  A    between atoms: N_9  and  C_10
REMARK    6  A    between atoms: N_9  and  C_11
REMARK    7  A    between atoms: C_11  and  C_12
REMARK    8  A    between atoms: C_15  and  C_16
REMARK    9  A    between atoms: C_16  and  N_17
REMARK   10  A    between atoms: C_18  and  C_20
REMARK                            x       y       z     vdW  Elec       q    Type
REMARK                         _______ _______ _______ _____ _____    ______ ____
ROOT
ATOM      1  C   UNL     1      51.340   3.633  17.939  0.00  0.00    +0.000 A 
ATOM      2  C   UNL     1      50.818   2.454  17.393  0.00  0.00    +0.000 A 
ATOM      3  C   UNL     1      49.471   2.381  17.019  0.00  0.00    +0.000 A 
ATOM      4  C   UNL     1      48.627   3.488  17.180  0.00  0.00    +0.000 A 
ATOM      5  C   UNL     1      49.155   4.670  17.717  0.00  0.00    +0.000 A 
ATOM      6  C   UNL     1      50.498   4.743  18.087  0.00  0.00    +0.000 A 
ENDROOT
BRANCH   1   7
ATOM      7  C   UNL     1      52.766   3.702  18.438  0.00  0.00    +0.000 C 
BRANCH   7   8
ATOM      8  N   UNL     1      53.779   3.964  17.403  0.00  0.00    +0.000 NA
ATOM      9  C   UNL     1      54.839   2.953  17.528  0.00  0.00    +0.000 C 
BRANCH   8  10
ATOM     10  C   UNL     1      54.312   5.339  17.491  0.00  0.00    +0.000 C 
BRANCH  10  15
ATOM     11  C   UNL     1      52.497   7.775  15.183  0.00  0.00    +0.000 A 
ATOM     12  C   UNL     1      53.466   7.979  14.199  0.00  0.00    +0.000 A 
ATOM     13  C   UNL     1      54.653   7.242  14.215  0.00  0.00    +0.000 A 
ATOM     14  C   UNL     1      54.893   6.327  15.237  0.00  0.00    +0.000 A 
ATOM     15  C   UNL     1      53.954   6.151  16.262  0.00  0.00    +0.000 A 
ATOM     16  C   UNL     1      52.738   6.848  16.199  0.00  0.00    +0.000 A 
BRANCH  11  18
ATOM     17  C   UNL     1      50.135   7.617  15.341  0.00  0.00    +0.000 C 
ATOM     18  O   UNL     1      51.300   8.429  15.282  0.00  0.00    +0.000 OA
ENDBRANCH  11  18
ENDBRANCH  10  15
ENDBRANCH   8  10
ENDBRANCH   7   8
ENDBRANCH   1   7
BRANCH   4  19
ATOM     19  C   UNL     1      47.156   3.396  16.877  0.00  0.00    +0.000 C 
BRANCH  19  20
ATOM     20  N   UNL     1      46.787   4.379  15.886  0.00  0.00    +0.000 N 
ATOM     21  C   UNL     1      46.914   4.136  14.546  0.00  0.00    +0.000 C 
ATOM     22  O   UNL     1      47.314   3.054  14.118  0.00  0.00    +0.000 OA
ATOM     23  H   UNL     1      46.666   5.333  16.213  0.00  0.00    +0.000 HD
BRANCH  21  24
ATOM     24  C   UNL     1      46.490   5.209  13.641  0.00  0.00    +0.000 A 
ATOM     25  C   UNL     1      47.354   6.261  13.369  0.00  0.00    +0.000 A 
ATOM     26  S   UNL     1      46.729   7.393  12.260  0.00  0.00    +0.000 S 
ATOM     27  C   UNL     1      45.255   6.549  12.144  0.00  0.00    +0.000 A 
ATOM     28  N   UNL     1      44.251   7.007  11.352  0.00  0.00    +0.000 NA
ATOM     29  C   UNL     1      43.180   6.282  11.376  0.00  0.00    +0.000 A 
ATOM     30  N   UNL     1      43.027   5.143  12.121  0.00  0.00    +0.000 N 
ATOM     31  C   UNL     1      44.021   4.635  12.924  0.00  0.00    +0.000 A 
ATOM     32  O   UNL     1      43.853   3.600  13.563  0.00  0.00    +0.000 OA
ATOM     33  C   UNL     1      45.243   5.412  12.931  0.00  0.00    +0.000 A 
ATOM     34  H   UNL     1      42.164   4.618  12.092  0.00  0.00    +0.000 HD
ENDBRANCH  21  24
ENDBRANCH  19  20
ENDBRANCH   4  19
TORSDOF 8
ENDMDL
MODEL 8
REMARK VINA RESULT:    -6.697      5.747      8.868
REMARK INTER + INTRA:         -10.829
REMARK INTER:                  -9.529
REMARK INTRA:                  -1.300
REMARK UNBOUND:                -0.999
REMARK  Name = 
REMARK  10 active torsions:
REMARK  status: ('A' for Active; 'I' for Inactive)
REMARK    1  A    between atoms: C_1  and  O_2
REMARK    2  A    between atoms: O_2  and  C_3
REMARK    3  A    between atoms: C_7  and  C_8
REMARK    4  A    between atoms: C_8  and  N_9
REMARK    5  A    between atoms: N_9  and  C_10
REMARK    6  A    between atoms: N_9  and  C_11
REMARK    7  A    between atoms: C_11  and  C_12
REMARK    8  A    between atoms: C_15  and  C_16
REMARK    9  A    between atoms: C_16  and  N_17
REMARK   10  A    between atoms: C_18  and  C_20
REMARK                            x       y       z     vdW  Elec       q    Type
REMARK                         _______ _______ _______ _____ _____    ______ ____
ROOT
ATOM      1  C   UNL     1      49.734   9.308  11.684  0.00  0.00    +0.000 A 
ATOM      2  C   UNL     1      48.801  10.300  12.008  0.00  0.00    +0.000 A 
ATOM      3  C   UNL     1      47.457   9.970  12.221  0.00  0.00    +0.000 A 
ATOM      4  C   UNL     1      47.028   8.639  12.118  0.00  0.00    +0.000 A 
ATOM      5  C   UNL     1      47.965   7.647  11.805  0.00  0.00    +0.000 A 
ATOM      6  C   UNL     1      49.304   7.977  11.594  0.00  0.00    +0.000 A 
ENDROOT
BRANCH   1   7
ATOM      7  C   UNL     1      51.168   9.656  11.355  0.00  0.00    +0.000 C 
BRANCH   7   8
ATOM      8  N   UNL     1      52.171   8.691  11.834  0.00  0.00    +0.000 NA
ATOM      9  C   UNL     1      52.495   9.018  13.231  0.00  0.00    +0.000 C 
BRANCH   8  10
ATOM     10  C   UNL     1      53.373   8.677  10.976  0.00  0.00    +0.000 C 
BRANCH  10  15
ATOM     11  C   UNL     1      52.990   6.836   7.657  0.00  0.00    +0.000 A 
ATOM     12  C   UNL     1      53.589   5.613   7.962  0.00  0.00    +0.000 A 
ATOM     13  C   UNL     1      54.006   5.339   9.266  0.00  0.00    +0.000 A 
ATOM     14  C   UNL     1      53.862   6.300  10.263  0.00  0.00    +0.000 A 
ATOM     15  C   UNL     1      53.313   7.554   9.959  0.00  0.00    +0.000 A 
ATOM     16  C   UNL     1      52.838   7.794   8.662  0.00  0.00    +0.000 A 
BRANCH  11  18
ATOM     17  C   UNL     1      52.709   8.602   6.097  0.00  0.00    +0.000 C 
ATOM     18  O   UNL     1      52.542   7.229   6.426  0.00  0.00    +0.000 OA
ENDBRANCH  11  18
ENDBRANCH  10  15
ENDBRANCH   8  10
ENDBRANCH   7   8
ENDBRANCH   1   7
BRANCH   4  19
ATOM     19  C   UNL     1      45.572   8.279  12.246  0.00  0.00    +0.000 C 
BRANCH  19  20
ATOM     20  N   UNL     1      45.372   6.884  11.936  0.00  0.00    +0.000 N 
ATOM     21  C   UNL     1      44.174   6.412  11.473  0.00  0.00    +0.000 C 
ATOM     22  O   UNL     1      43.221   7.160  11.262  0.00  0.00    +0.000 OA
ATOM     23  H   UNL     1      46.059   6.232  12.302  0.00  0.00    +0.000 HD
BRANCH  21  24
ATOM     24  C   UNL     1      44.103   4.978  11.179  0.00  0.00    +0.000 A 
ATOM     25  C   UNL     1      43.373   4.140  12.012  0.00  0.00    +0.000 A 
ATOM     26  S   UNL     1      43.348   2.516  11.503  0.00  0.00    +0.000 S 
ATOM     27  C   UNL     1      44.361   2.858  10.178  0.00  0.00    +0.000 A 
ATOM     28  N   UNL     1      44.749   1.874   9.326  0.00  0.00    +0.000 NA
ATOM     29  C   UNL     1      45.536   2.269   8.379  0.00  0.00    +0.000 A 
ATOM     30  N   UNL     1      45.967   3.558   8.210  0.00  0.00    +0.000 N 
ATOM     31  C   UNL     1      45.588   4.588   9.039  0.00  0.00    +0.000 A 
ATOM     32  O   UNL     1      45.980   5.735   8.845  0.00  0.00    +0.000 OA
ATOM     33  C   UNL     1      44.704   4.197  10.117  0.00  0.00    +0.000 A 
ATOM     34  H   UNL     1      46.580   3.803   7.445  0.00  0.00    +0.000 HD
ENDBRANCH  21  24
ENDBRANCH  19  20
ENDBRANCH   4  19
TORSDOF 8
ENDMDL
MODEL 9
REMARK VINA RESULT:    -6.144      4.955      9.730
REMARK INTER + INTRA:         -10.016
REMARK INTER:                  -8.061
REMARK INTRA:                  -1.955
REMARK UNBOUND:                -0.999
REMARK  Name = 
REMARK  10 active torsions:
REMARK  status: ('A' for Active; 'I' for Inactive)
REMARK    1  A    between atoms: C_1  and  O_2
REMARK    2  A    between atoms: O_2  and  C_3
REMARK    3  A    between atoms: C_7  and  C_8
REMARK    4  A    between atoms: C_8  and  N_9
REMARK    5  A    between atoms: N_9  and  C_10
REMARK    6  A    between atoms: N_9  and  C_11
REMARK    7  A    between atoms: C_11  and  C_12
REMARK    8  A    between atoms: C_15  and  C_16
REMARK    9  A    between atoms: C_16  and  N_17
REMARK   10  A    between atoms: C_18  and  C_20
REMARK                            x       y       z     vdW  Elec       q    Type
REMARK                         _______ _______ _______ _____ _____    ______ ____
ROOT
ATOM      1  C   UNL     1      49.955   9.175  11.802  0.00  0.00    +0.000 A 
ATOM      2  C   UNL     1      49.183  10.140  12.460  0.00  0.00    +0.000 A 
ATOM      3  C   UNL     1      47.868   9.857  12.845  0.00  0.00    +0.000 A 
ATOM      4  C   UNL     1      47.306   8.600  12.581  0.00  0.00    +0.000 A 
ATOM      5  C   UNL     1      48.084   7.632  11.932  0.00  0.00    +0.000 A 
ATOM      6  C   UNL     1      49.395   7.915  11.551  0.00  0.00    +0.000 A 
ENDROOT
BRANCH   1   7
ATOM      7  C   UNL     1      51.343   9.493  11.293  0.00  0.00    +0.000 C 
BRANCH   7   8
ATOM      8  N   UNL     1      52.194  10.246  12.229  0.00  0.00    +0.000 NA
ATOM      9  C   UNL     1      53.175  11.012  11.446  0.00  0.00    +0.000 C 
BRANCH   8  10
ATOM     10  C   UNL     1      52.844   9.360  13.215  0.00  0.00    +0.000 C 
BRANCH  10  15
ATOM     11  C   UNL     1      50.568  10.126  16.179  0.00  0.00    +0.000 A 
ATOM     12  C   UNL     1      50.040   8.861  16.442  0.00  0.00    +0.000 A 
ATOM     13  C   UNL     1      50.507   7.744  15.744  0.00  0.00    +0.000 A 
ATOM     14  C   UNL     1      51.475   7.893  14.755  0.00  0.00    +0.000 A 
ATOM     15  C   UNL     1      51.974   9.164  14.442  0.00  0.00    +0.000 A 
ATOM     16  C   UNL     1      51.547  10.269  15.193  0.00  0.00    +0.000 A 
BRANCH  11  18
ATOM     17  C   UNL     1      50.440  11.389  18.184  0.00  0.00    +0.000 C 
ATOM     18  O   UNL     1      50.198  11.295  16.786  0.00  0.00    +0.000 OA
ENDBRANCH  11  18
ENDBRANCH  10  15
ENDBRANCH   8  10
ENDBRANCH   7   8
ENDBRANCH   1   7
BRANCH   4  19
ATOM     19  C   UNL     1      45.863   8.311  12.897  0.00  0.00    +0.000 C 
BRANCH  19  20
ATOM     20  N   UNL     1      45.543   6.941  12.570  0.00  0.00    +0.000 N 
ATOM     21  C   UNL     1      44.533   6.623  11.704  0.00  0.00    +0.000 C 
ATOM     22  O   UNL     1      43.873   7.490  11.132  0.00  0.00    +0.000 OA
ATOM     23  H   UNL     1      45.920   6.226  13.184  0.00  0.00    +0.000 HD
BRANCH  21  24
ATOM     24  C   UNL     1      44.317   5.197  11.443  0.00  0.00    +0.000 A 
ATOM     25  C   UNL     1      43.603   4.431  12.354  0.00  0.00    +0.000 A 
ATOM     26  S   UNL     1      43.398   2.809  11.875  0.00  0.00    +0.000 S 
ATOM     27  C   UNL     1      44.306   3.055  10.457  0.00  0.00    +0.000 A 
ATOM     28  N   UNL     1      44.530   2.035   9.588  0.00  0.00    +0.000 NA
ATOM     29  C   UNL     1      45.254   2.355   8.566  0.00  0.00    +0.000 A 
ATOM     30  N   UNL     1      45.771   3.602   8.336  0.00  0.00    +0.000 N 
ATOM     31  C   UNL     1      45.557   4.667   9.180  0.00  0.00    +0.000 A 
ATOM     32  O   UNL     1      46.022   5.776   8.932  0.00  0.00    +0.000 OA
ATOM     33  C   UNL     1      44.750   4.360  10.342  0.00  0.00    +0.000 A 
ATOM     34  H   UNL     1      46.327   3.789   7.514  0.00  0.00    +0.000 HD
ENDBRANCH  21  24
ENDBRANCH  19  20
ENDBRANCH   4  19
TORSDOF 8
ENDMDL
