MODEL 1
REMARK VINA RESULT:    -7.177      0.000      0.000
REMARK INTER + INTRA:         -10.538
REMARK INTER:                  -9.905
REMARK INTRA:                  -0.633
REMARK UNBOUND:                -0.633
REMARK  Name = 
REMARK  7 active torsions:
REMARK  status: ('A' for Active; 'I' for Inactive)
REMARK    1  A    between atoms: N_1  and  C_2
REMARK    2  A    between atoms: C_2  and  C_3
REMARK    3  A    between atoms: C_6  and  C_7
REMARK    4  A    between atoms: C_7  and  C_8
REMARK    5  A    between atoms: C_8  and  N_9
REMARK    6  A    between atoms: N_9  and  C_10
REMARK    7  A    between atoms: C_13  and  C_14
REMARK                            x       y       z     vdW  Elec       q    Type
REMARK                         _______ _______ _______ _____ _____    ______ ____
ROOT
ATOM      1  N   UNL     1      44.430   4.105  13.012  0.00  0.00    +0.000 N 
ATOM      2  H   UNL     1      43.925   3.737  13.814  0.00  0.00    +0.000 HD
ENDROOT
BRANCH   1   3
ATOM      3  C   UNL     1      45.557   4.819  13.470  0.00  0.00    +0.000 A 
ATOM      4  N   UNL     1      46.343   4.224  14.394  0.00  0.00    +0.000 NA
ATOM      5  C   UNL     1      47.443   4.873  14.840  0.00  0.00    +0.000 A 
ATOM      6  C   UNL     1      47.838   6.118  14.395  0.00  0.00    +0.000 A 
ATOM      7  C   UNL     1      47.042   6.731  13.428  0.00  0.00    +0.000 A 
ATOM      8  C   UNL     1      45.888   6.085  12.965  0.00  0.00    +0.000 A 
ATOM      9  I   UNL     1      44.717   7.074  11.540  0.00  0.00    +0.000 I 
BRANCH   6  10
ATOM     10  C   UNL     1      49.049   6.809  14.903  0.00  0.00    +0.000 C 
ATOM     11  N   UNL     1      49.371   8.040  14.398  0.00  0.00    +0.000 N 
ATOM     12  O   UNL     1      49.759   6.289  15.753  0.00  0.00    +0.000 OA
ATOM     13  H   UNL     1      48.889   8.532  13.663  0.00  0.00    +0.000 HD
ATOM     14  H   UNL     1      50.216   8.465  14.759  0.00  0.00    +0.000 HD
ENDBRANCH   6  10
ENDBRANCH   1   3
BRANCH   1  15
ATOM     15  C   UNL     1      44.777   3.077  12.018  0.00  0.00    +0.000 C 
BRANCH  15  16
ATOM     16  C   UNL     1      43.971   3.235  10.728  0.00  0.00    +0.000 C 
BRANCH  16  20
ATOM     17  C   UNL     1      46.509   2.847   7.224  0.00  0.00    +0.000 A 
ATOM     18  C   UNL     1      46.119   1.717   7.956  0.00  0.00    +0.000 A 
ATOM     19  C   UNL     1      45.304   1.840   9.086  0.00  0.00    +0.000 A 
ATOM     20  C   UNL     1      44.858   3.099   9.509  0.00  0.00    +0.000 A 
ATOM     21  C   UNL     1      45.279   4.233   8.801  0.00  0.00    +0.000 A 
ATOM     22  C   UNL     1      46.092   4.108   7.670  0.00  0.00    +0.000 A 
BRANCH  17  23
ATOM     23  C   UNL     1      47.370   2.705   5.994  0.00  0.00    +0.000 C 
BRANCH  23  24
ATOM     24  N   UNL     1      48.447   1.740   6.197  0.00  0.00    +0.000 NA
ATOM     25  H   UNL     1      48.154   1.052   6.886  0.00  0.00    +0.000 HD
ATOM     26  H   UNL     1      49.248   2.227   6.597  0.00  0.00    +0.000 HD
ENDBRANCH  23  24
ENDBRANCH  17  23
ENDBRANCH  16  20
ENDBRANCH  15  16
ENDBRANCH   1  15
TORSDOF 7
ENDMDL
MODEL 2
REMARK VINA RESULT:    -7.131      2.488      3.003
REMARK INTER + INTRA:         -10.474
REMARK INTER:                  -9.899
REMARK INTRA:                  -0.575
REMARK UNBOUND:                -0.633
REMARK  Name = 
REMARK  7 active torsions:
REMARK  status: ('A' for Active; 'I' for Inactive)
REMARK    1  A    between atoms: N_1  and  C_2
REMARK    2  A    between atoms: C_2  and  C_3
REMARK    3  A    between atoms: C_6  and  C_7
REMARK    4  A    between atoms: C_7  and  C_8
REMARK    5  A    between atoms: C_8  and  N_9
REMARK    6  A    between atoms: N_9  and  C_10
REMARK    7  A    between atoms: C_13  and  C_14
REMARK                            x       y       z     vdW  Elec       q    Type
REMARK                         _______ _______ _______ _____ _____    ______ ____
ROOT
ATOM      1  N   UNL     1      43.735   4.992  11.985  0.00  0.00    +0.000 N 
ATOM      2  H   UNL     1      44.149   4.335  12.641  0.00  0.00    +0.000 HD
ENDROOT
BRANCH   1   3
ATOM      3  C   UNL     1      44.454   6.204  12.037  0.00  0.00    +0.000 A 
ATOM      4  N   UNL     1      43.928   7.274  11.400  0.00  0.00    +0.000 NA
ATOM      5  C   UNL     1      44.581   8.457  11.448  0.00  0.00    +0.000 A 
ATOM      6  C   UNL     1      45.762   8.659  12.132  0.00  0.00    +0.000 A 
ATOM      7  C   UNL     1      46.303   7.565  12.808  0.00  0.00    +0.000 A 
ATOM      8  C   UNL     1      45.652   6.325  12.757  0.00  0.00    +0.000 A 
ATOM      9  I   UNL     1      46.533   4.715  13.762  0.00  0.00    +0.000 I 
BRANCH   6  10
ATOM     10  C   UNL     1      46.461   9.968  12.166  0.00  0.00    +0.000 C 
ATOM     11  N   UNL     1      47.492  10.146  13.049  0.00  0.00    +0.000 N 
ATOM     12  O   UNL     1      46.120  10.881  11.426  0.00  0.00    +0.000 OA
ATOM     13  H   UNL     1      47.817   9.483  13.734  0.00  0.00    +0.000 HD
ATOM     14  H   UNL     1      47.926  11.061  13.051  0.00  0.00    +0.000 HD
ENDBRANCH   6  10
ENDBRANCH   1   3
BRANCH   1  15
ATOM     15  C   UNL     1      43.622   4.459  10.619  0.00  0.00    +0.000 C 
BRANCH  15  16
ATOM     16  C   UNL     1      44.268   3.079  10.488  0.00  0.00    +0.000 C 
BRANCH  16  20
ATOM     17  C   UNL     1      46.627   2.793   6.852  0.00  0.00    +0.000 A 
ATOM     18  C   UNL     1      46.342   1.652   7.614  0.00  0.00    +0.000 A 
ATOM     19  C   UNL     1      45.585   1.742   8.786  0.00  0.00    +0.000 A 
ATOM     20  C   UNL     1      45.093   2.979   9.223  0.00  0.00    +0.000 A 
ATOM     21  C   UNL     1      45.409   4.126   8.483  0.00  0.00    +0.000 A 
ATOM     22  C   UNL     1      46.164   4.034   7.309  0.00  0.00    +0.000 A 
BRANCH  17  23
ATOM     23  C   UNL     1      47.425   2.685   5.577  0.00  0.00    +0.000 C 
BRANCH  23  24
ATOM     24  N   UNL     1      48.572   1.794   5.732  0.00  0.00    +0.000 NA
ATOM     25  H   UNL     1      48.241   0.838   5.836  0.00  0.00    +0.000 HD
ATOM     26  H   UNL     1      49.052   2.031   6.599  0.00  0.00    +0.000 HD
ENDBRANCH  23  24
ENDBRANCH  17  23
ENDBRANCH  16  20
ENDBRANCH  15  16
ENDBRANCH   1  15
TORSDOF 7
ENDMDL
MODEL 3
REMARK VINA RESULT:    -7.110      1.213      1.622
REMARK INTER + INTRA:         -10.446
REMARK INTER:                  -9.784
REMARK INTRA:                  -0.662
REMARK UNBOUND:                -0.633
REMARK  Name = 
REMARK  7 active torsions:
REMARK  status: ('A' for Active; 'I' for Inactive)
REMARK    1  A    between atoms: N_1  and  C_2
REMARK    2  A    between atoms: C_2  and  C_3
REMARK    3  A    between atoms: C_6  and  C_7
REMARK    4  A    between atoms: C_7  and  C_8
REMARK    5  A    between atoms: C_8  and  N_9
REMARK    6  A    between atoms: N_9  and  C_10
REMARK    7  A    between atoms: C_13  and  C_14
REMARK                            x       y       z     vdW  Elec       q    Type
REMARK                         _______ _______ _______ _____ _____    ______ ____
ROOT
ATOM      1  N   UNL     1      43.698   5.589  12.495  0.00  0.00    +0.000 N 
ATOM      2  H   UNL     1      43.185   5.445  13.362  0.00  0.00    +0.000 HD
ENDROOT
BRANCH   1   3
ATOM      3  C   UNL     1      45.026   5.947  12.806  0.00  0.00    +0.000 A 
ATOM      4  N   UNL     1      45.793   5.028  13.433  0.00  0.00    +0.000 NA
ATOM      5  C   UNL     1      47.079   5.331  13.726  0.00  0.00    +0.000 A 
ATOM      6  C   UNL     1      47.680   6.531  13.407  0.00  0.00    +0.000 A 
ATOM      7  C   UNL     1      46.901   7.478  12.744  0.00  0.00    +0.000 A 
ATOM      8  C   UNL     1      45.562   7.192  12.445  0.00  0.00    +0.000 A 
ATOM      9  I   UNL     1      44.437   8.669  11.481  0.00  0.00    +0.000 I 
BRANCH   6  10
ATOM     10  C   UNL     1      49.093   6.839  13.743  0.00  0.00    +0.000 C 
ATOM     11  N   UNL     1      49.931   7.272  12.752  0.00  0.00    +0.000 N 
ATOM     12  O   UNL     1      49.510   6.702  14.886  0.00  0.00    +0.000 OA
ATOM     13  H   UNL     1      49.706   7.367  11.774  0.00  0.00    +0.000 HD
ATOM     14  H   UNL     1      50.890   7.451  13.022  0.00  0.00    +0.000 HD
ENDBRANCH   6  10
ENDBRANCH   1   3
BRANCH   1  15
ATOM     15  C   UNL     1      43.619   4.446  11.574  0.00  0.00    +0.000 C 
BRANCH  15  16
ATOM     16  C   UNL     1      43.757   4.877  10.114  0.00  0.00    +0.000 C 
BRANCH  16  20
ATOM     17  C   UNL     1      46.322   2.147   7.915  0.00  0.00    +0.000 A 
ATOM     18  C   UNL     1      46.394   3.530   7.699  0.00  0.00    +0.000 A 
ATOM     19  C   UNL     1      45.568   4.411   8.404  0.00  0.00    +0.000 A 
ATOM     20  C   UNL     1      44.649   3.927   9.344  0.00  0.00    +0.000 A 
ATOM     21  C   UNL     1      44.548   2.542   9.533  0.00  0.00    +0.000 A 
ATOM     22  C   UNL     1      45.377   1.662   8.829  0.00  0.00    +0.000 A 
BRANCH  17  23
ATOM     23  C   UNL     1      47.232   1.205   7.167  0.00  0.00    +0.000 C 
BRANCH  23  24
ATOM     24  N   UNL     1      48.328   1.918   6.514  0.00  0.00    +0.000 NA
ATOM     25  H   UNL     1      49.214   1.562   6.865  0.00  0.00    +0.000 HD
ATOM     26  H   UNL     1      48.283   2.899   6.784  0.00  0.00    +0.000 HD
ENDBRANCH  23  24
ENDBRANCH  17  23
ENDBRANCH  16  20
ENDBRANCH  15  16
ENDBRANCH   1  15
TORSDOF 7
ENDMDL
MODEL 4
REMARK VINA RESULT:    -7.104      1.599      2.047
REMARK INTER + INTRA:         -10.436
REMARK INTER:                 -10.009
REMARK INTRA:                  -0.427
REMARK UNBOUND:                -0.633
REMARK  Name = 
REMARK  7 active torsions:
REMARK  status: ('A' for Active; 'I' for Inactive)
REMARK    1  A    between atoms: N_1  and  C_2
REMARK    2  A    between atoms: C_2  and  C_3
REMARK    3  A    between atoms: C_6  and  C_7
REMARK    4  A    between atoms: C_7  and  C_8
REMARK    5  A    between atoms: C_8  and  N_9
REMARK    6  A    between atoms: N_9  and  C_10
REMARK    7  A    between atoms: C_13  and  C_14
REMARK                            x       y       z     vdW  Elec       q    Type
REMARK                         _______ _______ _______ _____ _____    ______ ____
ROOT
ATOM      1  N   UNL     1      45.605   5.373  11.740  0.00  0.00    +0.000 N 
ATOM      2  H   UNL     1      45.324   6.336  11.575  0.00  0.00    +0.000 HD
ENDROOT
BRANCH   1   3
ATOM      3  C   UNL     1      46.293   5.303  12.969  0.00  0.00    +0.000 A 
ATOM      4  N   UNL     1      46.082   4.216  13.745  0.00  0.00    +0.000 NA
ATOM      5  C   UNL     1      46.742   4.107  14.921  0.00  0.00    +0.000 A 
ATOM      6  C   UNL     1      47.649   5.037  15.385  0.00  0.00    +0.000 A 
ATOM      7  C   UNL     1      47.887   6.153  14.582  0.00  0.00    +0.000 A 
ATOM      8  C   UNL     1      47.201   6.295  13.368  0.00  0.00    +0.000 A 
ATOM      9  I   UNL     1      47.576   8.008  12.227  0.00  0.00    +0.000 I 
BRANCH   6  10
ATOM     10  C   UNL     1      48.359   4.895  16.681  0.00  0.00    +0.000 C 
ATOM     11  N   UNL     1      47.623   4.768  17.829  0.00  0.00    +0.000 N 
ATOM     12  O   UNL     1      49.582   4.899  16.731  0.00  0.00    +0.000 OA
ATOM     13  H   UNL     1      46.620   4.806  17.906  0.00  0.00    +0.000 HD
ATOM     14  H   UNL     1      48.149   4.694  18.691  0.00  0.00    +0.000 HD
ENDBRANCH   6  10
ENDBRANCH   1   3
BRANCH   1  15
ATOM     15  C   UNL     1      44.490   4.418  11.659  0.00  0.00    +0.000 C 
BRANCH  15  16
ATOM     16  C   UNL     1      43.902   4.343  10.250  0.00  0.00    +0.000 C 
BRANCH  16  20
ATOM     17  C   UNL     1      46.632   2.343   7.526  0.00  0.00    +0.000 A 
ATOM     18  C   UNL     1      46.471   3.734   7.488  0.00  0.00    +0.000 A 
ATOM     19  C   UNL     1      45.591   4.380   8.362  0.00  0.00    +0.000 A 
ATOM     20  C   UNL     1      44.851   3.647   9.298  0.00  0.00    +0.000 A 
ATOM     21  C   UNL     1      44.981   2.251   9.312  0.00  0.00    +0.000 A 
ATOM     22  C   UNL     1      45.864   1.607   8.439  0.00  0.00    +0.000 A 
BRANCH  17  23
ATOM     23  C   UNL     1      47.599   1.655   6.596  0.00  0.00    +0.000 C 
BRANCH  23  24
ATOM     24  N   UNL     1      48.694   2.540   6.207  0.00  0.00    +0.000 NA
ATOM     25  H   UNL     1      49.522   2.307   6.751  0.00  0.00    +0.000 HD
ATOM     26  H   UNL     1      48.444   3.495   6.455  0.00  0.00    +0.000 HD
ENDBRANCH  23  24
ENDBRANCH  17  23
ENDBRANCH  16  20
ENDBRANCH  15  16
ENDBRANCH   1  15
TORSDOF 7
ENDMDL
MODEL 5
REMARK VINA RESULT:    -6.701      4.041      7.903
REMARK INTER + INTRA:          -9.880
REMARK INTER:                  -9.521
REMARK INTRA:                  -0.359
REMARK UNBOUND:                -0.633
REMARK  Name = 
REMARK  7 active torsions:
REMARK  status: ('A' for Active; 'I' for Inactive)
REMARK    1  A    between atoms: N_1  and  C_2
REMARK    2  A    between atoms: C_2  and  C_3
REMARK    3  A    between atoms: C_6  and  C_7
REMARK    4  A    between atoms: C_7  and  C_8
REMARK    5  A    between atoms: C_8  and  N_9
REMARK    6  A    between atoms: N_9  and  C_10
REMARK    7  A    between atoms: C_13  and  C_14
REMARK                            x       y       z     vdW  Elec       q    Type
REMARK                         _______ _______ _______ _____ _____    ______ ____
ROOT
ATOM      1  N   UNL     1      46.814   5.416  14.634  0.00  0.00    +0.000 N 
ATOM      2  H   UNL     1      47.636   5.971  14.411  0.00  0.00    +0.000 HD
ENDROOT
BRANCH   1   3
ATOM      3  C   UNL     1      46.214   4.982  13.434  0.00  0.00    +0.000 A 
ATOM      4  N   UNL     1      45.917   3.669  13.320  0.00  0.00    +0.000 NA
ATOM      5  C   UNL     1      45.322   3.223  12.189  0.00  0.00    +0.000 A 
ATOM      6  C   UNL     1      44.974   4.035  11.129  0.00  0.00    +0.000 A 
ATOM      7  C   UNL     1      45.261   5.395  11.246  0.00  0.00    +0.000 A 
ATOM      8  C   UNL     1      45.893   5.876  12.401  0.00  0.00    +0.000 A 
ATOM      9  I   UNL     1      46.329   7.920  12.500  0.00  0.00    +0.000 I 
BRANCH   6  10
ATOM     10  C   UNL     1      44.325   3.520   9.898  0.00  0.00    +0.000 C 
ATOM     11  N   UNL     1      44.129   4.372   8.845  0.00  0.00    +0.000 N 
ATOM     12  O   UNL     1      43.959   2.354   9.822  0.00  0.00    +0.000 OA
ATOM     13  H   UNL     1      44.342   5.357   8.822  0.00  0.00    +0.000 HD
ATOM     14  H   UNL     1      43.664   3.983   8.035  0.00  0.00    +0.000 HD
ENDBRANCH   6  10
ENDBRANCH   1   3
BRANCH   1  15
ATOM     15  C   UNL     1      47.093   4.308  15.560  0.00  0.00    +0.000 C 
BRANCH  15  16
ATOM     16  C   UNL     1      47.840   4.780  16.809  0.00  0.00    +0.000 C 
BRANCH  16  20
ATOM     17  C   UNL     1      51.347   2.331  17.564  0.00  0.00    +0.000 A 
ATOM     18  C   UNL     1      51.368   3.710  17.813  0.00  0.00    +0.000 A 
ATOM     19  C   UNL     1      50.241   4.501  17.568  0.00  0.00    +0.000 A 
ATOM     20  C   UNL     1      49.063   3.928  17.069  0.00  0.00    +0.000 A 
ATOM     21  C   UNL     1      49.053   2.556  16.784  0.00  0.00    +0.000 A 
ATOM     22  C   UNL     1      50.180   1.766  17.032  0.00  0.00    +0.000 A 
BRANCH  17  23
ATOM     23  C   UNL     1      52.559   1.480  17.852  0.00  0.00    +0.000 C 
BRANCH  23  24
ATOM     24  N   UNL     1      52.185   0.125  18.246  0.00  0.00    +0.000 NA
ATOM     25  H   UNL     1      51.174   0.026  18.190  0.00  0.00    +0.000 HD
ATOM     26  H   UNL     1      52.436  -0.010  19.225  0.00  0.00    +0.000 HD
ENDBRANCH  23  24
ENDBRANCH  17  23
ENDBRANCH  16  20
ENDBRANCH  15  16
ENDBRANCH   1  15
TORSDOF 7
ENDMDL
MODEL 6
REMARK VINA RESULT:    -6.542      3.196      7.170
REMARK INTER + INTRA:          -9.661
REMARK INTER:                  -9.114
REMARK INTRA:                  -0.547
REMARK UNBOUND:                -0.633
REMARK  Name = 
REMARK  7 active torsions:
REMARK  status: ('A' for Active; 'I' for Inactive)
REMARK    1  A    between atoms: N_1  and  C_2
REMARK    2  A    between atoms: C_2  and  C_3
REMARK    3  A    between atoms: C_6  and  C_7
REMARK    4  A    between atoms: C_7  and  C_8
REMARK    5  A    between atoms: C_8  and  N_9
REMARK    6  A    between atoms: N_9  and  C_10
REMARK    7  A    between atoms: C_13  and  C_14
REMARK                            x       y       z     vdW  Elec       q    Type
REMARK                         _______ _______ _______ _____ _____    ______ ____
ROOT
ATOM      1  N   UNL     1      44.687   5.509   9.884  0.00  0.00    +0.000 N 
ATOM      2  H   UNL     1      44.010   5.948   9.266  0.00  0.00    +0.000 HD
ENDROOT
BRANCH   1   3
ATOM      3  C   UNL     1      45.216   4.368   9.246  0.00  0.00    +0.000 A 
ATOM      4  N   UNL     1      46.035   4.563   8.189  0.00  0.00    +0.000 NA
ATOM      5  C   UNL     1      46.576   3.491   7.567  0.00  0.00    +0.000 A 
ATOM      6  C   UNL     1      46.362   2.185   7.955  0.00  0.00    +0.000 A 
ATOM      7  C   UNL     1      45.533   1.974   9.057  0.00  0.00    +0.000 A 
ATOM      8  C   UNL     1      44.947   3.070   9.706  0.00  0.00    +0.000 A 
ATOM      9  I   UNL     1      43.685   2.686  11.330  0.00  0.00    +0.000 I 
BRANCH   6  10
ATOM     10  C   UNL     1      46.966   1.025   7.253  0.00  0.00    +0.000 C 
ATOM     11  N   UNL     1      46.660  -0.240   7.677  0.00  0.00    +0.000 N 
ATOM     12  O   UNL     1      47.734   1.190   6.314  0.00  0.00    +0.000 OA
ATOM     13  H   UNL     1      46.086  -0.485   8.468  0.00  0.00    +0.000 HD
ATOM     14  H   UNL     1      47.110  -0.999   7.182  0.00  0.00    +0.000 HD
ENDBRANCH   6  10
ENDBRANCH   1   3
BRANCH   1  15
ATOM     15  C   UNL     1      45.732   6.432  10.353  0.00  0.00    +0.000 C 
BRANCH  15  16
ATOM     16  C   UNL     1      45.384   7.049  11.708  0.00  0.00    +0.000 C 
BRANCH  16  20
ATOM     17  C   UNL     1      47.253   4.847  14.953  0.00  0.00    +0.000 A 
ATOM     18  C   UNL     1      46.023   4.436  14.422  0.00  0.00    +0.000 A 
ATOM     19  C   UNL     1      45.418   5.145  13.379  0.00  0.00    +0.000 A 
ATOM     20  C   UNL     1      46.033   6.283  12.841  0.00  0.00    +0.000 A 
ATOM     21  C   UNL     1      47.244   6.717  13.396  0.00  0.00    +0.000 A 
ATOM     22  C   UNL     1      47.849   6.005  14.437  0.00  0.00    +0.000 A 
BRANCH  17  23
ATOM     23  C   UNL     1      47.911   4.064  16.062  0.00  0.00    +0.000 C 
BRANCH  23  24
ATOM     24  N   UNL     1      48.325   2.737  15.614  0.00  0.00    +0.000 NA
ATOM     25  H   UNL     1      47.512   2.127  15.577  0.00  0.00    +0.000 HD
ATOM     26  H   UNL     1      48.953   2.341  16.312  0.00  0.00    +0.000 HD
ENDBRANCH  23  24
ENDBRANCH  17  23
ENDBRANCH  16  20
ENDBRANCH  15  16
ENDBRANCH   1  15
TORSDOF 7
ENDMDL
MODEL 7
REMARK VINA RESULT:    -6.444      3.165      7.234
REMARK INTER + INTRA:          -9.527
REMARK INTER:                  -8.992
REMARK INTRA:                  -0.534
REMARK UNBOUND:                -0.633
REMARK  Name = 
REMARK  7 active torsions:
REMARK  status: ('A' for Active; 'I' for Inactive)
REMARK    1  A    between atoms: N_1  and  C_2
REMARK    2  A    between atoms: C_2  and  C_3
REMARK    3  A    between atoms: C_6  and  C_7
REMARK    4  A    between atoms: C_7  and  C_8
REMARK    5  A    between atoms: C_8  and  N_9
REMARK    6  A    between atoms: N_9  and  C_10
REMARK    7  A    between atoms: C_13  and  C_14
REMARK                            x       y       z     vdW  Elec       q    Type
REMARK                         _______ _______ _______ _____ _____    ______ ____
ROOT
ATOM      1  N   UNL     1      44.409   5.513  10.144  0.00  0.00    +0.000 N 
ATOM      2  H   UNL     1      43.791   6.009   9.506  0.00  0.00    +0.000 HD
ENDROOT
BRANCH   1   3
ATOM      3  C   UNL     1      45.040   4.464   9.443  0.00  0.00    +0.000 A 
ATOM      4  N   UNL     1      45.823   4.794   8.392  0.00  0.00    +0.000 NA
ATOM      5  C   UNL     1      46.460   3.814   7.711  0.00  0.00    +0.000 A 
ATOM      6  C   UNL     1      46.380   2.474   8.032  0.00  0.00    +0.000 A 
ATOM      7  C   UNL     1      45.589   2.126   9.127  0.00  0.00    +0.000 A 
ATOM      8  C   UNL     1      44.906   3.124   9.836  0.00  0.00    +0.000 A 
ATOM      9  I   UNL     1      43.707   2.534  11.446  0.00  0.00    +0.000 I 
BRANCH   6  10
ATOM     10  C   UNL     1      47.087   1.418   7.266  0.00  0.00    +0.000 C 
ATOM     11  N   UNL     1      48.100   1.778   6.418  0.00  0.00    +0.000 N 
ATOM     12  O   UNL     1      46.769   0.241   7.379  0.00  0.00    +0.000 OA
ATOM     13  H   UNL     1      48.404   2.716   6.212  0.00  0.00    +0.000 HD
ATOM     14  H   UNL     1      48.540   1.027   5.902  0.00  0.00    +0.000 HD
ENDBRANCH   6  10
ENDBRANCH   1   3
BRANCH   1  15
ATOM     15  C   UNL     1      45.367   6.392  10.831  0.00  0.00    +0.000 C 
BRANCH  15  16
ATOM     16  C   UNL     1      45.977   5.720  12.062  0.00  0.00    +0.000 C 
BRANCH  16  20
ATOM     17  C   UNL     1      49.557   7.804  13.371  0.00  0.00    +0.000 A 
ATOM     18  C   UNL     1      49.083   7.947  12.060  0.00  0.00    +0.000 A 
ATOM     19  C   UNL     1      47.932   7.275  11.636  0.00  0.00    +0.000 A 
ATOM     20  C   UNL     1      47.227   6.444  12.516  0.00  0.00    +0.000 A 
ATOM     21  C   UNL     1      47.722   6.270  13.816  0.00  0.00    +0.000 A 
ATOM     22  C   UNL     1      48.872   6.945  14.239  0.00  0.00    +0.000 A 
BRANCH  17  23
ATOM     23  C   UNL     1      50.787   8.549  13.828  0.00  0.00    +0.000 C 
BRANCH  23  24
ATOM     24  N   UNL     1      52.005   7.977  13.262  0.00  0.00    +0.000 NA
ATOM     25  H   UNL     1      51.867   7.810  12.268  0.00  0.00    +0.000 HD
ATOM     26  H   UNL     1      52.165   7.066  13.689  0.00  0.00    +0.000 HD
ENDBRANCH  23  24
ENDBRANCH  17  23
ENDBRANCH  16  20
ENDBRANCH  15  16
ENDBRANCH   1  15
TORSDOF 7
ENDMDL
MODEL 8
REMARK VINA RESULT:    -6.178      2.010      2.422
REMARK INTER + INTRA:          -9.159
REMARK INTER:                  -8.841
REMARK INTRA:                  -0.318
REMARK UNBOUND:                -0.633
REMARK  Name = 
REMARK  7 active torsions:
REMARK  status: ('A' for Active; 'I' for Inactive)
REMARK    1  A    between atoms: N_1  and  C_2
REMARK    2  A    between atoms: C_2  and  C_3
REMARK    3  A    between atoms: C_6  and  C_7
REMARK    4  A    between atoms: C_7  and  C_8
REMARK    5  A    between atoms: C_8  and  N_9
REMARK    6  A    between atoms: N_9  and  C_10
REMARK    7  A    between atoms: C_13  and  C_14
REMARK                            x       y       z     vdW  Elec       q    Type
REMARK                         _______ _______ _______ _____ _____    ______ ____
ROOT
ATOM      1  N   UNL     1      46.129   4.453  13.225  0.00  0.00    +0.000 N 
ATOM      2  H   UNL     1      46.685   4.563  12.381  0.00  0.00    +0.000 HD
ENDROOT
BRANCH   1   3
ATOM      3  C   UNL     1      46.912   4.822  14.339  0.00  0.00    +0.000 A 
ATOM      4  N   UNL     1      46.813   4.065  15.454  0.00  0.00    +0.000 NA
ATOM      5  C   UNL     1      47.566   4.378  16.533  0.00  0.00    +0.000 A 
ATOM      6  C   UNL     1      48.460   5.428  16.571  0.00  0.00    +0.000 A 
ATOM      7  C   UNL     1      48.582   6.204  15.418  0.00  0.00    +0.000 A 
ATOM      8  C   UNL     1      47.799   5.908  14.294  0.00  0.00    +0.000 A 
ATOM      9  I   UNL     1      48.003   7.132  12.609  0.00  0.00    +0.000 I 
BRANCH   6  10
ATOM     10  C   UNL     1      49.273   5.753  17.770  0.00  0.00    +0.000 C 
ATOM     11  N   UNL     1      49.831   4.731  18.489  0.00  0.00    +0.000 N 
ATOM     12  O   UNL     1      49.437   6.914  18.121  0.00  0.00    +0.000 OA
ATOM     13  H   UNL     1      49.715   3.744  18.319  0.00  0.00    +0.000 HD
ATOM     14  H   UNL     1      50.360   4.998  19.310  0.00  0.00    +0.000 HD
ENDBRANCH   6  10
ENDBRANCH   1   3
BRANCH   1  15
ATOM     15  C   UNL     1      44.845   5.168  13.174  0.00  0.00    +0.000 C 
BRANCH  15  16
ATOM     16  C   UNL     1      43.815   4.433  12.315  0.00  0.00    +0.000 C 
BRANCH  16  20
ATOM     17  C   UNL     1      45.417   3.500   8.387  0.00  0.00    +0.000 A 
ATOM     18  C   UNL     1      44.776   2.516   9.153  0.00  0.00    +0.000 A 
ATOM     19  C   UNL     1      44.262   2.814  10.419  0.00  0.00    +0.000 A 
ATOM     20  C   UNL     1      44.376   4.106  10.948  0.00  0.00    +0.000 A 
ATOM     21  C   UNL     1      45.051   5.080  10.201  0.00  0.00    +0.000 A 
ATOM     22  C   UNL     1      45.563   4.782   8.933  0.00  0.00    +0.000 A 
BRANCH  17  23
ATOM     23  C   UNL     1      45.950   3.177   7.013  0.00  0.00    +0.000 C 
BRANCH  23  24
ATOM     24  N   UNL     1      46.962   4.140   6.587  0.00  0.00    +0.000 NA
ATOM     25  H   UNL     1      47.810   3.642   6.329  0.00  0.00    +0.000 HD
ATOM     26  H   UNL     1      47.203   4.730   7.382  0.00  0.00    +0.000 HD
ENDBRANCH  23  24
ENDBRANCH  17  23
ENDBRANCH  16  20
ENDBRANCH  15  16
ENDBRANCH   1  15
TORSDOF 7
ENDMDL
MODEL 9
REMARK VINA RESULT:    -6.043      4.109      5.585
REMARK INTER + INTRA:          -8.973
REMARK INTER:                  -8.553
REMARK INTRA:                  -0.420
REMARK UNBOUND:                -0.633
REMARK  Name = 
REMARK  7 active torsions:
REMARK  status: ('A' for Active; 'I' for Inactive)
REMARK    1  A    between atoms: N_1  and  C_2
REMARK    2  A    between atoms: C_2  and  C_3
REMARK    3  A    between atoms: C_6  and  C_7
REMARK    4  A    between atoms: C_7  and  C_8
REMARK    5  A    between atoms: C_8  and  N_9
REMARK    6  A    between atoms: N_9  and  C_10
REMARK    7  A    between atoms: C_13  and  C_14
REMARK                            x       y       z     vdW  Elec       q    Type
REMARK                         _______ _______ _______ _____ _____    ______ ____
ROOT
ATOM      1  N   UNL     1      47.913   5.162  16.717  0.00  0.00    +0.000 N 
ATOM      2  H   UNL     1      47.373   5.297  17.567  0.00  0.00    +0.000 HD
ENDROOT
BRANCH   1   3
ATOM      3  C   UNL     1      48.960   4.255  16.979  0.00  0.00    +0.000 A 
ATOM      4  N   UNL     1      48.788   2.970  16.598  0.00  0.00    +0.000 NA
ATOM      5  C   UNL     1      49.781   2.078  16.816  0.00  0.00    +0.000 A 
ATOM      6  C   UNL     1      50.991   2.398  17.396  0.00  0.00    +0.000 A 
ATOM      7  C   UNL     1      51.185   3.726  17.777  0.00  0.00    +0.000 A 
ATOM      8  C   UNL     1      50.163   4.663  17.576  0.00  0.00    +0.000 A 
ATOM      9  I   UNL     1      50.502   6.631  18.201  0.00  0.00    +0.000 I 
BRANCH   6  10
ATOM     10  C   UNL     1      52.064   1.399  17.627  0.00  0.00    +0.000 C 
ATOM     11  N   UNL     1      51.730   0.172  18.134  0.00  0.00    +0.000 N 
ATOM     12  O   UNL     1      53.233   1.664  17.379  0.00  0.00    +0.000 OA
ATOM     13  H   UNL     1      50.812  -0.129  18.422  0.00  0.00    +0.000 HD
ATOM     14  H   UNL     1      52.496  -0.470  18.294  0.00  0.00    +0.000 HD
ENDBRANCH   6  10
ENDBRANCH   1   3
BRANCH   1  15
ATOM     15  C   UNL     1      47.094   4.763  15.562  0.00  0.00    +0.000 C 
BRANCH  15  16
ATOM     16  C   UNL     1      47.465   5.544  14.300  0.00  0.00    +0.000 C 
BRANCH  16  20
ATOM     17  C   UNL     1      44.985   4.356  10.937  0.00  0.00    +0.000 A 
ATOM     18  C   UNL     1      45.186   3.491  12.022  0.00  0.00    +0.000 A 
ATOM     19  C   UNL     1      45.986   3.871  13.104  0.00  0.00    +0.000 A 
ATOM     20  C   UNL     1      46.604   5.128  13.127  0.00  0.00    +0.000 A 
ATOM     21  C   UNL     1      46.436   5.978  12.027  0.00  0.00    +0.000 A 
ATOM     22  C   UNL     1      45.633   5.599  10.946  0.00  0.00    +0.000 A 
BRANCH  17  23
ATOM     23  C   UNL     1      44.103   3.949   9.783  0.00  0.00    +0.000 C 
BRANCH  23  24
ATOM     24  N   UNL     1      44.589   4.490   8.517  0.00  0.00    +0.000 NA
ATOM     25  H   UNL     1      45.466   4.037   8.274  0.00  0.00    +0.000 HD
ATOM     26  H   UNL     1      44.799   5.478   8.645  0.00  0.00    +0.000 HD
ENDBRANCH  23  24
ENDBRANCH  17  23
ENDBRANCH  16  20
ENDBRANCH  15  16
ENDBRANCH   1  15
TORSDOF 7
ENDMDL
