MODEL 1
REMARK VINA RESULT:    -8.085      0.000      0.000
REMARK INTER + INTRA:         -10.825
REMARK INTER:                 -10.212
REMARK INTRA:                  -0.613
REMARK UNBOUND:                -0.613
REMARK  Name = 
REMARK  5 active torsions:
REMARK  status: ('A' for Active; 'I' for Inactive)
REMARK    1  A    between atoms: C_2  and  C_3
REMARK    2  A    between atoms: C_6  and  N_7
REMARK    3  A    between atoms: N_7  and  C_8
REMARK    4  A    between atoms: C_8  and  C_9
REMARK    5  A    between atoms: C_17  and  O_18
REMARK                            x       y       z     vdW  Elec       q    Type
REMARK                         _______ _______ _______ _____ _____    ______ ____
ROOT
ATOM      1  C   UNL     1      44.528   4.947  12.191  0.00  0.00    +0.000 A 
ATOM      2  C   UNL     1      44.323   6.262  11.790  0.00  0.00    +0.000 A 
ATOM      3  C   UNL     1      45.153   7.241  12.306  0.00  0.00    +0.000 A 
ATOM      4  N   UNL     1      46.167   6.997  13.168  0.00  0.00    +0.000 NA
ATOM      5  C   UNL     1      46.380   5.725  13.567  0.00  0.00    +0.000 A 
ATOM      6  N   UNL     1      47.427   5.460  14.422  0.00  0.00    +0.000 N 
ATOM      7  C   UNL     1      48.606   6.318  14.411  0.00  0.00    +0.000 C 
ATOM      8  C   UNL     1      48.853   6.866  15.811  0.00  0.00    +0.000 C 
ATOM      9  C   UNL     1      48.873   5.756  16.862  0.00  0.00    +0.000 C 
ATOM     10  C   UNL     1      47.648   4.851  16.773  0.00  0.00    +0.000 C 
ATOM     11  C   UNL     1      47.405   4.345  15.355  0.00  0.00    +0.000 C 
ATOM     12  C   UNL     1      45.563   4.692  13.093  0.00  0.00    +0.000 A 
ENDROOT
BRANCH   9  13
ATOM     13  O   UNL     1      50.068   4.979  16.759  0.00  0.00    +0.000 OA
ATOM     14  H   UNL     1      50.488   5.159  15.902  0.00  0.00    +0.000 HD
ENDBRANCH   9  13
BRANCH   1  15
ATOM     15  C   UNL     1      43.689   3.818  11.646  0.00  0.00    +0.000 C 
BRANCH  15  16
ATOM     16  N   UNL     1      43.598   3.888  10.197  0.00  0.00    +0.000 N 
ATOM     17  H   UNL     1      42.672   3.736   9.809  0.00  0.00    +0.000 HD
BRANCH  16  21
ATOM     18  C   UNL     1      46.608   2.470   7.590  0.00  0.00    +0.000 A 
ATOM     19  C   UNL     1      46.347   3.838   7.662  0.00  0.00    +0.000 A 
ATOM     20  C   UNL     1      45.367   4.329   8.533  0.00  0.00    +0.000 A 
ATOM     21  C   UNL     1      44.642   3.471   9.380  0.00  0.00    +0.000 A 
ATOM     22  C   UNL     1      44.911   2.098   9.279  0.00  0.00    +0.000 A 
ATOM     23  C   UNL     1      45.880   1.597   8.399  0.00  0.00    +0.000 A 
BRANCH  18  25
ATOM     24  N   UNL     1      48.409   1.559   5.962  0.00  0.00    +0.000 NA
ATOM     25  C   UNL     1      47.605   1.966   6.691  0.00  0.00    +0.000 C 
ENDBRANCH  18  25
ENDBRANCH  16  21
ENDBRANCH  15  16
ENDBRANCH   1  15
TORSDOF 5
ENDMDL
MODEL 2
REMARK VINA RESULT:    -7.969      1.903      2.970
REMARK INTER + INTRA:         -10.678
REMARK INTER:                  -9.933
REMARK INTRA:                  -0.745
REMARK UNBOUND:                -0.613
REMARK  Name = 
REMARK  5 active torsions:
REMARK  status: ('A' for Active; 'I' for Inactive)
REMARK    1  A    between atoms: C_2  and  C_3
REMARK    2  A    between atoms: C_6  and  N_7
REMARK    3  A    between atoms: N_7  and  C_8
REMARK    4  A    between atoms: C_8  and  C_9
REMARK    5  A    between atoms: C_17  and  O_18
REMARK                            x       y       z     vdW  Elec       q    Type
REMARK                         _______ _______ _______ _____ _____    ______ ____
ROOT
ATOM      1  C   UNL     1      45.012   4.495  12.205  0.00  0.00    +0.000 A 
ATOM      2  C   UNL     1      45.599   3.391  12.811  0.00  0.00    +0.000 A 
ATOM      3  C   UNL     1      46.795   3.572  13.483  0.00  0.00    +0.000 A 
ATOM      4  N   UNL     1      47.425   4.763  13.602  0.00  0.00    +0.000 NA
ATOM      5  C   UNL     1      46.868   5.845  13.019  0.00  0.00    +0.000 A 
ATOM      6  N   UNL     1      47.485   7.070  13.156  0.00  0.00    +0.000 N 
ATOM      7  C   UNL     1      48.297   7.343  14.336  0.00  0.00    +0.000 C 
ATOM      8  C   UNL     1      49.700   7.755  13.908  0.00  0.00    +0.000 C 
ATOM      9  C   UNL     1      49.672   8.878  12.870  0.00  0.00    +0.000 C 
ATOM     10  C   UNL     1      48.749   8.560  11.697  0.00  0.00    +0.000 C 
ATOM     11  C   UNL     1      47.364   8.118  12.156  0.00  0.00    +0.000 C 
ATOM     12  C   UNL     1      45.667   5.725  12.310  0.00  0.00    +0.000 A 
ENDROOT
BRANCH   9  13
ATOM     13  O   UNL     1      49.296  10.117  13.471  0.00  0.00    +0.000 OA
ATOM     14  H   UNL     1      50.023  10.427  14.035  0.00  0.00    +0.000 HD
ENDBRANCH   9  13
BRANCH   1  15
ATOM     15  C   UNL     1      43.692   4.388  11.484  0.00  0.00    +0.000 C 
BRANCH  15  16
ATOM     16  N   UNL     1      43.833   4.745  10.082  0.00  0.00    +0.000 N 
ATOM     17  H   UNL     1      42.998   5.118   9.640  0.00  0.00    +0.000 HD
BRANCH  16  21
ATOM     18  C   UNL     1      46.574   2.696   7.600  0.00  0.00    +0.000 A 
ATOM     19  C   UNL     1      45.687   1.970   8.395  0.00  0.00    +0.000 A 
ATOM     20  C   UNL     1      44.759   2.630   9.209  0.00  0.00    +0.000 A 
ATOM     21  C   UNL     1      44.669   4.034   9.229  0.00  0.00    +0.000 A 
ATOM     22  C   UNL     1      45.581   4.744   8.434  0.00  0.00    +0.000 A 
ATOM     23  C   UNL     1      46.523   4.090   7.627  0.00  0.00    +0.000 A 
BRANCH  18  25
ATOM     24  N   UNL     1      48.306   1.475   6.107  0.00  0.00    +0.000 NA
ATOM     25  C   UNL     1      47.531   2.021   6.774  0.00  0.00    +0.000 C 
ENDBRANCH  18  25
ENDBRANCH  16  21
ENDBRANCH  15  16
ENDBRANCH   1  15
TORSDOF 5
ENDMDL
MODEL 3
REMARK VINA RESULT:    -6.485      3.343      7.637
REMARK INTER + INTRA:          -8.805
REMARK INTER:                  -8.239
REMARK INTRA:                  -0.565
REMARK UNBOUND:                -0.613
REMARK  Name = 
REMARK  5 active torsions:
REMARK  status: ('A' for Active; 'I' for Inactive)
REMARK    1  A    between atoms: C_2  and  C_3
REMARK    2  A    between atoms: C_6  and  N_7
REMARK    3  A    between atoms: N_7  and  C_8
REMARK    4  A    between atoms: C_8  and  C_9
REMARK    5  A    between atoms: C_17  and  O_18
REMARK                            x       y       z     vdW  Elec       q    Type
REMARK                         _______ _______ _______ _____ _____    ______ ____
ROOT
ATOM      1  C   UNL     1      48.358   6.928  14.311  0.00  0.00    +0.000 A 
ATOM      2  C   UNL     1      49.049   7.582  13.299  0.00  0.00    +0.000 A 
ATOM      3  C   UNL     1      48.576   7.468  12.003  0.00  0.00    +0.000 A 
ATOM      4  N   UNL     1      47.471   6.769  11.660  0.00  0.00    +0.000 NA
ATOM      5  C   UNL     1      46.788   6.127  12.631  0.00  0.00    +0.000 A 
ATOM      6  N   UNL     1      45.644   5.435  12.298  0.00  0.00    +0.000 N 
ATOM      7  C   UNL     1      44.850   5.858  11.150  0.00  0.00    +0.000 C 
ATOM      8  C   UNL     1      44.691   4.693  10.180  0.00  0.00    +0.000 C 
ATOM      9  C   UNL     1      44.188   3.432  10.883  0.00  0.00    +0.000 C 
ATOM     10  C   UNL     1      45.017   3.085  12.116  0.00  0.00    +0.000 C 
ATOM     11  C   UNL     1      45.189   4.278  13.051  0.00  0.00    +0.000 C 
ATOM     12  C   UNL     1      47.225   6.191  13.959  0.00  0.00    +0.000 A 
ENDROOT
BRANCH   9  13
ATOM     13  O   UNL     1      42.810   3.562  11.237  0.00  0.00    +0.000 OA
ATOM     14  H   UNL     1      42.534   2.769  11.726  0.00  0.00    +0.000 HD
ENDBRANCH   9  13
BRANCH   1  15
ATOM     15  C   UNL     1      48.788   7.033  15.752  0.00  0.00    +0.000 C 
BRANCH  15  16
ATOM     16  N   UNL     1      48.264   5.925  16.535  0.00  0.00    +0.000 N 
ATOM     17  H   UNL     1      47.538   6.168  17.203  0.00  0.00    +0.000 HD
BRANCH  16  21
ATOM     18  C   UNL     1      50.676   2.580  17.462  0.00  0.00    +0.000 A 
ATOM     19  C   UNL     1      51.201   3.866  17.590  0.00  0.00    +0.000 A 
ATOM     20  C   UNL     1      50.412   4.987  17.306  0.00  0.00    +0.000 A 
ATOM     21  C   UNL     1      49.066   4.857  16.916  0.00  0.00    +0.000 A 
ATOM     22  C   UNL     1      48.565   3.555  16.778  0.00  0.00    +0.000 A 
ATOM     23  C   UNL     1      49.353   2.426  17.047  0.00  0.00    +0.000 A 
BRANCH  18  25
ATOM     24  N   UNL     1      52.140   0.503  17.972  0.00  0.00    +0.000 NA
ATOM     25  C   UNL     1      51.486   1.432  17.743  0.00  0.00    +0.000 C 
ENDBRANCH  18  25
ENDBRANCH  16  21
ENDBRANCH  15  16
ENDBRANCH   1  15
TORSDOF 5
ENDMDL
MODEL 4
REMARK VINA RESULT:    -6.168      2.354      4.626
REMARK INTER + INTRA:          -8.403
REMARK INTER:                  -7.895
REMARK INTRA:                  -0.508
REMARK UNBOUND:                -0.613
REMARK  Name = 
REMARK  5 active torsions:
REMARK  status: ('A' for Active; 'I' for Inactive)
REMARK    1  A    between atoms: C_2  and  C_3
REMARK    2  A    between atoms: C_6  and  N_7
REMARK    3  A    between atoms: N_7  and  C_8
REMARK    4  A    between atoms: C_8  and  C_9
REMARK    5  A    between atoms: C_17  and  O_18
REMARK                            x       y       z     vdW  Elec       q    Type
REMARK                         _______ _______ _______ _____ _____    ______ ____
ROOT
ATOM      1  C   UNL     1      48.675   7.160  14.341  0.00  0.00    +0.000 A 
ATOM      2  C   UNL     1      49.957   7.692  14.269  0.00  0.00    +0.000 A 
ATOM      3  C   UNL     1      50.843   7.407  15.293  0.00  0.00    +0.000 A 
ATOM      4  N   UNL     1      50.545   6.627  16.357  0.00  0.00    +0.000 NA
ATOM      5  C   UNL     1      49.304   6.102  16.443  0.00  0.00    +0.000 A 
ATOM      6  N   UNL     1      48.997   5.283  17.507  0.00  0.00    +0.000 N 
ATOM      7  C   UNL     1      50.050   4.506  18.151  0.00  0.00    +0.000 C 
ATOM      8  C   UNL     1      50.086   4.827  19.640  0.00  0.00    +0.000 C 
ATOM      9  C   UNL     1      48.704   4.699  20.283  0.00  0.00    +0.000 C 
ATOM     10  C   UNL     1      47.635   5.476  19.521  0.00  0.00    +0.000 C 
ATOM     11  C   UNL     1      47.646   5.161  18.029  0.00  0.00    +0.000 C 
ATOM     12  C   UNL     1      48.357   6.367  15.447  0.00  0.00    +0.000 A 
ENDROOT
BRANCH   9  13
ATOM     13  O   UNL     1      48.325   3.327  20.403  0.00  0.00    +0.000 OA
ATOM     14  H   UNL     1      47.599   3.256  21.044  0.00  0.00    +0.000 HD
ENDBRANCH   9  13
BRANCH   1  15
ATOM     15  C   UNL     1      47.663   7.395  13.248  0.00  0.00    +0.000 C 
BRANCH  15  16
ATOM     16  N   UNL     1      46.403   6.739  13.555  0.00  0.00    +0.000 N 
ATOM     17  H   UNL     1      46.208   6.608  14.543  0.00  0.00    +0.000 HD
BRANCH  16  21
ATOM     18  C   UNL     1      44.983   3.788  10.883  0.00  0.00    +0.000 A 
ATOM     19  C   UNL     1      45.194   3.461  12.222  0.00  0.00    +0.000 A 
ATOM     20  C   UNL     1      45.646   4.430  13.127  0.00  0.00    +0.000 A 
ATOM     21  C   UNL     1      45.870   5.760  12.726  0.00  0.00    +0.000 A 
ATOM     22  C   UNL     1      45.666   6.061  11.372  0.00  0.00    +0.000 A 
ATOM     23  C   UNL     1      45.227   5.094  10.457  0.00  0.00    +0.000 A 
BRANCH  18  25
ATOM     24  N   UNL     1      44.164   1.989   9.205  0.00  0.00    +0.000 NA
ATOM     25  C   UNL     1      44.529   2.794   9.954  0.00  0.00    +0.000 C 
ENDBRANCH  18  25
ENDBRANCH  16  21
ENDBRANCH  15  16
ENDBRANCH   1  15
TORSDOF 5
ENDMDL
MODEL 5
REMARK VINA RESULT:    -5.985      3.421      8.289
REMARK INTER + INTRA:          -8.173
REMARK INTER:                  -7.595
REMARK INTRA:                  -0.578
REMARK UNBOUND:                -0.613
REMARK  Name = 
REMARK  5 active torsions:
REMARK  status: ('A' for Active; 'I' for Inactive)
REMARK    1  A    between atoms: C_2  and  C_3
REMARK    2  A    between atoms: C_6  and  N_7
REMARK    3  A    between atoms: N_7  and  C_8
REMARK    4  A    between atoms: C_8  and  C_9
REMARK    5  A    between atoms: C_17  and  O_18
REMARK                            x       y       z     vdW  Elec       q    Type
REMARK                         _______ _______ _______ _____ _____    ______ ____
ROOT
ATOM      1  C   UNL     1      47.687   7.334  13.537  0.00  0.00    +0.000 A 
ATOM      2  C   UNL     1      47.039   8.547  13.337  0.00  0.00    +0.000 A 
ATOM      3  C   UNL     1      45.731   8.524  12.887  0.00  0.00    +0.000 A 
ATOM      4  N   UNL     1      45.033   7.391  12.644  0.00  0.00    +0.000 NA
ATOM      5  C   UNL     1      45.647   6.205  12.834  0.00  0.00    +0.000 A 
ATOM      6  N   UNL     1      44.938   5.043  12.617  0.00  0.00    +0.000 N 
ATOM      7  C   UNL     1      43.491   5.034  12.795  0.00  0.00    +0.000 C 
ATOM      8  C   UNL     1      42.820   4.554  11.514  0.00  0.00    +0.000 C 
ATOM      9  C   UNL     1      43.417   3.236  11.018  0.00  0.00    +0.000 C 
ATOM     10  C   UNL     1      44.939   3.289  10.922  0.00  0.00    +0.000 C 
ATOM     11  C   UNL     1      45.581   3.806  12.206  0.00  0.00    +0.000 C 
ATOM     12  C   UNL     1      46.976   6.161  13.272  0.00  0.00    +0.000 A 
ENDROOT
BRANCH   9  13
ATOM     13  O   UNL     1      43.014   2.149  11.852  0.00  0.00    +0.000 OA
ATOM     14  H   UNL     1      42.999   1.335  11.323  0.00  0.00    +0.000 HD
ENDBRANCH   9  13
BRANCH   1  15
ATOM     15  C   UNL     1      49.100   7.273  14.059  0.00  0.00    +0.000 C 
BRANCH  15  16
ATOM     16  N   UNL     1      49.208   7.934  15.350  0.00  0.00    +0.000 N 
ATOM     17  H   UNL     1      49.904   8.671  15.407  0.00  0.00    +0.000 HD
BRANCH  16  21
ATOM     18  C   UNL     1      48.788   5.750  18.944  0.00  0.00    +0.000 A 
ATOM     19  C   UNL     1      48.663   7.139  18.963  0.00  0.00    +0.000 A 
ATOM     20  C   UNL     1      48.780   7.878  17.780  0.00  0.00    +0.000 A 
ATOM     21  C   UNL     1      48.994   7.248  16.540  0.00  0.00    +0.000 A 
ATOM     22  C   UNL     1      49.133   5.853  16.548  0.00  0.00    +0.000 A 
ATOM     23  C   UNL     1      49.031   5.106  17.731  0.00  0.00    +0.000 A 
BRANCH  18  25
ATOM     24  N   UNL     1      48.591   4.383  21.139  0.00  0.00    +0.000 NA
ATOM     25  C   UNL     1      48.678   4.993  20.157  0.00  0.00    +0.000 C 
ENDBRANCH  18  25
ENDBRANCH  16  21
ENDBRANCH  15  16
ENDBRANCH   1  15
TORSDOF 5
ENDMDL
MODEL 6
REMARK VINA RESULT:    -5.980      1.543      2.412
REMARK INTER + INTRA:          -8.167
REMARK INTER:                  -7.826
REMARK INTRA:                  -0.341
REMARK UNBOUND:                -0.613
REMARK  Name = 
REMARK  5 active torsions:
REMARK  status: ('A' for Active; 'I' for Inactive)
REMARK    1  A    between atoms: C_2  and  C_3
REMARK    2  A    between atoms: C_6  and  N_7
REMARK    3  A    between atoms: N_7  and  C_8
REMARK    4  A    between atoms: C_8  and  C_9
REMARK    5  A    between atoms: C_17  and  O_18
REMARK                            x       y       z     vdW  Elec       q    Type
REMARK                         _______ _______ _______ _____ _____    ______ ____
ROOT
ATOM      1  C   UNL     1      45.841   5.324  12.857  0.00  0.00    +0.000 A 
ATOM      2  C   UNL     1      45.890   3.940  12.971  0.00  0.00    +0.000 A 
ATOM      3  C   UNL     1      46.790   3.388  13.865  0.00  0.00    +0.000 A 
ATOM      4  N   UNL     1      47.618   4.113  14.651  0.00  0.00    +0.000 NA
ATOM      5  C   UNL     1      47.583   5.459  14.553  0.00  0.00    +0.000 A 
ATOM      6  N   UNL     1      48.402   6.210  15.369  0.00  0.00    +0.000 N 
ATOM      7  C   UNL     1      48.804   5.688  16.670  0.00  0.00    +0.000 C 
ATOM      8  C   UNL     1      50.325   5.671  16.767  0.00  0.00    +0.000 C 
ATOM      9  C   UNL     1      50.934   7.024  16.398  0.00  0.00    +0.000 C 
ATOM     10  C   UNL     1      50.417   7.548  15.061  0.00  0.00    +0.000 C 
ATOM     11  C   UNL     1      48.895   7.521  14.980  0.00  0.00    +0.000 C 
ATOM     12  C   UNL     1      46.706   6.077  13.655  0.00  0.00    +0.000 A 
ENDROOT
BRANCH   9  13
ATOM     13  O   UNL     1      50.698   7.986  17.428  0.00  0.00    +0.000 OA
ATOM     14  H   UNL     1      50.185   7.567  18.138  0.00  0.00    +0.000 HD
ENDBRANCH   9  13
BRANCH   1  15
ATOM     15  C   UNL     1      44.863   6.004  11.932  0.00  0.00    +0.000 C 
BRANCH  15  16
ATOM     16  N   UNL     1      44.228   5.041  11.047  0.00  0.00    +0.000 N 
ATOM     17  H   UNL     1      43.608   4.376  11.498  0.00  0.00    +0.000 HD
BRANCH  16  21
ATOM     18  C   UNL     1      45.965   3.557   7.490  0.00  0.00    +0.000 A 
ATOM     19  C   UNL     1      46.409   4.768   8.021  0.00  0.00    +0.000 A 
ATOM     20  C   UNL     1      45.860   5.267   9.209  0.00  0.00    +0.000 A 
ATOM     21  C   UNL     1      44.873   4.555   9.916  0.00  0.00    +0.000 A 
ATOM     22  C   UNL     1      44.430   3.348   9.354  0.00  0.00    +0.000 A 
ATOM     23  C   UNL     1      44.966   2.849   8.158  0.00  0.00    +0.000 A 
BRANCH  18  25
ATOM     24  N   UNL     1      46.968   2.643   5.281  0.00  0.00    +0.000 NA
ATOM     25  C   UNL     1      46.520   3.051   6.269  0.00  0.00    +0.000 C 
ENDBRANCH  18  25
ENDBRANCH  16  21
ENDBRANCH  15  16
ENDBRANCH   1  15
TORSDOF 5
ENDMDL
MODEL 7
REMARK VINA RESULT:    -5.576      4.171      6.895
REMARK INTER + INTRA:          -7.656
REMARK INTER:                  -7.191
REMARK INTRA:                  -0.465
REMARK UNBOUND:                -0.613
REMARK  Name = 
REMARK  5 active torsions:
REMARK  status: ('A' for Active; 'I' for Inactive)
REMARK    1  A    between atoms: C_2  and  C_3
REMARK    2  A    between atoms: C_6  and  N_7
REMARK    3  A    between atoms: N_7  and  C_8
REMARK    4  A    between atoms: C_8  and  C_9
REMARK    5  A    between atoms: C_17  and  O_18
REMARK                            x       y       z     vdW  Elec       q    Type
REMARK                         _______ _______ _______ _____ _____    ______ ____
ROOT
ATOM      1  C   UNL     1      47.724   7.316  13.664  0.00  0.00    +0.000 A 
ATOM      2  C   UNL     1      47.071   8.520  13.433  0.00  0.00    +0.000 A 
ATOM      3  C   UNL     1      45.764   8.480  12.980  0.00  0.00    +0.000 A 
ATOM      4  N   UNL     1      45.074   7.338  12.761  0.00  0.00    +0.000 NA
ATOM      5  C   UNL     1      45.693   6.160  12.981  0.00  0.00    +0.000 A 
ATOM      6  N   UNL     1      44.991   4.989  12.789  0.00  0.00    +0.000 N 
ATOM      7  C   UNL     1      43.543   4.977  12.963  0.00  0.00    +0.000 C 
ATOM      8  C   UNL     1      42.879   4.463  11.691  0.00  0.00    +0.000 C 
ATOM      9  C   UNL     1      43.485   3.138  11.228  0.00  0.00    +0.000 C 
ATOM     10  C   UNL     1      45.007   3.197  11.136  0.00  0.00    +0.000 C 
ATOM     11  C   UNL     1      45.642   3.746  12.409  0.00  0.00    +0.000 C 
ATOM     12  C   UNL     1      47.021   6.134  13.424  0.00  0.00    +0.000 A 
ENDROOT
BRANCH   9  13
ATOM     13  O   UNL     1      43.085   2.068  12.085  0.00  0.00    +0.000 OA
ATOM     14  H   UNL     1      43.856   1.765  12.592  0.00  0.00    +0.000 HD
ENDBRANCH   9  13
BRANCH   1  15
ATOM     15  C   UNL     1      49.136   7.275  14.192  0.00  0.00    +0.000 C 
BRANCH  15  16
ATOM     16  N   UNL     1      49.917   8.390  13.680  0.00  0.00    +0.000 N 
ATOM     17  H   UNL     1      49.415   9.267  13.583  0.00  0.00    +0.000 HD
BRANCH  16  21
ATOM     18  C   UNL     1      52.881   7.958  10.697  0.00  0.00    +0.000 A 
ATOM     19  C   UNL     1      53.220   8.513  11.931  0.00  0.00    +0.000 A 
ATOM     20  C   UNL     1      52.257   8.647  12.939  0.00  0.00    +0.000 A 
ATOM     21  C   UNL     1      50.935   8.202  12.753  0.00  0.00    +0.000 A 
ATOM     22  C   UNL     1      50.613   7.662  11.499  0.00  0.00    +0.000 A 
ATOM     23  C   UNL     1      51.569   7.537  10.480  0.00  0.00    +0.000 A 
BRANCH  18  25
ATOM     24  N   UNL     1      54.659   7.724   8.825  0.00  0.00    +0.000 NA
ATOM     25  C   UNL     1      53.865   7.830   9.662  0.00  0.00    +0.000 C 
ENDBRANCH  18  25
ENDBRANCH  16  21
ENDBRANCH  15  16
ENDBRANCH   1  15
TORSDOF 5
ENDMDL
MODEL 8
REMARK VINA RESULT:    -5.345      3.593      5.660
REMARK INTER + INTRA:          -7.365
REMARK INTER:                  -6.625
REMARK INTRA:                  -0.739
REMARK UNBOUND:                -0.613
REMARK  Name = 
REMARK  5 active torsions:
REMARK  status: ('A' for Active; 'I' for Inactive)
REMARK    1  A    between atoms: C_2  and  C_3
REMARK    2  A    between atoms: C_6  and  N_7
REMARK    3  A    between atoms: N_7  and  C_8
REMARK    4  A    between atoms: C_8  and  C_9
REMARK    5  A    between atoms: C_17  and  O_18
REMARK                            x       y       z     vdW  Elec       q    Type
REMARK                         _______ _______ _______ _____ _____    ______ ____
ROOT
ATOM      1  C   UNL     1      45.989   5.609  13.273  0.00  0.00    +0.000 A 
ATOM      2  C   UNL     1      45.887   4.443  12.524  0.00  0.00    +0.000 A 
ATOM      3  C   UNL     1      46.466   3.290  13.025  0.00  0.00    +0.000 A 
ATOM      4  N   UNL     1      47.113   3.222  14.210  0.00  0.00    +0.000 NA
ATOM      5  C   UNL     1      47.221   4.345  14.950  0.00  0.00    +0.000 A 
ATOM      6  N   UNL     1      47.854   4.282  16.173  0.00  0.00    +0.000 N 
ATOM      7  C   UNL     1      47.849   3.034  16.928  0.00  0.00    +0.000 C 
ATOM      8  C   UNL     1      49.281   2.617  17.237  0.00  0.00    +0.000 C 
ATOM      9  C   UNL     1      50.080   3.754  17.876  0.00  0.00    +0.000 C 
ATOM     10  C   UNL     1      49.986   5.050  17.075  0.00  0.00    +0.000 C 
ATOM     11  C   UNL     1      48.543   5.424  16.751  0.00  0.00    +0.000 C 
ATOM     12  C   UNL     1      46.672   5.547  14.490  0.00  0.00    +0.000 A 
ENDROOT
BRANCH   9  13
ATOM     13  O   UNL     1      49.662   3.975  19.223  0.00  0.00    +0.000 OA
ATOM     14  H   UNL     1      50.194   4.692  19.605  0.00  0.00    +0.000 HD
ENDBRANCH   9  13
BRANCH   1  15
ATOM     15  C   UNL     1      45.355   6.898  12.813  0.00  0.00    +0.000 C 
BRANCH  15  16
ATOM     16  N   UNL     1      46.217   7.597  11.874  0.00  0.00    +0.000 N 
ATOM     17  H   UNL     1      46.076   7.365  10.895  0.00  0.00    +0.000 HD
BRANCH  16  21
ATOM     18  C   UNL     1      50.215   8.738  12.635  0.00  0.00    +0.000 A 
ATOM     19  C   UNL     1      49.185   9.286  13.398  0.00  0.00    +0.000 A 
ATOM     20  C   UNL     1      47.856   8.907  13.174  0.00  0.00    +0.000 A 
ATOM     21  C   UNL     1      47.522   7.945  12.202  0.00  0.00    +0.000 A 
ATOM     22  C   UNL     1      48.573   7.420  11.436  0.00  0.00    +0.000 A 
ATOM     23  C   UNL     1      49.905   7.806  11.645  0.00  0.00    +0.000 A 
BRANCH  18  25
ATOM     24  N   UNL     1      52.675   9.453  13.040  0.00  0.00    +0.000 NA
ATOM     25  C   UNL     1      51.575   9.134  12.858  0.00  0.00    +0.000 C 
ENDBRANCH  18  25
ENDBRANCH  16  21
ENDBRANCH  15  16
ENDBRANCH   1  15
TORSDOF 5
ENDMDL
MODEL 9
REMARK VINA RESULT:    -5.180      4.455      8.782
REMARK INTER + INTRA:          -7.156
REMARK INTER:                  -6.765
REMARK INTRA:                  -0.391
REMARK UNBOUND:                -0.613
REMARK  Name = 
REMARK  5 active torsions:
REMARK  status: ('A' for Active; 'I' for Inactive)
REMARK    1  A    between atoms: C_2  and  C_3
REMARK    2  A    between atoms: C_6  and  N_7
REMARK    3  A    between atoms: N_7  and  C_8
REMARK    4  A    between atoms: C_8  and  C_9
REMARK    5  A    between atoms: C_17  and  O_18
REMARK                            x       y       z     vdW  Elec       q    Type
REMARK                         _______ _______ _______ _____ _____    ______ ____
ROOT
ATOM      1  C   UNL     1      49.042   4.703  17.499  0.00  0.00    +0.000 A 
ATOM      2  C   UNL     1      48.205   3.784  18.121  0.00  0.00    +0.000 A 
ATOM      3  C   UNL     1      47.077   3.361  17.441  0.00  0.00    +0.000 A 
ATOM      4  N   UNL     1      46.744   3.774  16.197  0.00  0.00    +0.000 NA
ATOM      5  C   UNL     1      47.546   4.666  15.579  0.00  0.00    +0.000 A 
ATOM      6  N   UNL     1      47.232   5.074  14.300  0.00  0.00    +0.000 N 
ATOM      7  C   UNL     1      46.493   4.180  13.416  0.00  0.00    +0.000 C 
ATOM      8  C   UNL     1      45.231   4.877  12.922  0.00  0.00    +0.000 C 
ATOM      9  C   UNL     1      45.534   6.257  12.338  0.00  0.00    +0.000 C 
ATOM     10  C   UNL     1      46.370   7.115  13.282  0.00  0.00    +0.000 C 
ATOM     11  C   UNL     1      47.608   6.381  13.787  0.00  0.00    +0.000 C 
ATOM     12  C   UNL     1      48.693   5.146  16.221  0.00  0.00    +0.000 A 
ENDROOT
BRANCH   9  13
ATOM     13  O   UNL     1      46.184   6.141  11.071  0.00  0.00    +0.000 OA
ATOM     14  H   UNL     1      45.604   5.653  10.463  0.00  0.00    +0.000 HD
ENDBRANCH   9  13
BRANCH   1  15
ATOM     15  C   UNL     1      50.309   5.186  18.159  0.00  0.00    +0.000 C 
BRANCH  15  16
ATOM     16  N   UNL     1      51.483   4.718  17.441  0.00  0.00    +0.000 N 
ATOM     17  H   UNL     1      51.532   4.987  16.462  0.00  0.00    +0.000 HD
BRANCH  16  21
ATOM     18  C   UNL     1      53.282   0.950  18.092  0.00  0.00    +0.000 A 
ATOM     19  C   UNL     1      53.967   2.111  18.449  0.00  0.00    +0.000 A 
ATOM     20  C   UNL     1      53.380   3.368  18.259  0.00  0.00    +0.000 A 
ATOM     21  C   UNL     1      52.080   3.499  17.736  0.00  0.00    +0.000 A 
ATOM     22  C   UNL     1      51.418   2.318  17.369  0.00  0.00    +0.000 A 
ATOM     23  C   UNL     1      52.004   1.056  17.544  0.00  0.00    +0.000 A 
BRANCH  18  25
ATOM     24  N   UNL     1      54.374  -1.378  18.428  0.00  0.00    +0.000 NA
ATOM     25  C   UNL     1      53.887  -0.337  18.278  0.00  0.00    +0.000 C 
ENDBRANCH  18  25
ENDBRANCH  16  21
ENDBRANCH  15  16
ENDBRANCH   1  15
TORSDOF 5
ENDMDL
