MODEL 1
REMARK VINA RESULT:    -7.953      0.000      0.000
REMARK INTER + INTRA:         -12.174
REMARK INTER:                 -11.207
REMARK INTRA:                  -0.966
REMARK UNBOUND:                -0.966
REMARK  Name = 
REMARK  7 active torsions:
REMARK  status: ('A' for Active; 'I' for Inactive)
REMARK    1  A    between atoms: C_2  and  C_3
REMARK    2  A    between atoms: C_5  and  C_6
REMARK    3  A    between atoms: C_6  and  N_7
REMARK    4  A    between atoms: C_8  and  C_10
REMARK    5  A    between atoms: C_17  and  C_18
REMARK    6  A    between atoms: C_18  and  N_19
REMARK    7  A    between atoms: C_20  and  C_22
REMARK                            x       y       z     vdW  Elec       q    Type
REMARK                         _______ _______ _______ _____ _____    ______ ____
ROOT
ATOM      1  C   UNL     1      45.216   7.496  11.929  0.00  0.00    +0.000 A 
ATOM      2  C   UNL     1      44.443   6.565  11.208  0.00  0.00    +0.000 A 
ATOM      3  C   UNL     1      44.692   5.187  11.292  0.00  0.00    +0.000 A 
ATOM      4  C   UNL     1      45.733   4.750  12.119  0.00  0.00    +0.000 A 
ATOM      5  C   UNL     1      46.494   5.665  12.853  0.00  0.00    +0.000 A 
ATOM      6  C   UNL     1      46.261   7.049  12.760  0.00  0.00    +0.000 A 
ENDROOT
BRANCH   1   8
ATOM      7  N   UNL     1      44.696  10.025  11.632  0.00  0.00    +0.000 NA
ATOM      8  C   UNL     1      44.912   8.895  11.749  0.00  0.00    +0.000 C 
ENDBRANCH   1   8
BRANCH   3   9
ATOM      9  C   UNL     1      43.854   4.206  10.513  0.00  0.00    +0.000 C 
BRANCH   9  10
ATOM     10  N   UNL     1      44.643   3.239   9.796  0.00  0.00    +0.000 N 
ATOM     11  C   UNL     1      45.330   3.587   8.654  0.00  0.00    +0.000 C 
ATOM     12  O   UNL     1      45.315   4.718   8.176  0.00  0.00    +0.000 OA
ATOM     13  H   UNL     1      44.713   2.270  10.096  0.00  0.00    +0.000 HD
BRANCH  11  14
ATOM     14  C   UNL     1      46.084   2.479   8.062  0.00  0.00    +0.000 A 
ATOM     15  C   UNL     1      47.054   2.572   7.080  0.00  0.00    +0.000 A 
ATOM     16  N   UNL     1      47.469   1.292   6.849  0.00  0.00    +0.000 N 
ATOM     17  C   UNL     1      46.759   0.473   7.679  0.00  0.00    +0.000 A 
ATOM     18  N   UNL     1      45.913   1.149   8.427  0.00  0.00    +0.000 NA
ATOM     19  H   UNL     1      48.173   0.998   6.188  0.00  0.00    +0.000 HD
ENDBRANCH  11  14
ENDBRANCH   9  10
ENDBRANCH   3   9
BRANCH   6  20
ATOM     20  C   UNL     1      47.140   7.977  13.566  0.00  0.00    +0.000 C 
BRANCH  20  21
ATOM     21  N   UNL     1      47.685   7.336  14.737  0.00  0.00    +0.000 N 
ATOM     22  C   UNL     1      48.996   6.957  14.872  0.00  0.00    +0.000 C 
ATOM     23  O   UNL     1      49.814   7.074  13.964  0.00  0.00    +0.000 OA
ATOM     24  H   UNL     1      47.015   7.055  15.443  0.00  0.00    +0.000 HD
BRANCH  22  25
ATOM     25  C   UNL     1      49.386   6.460  16.205  0.00  0.00    +0.000 A 
ATOM     26  C   UNL     1      50.276   7.180  16.988  0.00  0.00    +0.000 A 
ATOM     27  S   UNL     1      50.535   6.498  18.533  0.00  0.00    +0.000 S 
ATOM     28  C   UNL     1      49.487   5.199  18.196  0.00  0.00    +0.000 A 
ATOM     29  N   UNL     1      49.244   4.232  19.121  0.00  0.00    +0.000 NA
ATOM     30  C   UNL     1      48.426   3.312  18.731  0.00  0.00    +0.000 A 
ATOM     31  N   UNL     1      47.835   3.265  17.497  0.00  0.00    +0.000 N 
ATOM     32  C   UNL     1      48.064   4.210  16.526  0.00  0.00    +0.000 A 
ATOM     33  O   UNL     1      47.518   4.139  15.429  0.00  0.00    +0.000 OA
ATOM     34  C   UNL     1      48.953   5.284  16.923  0.00  0.00    +0.000 A 
ATOM     35  H   UNL     1      47.201   2.519  17.248  0.00  0.00    +0.000 HD
ENDBRANCH  22  25
ENDBRANCH  20  21
ENDBRANCH   6  20
TORSDOF 7
ENDMDL
MODEL 2
REMARK VINA RESULT:    -7.628      3.320      5.077
REMARK INTER + INTRA:         -11.716
REMARK INTER:                 -10.418
REMARK INTRA:                  -1.298
REMARK UNBOUND:                -0.966
REMARK  Name = 
REMARK  7 active torsions:
REMARK  status: ('A' for Active; 'I' for Inactive)
REMARK    1  A    between atoms: C_2  and  C_3
REMARK    2  A    between atoms: C_5  and  C_6
REMARK    3  A    between atoms: C_6  and  N_7
REMARK    4  A    between atoms: C_8  and  C_10
REMARK    5  A    between atoms: C_17  and  C_18
REMARK    6  A    between atoms: C_18  and  N_19
REMARK    7  A    between atoms: C_20  and  C_22
REMARK                            x       y       z     vdW  Elec       q    Type
REMARK                         _______ _______ _______ _____ _____    ______ ____
ROOT
ATOM      1  C   UNL     1      46.182   5.829  13.067  0.00  0.00    +0.000 A 
ATOM      2  C   UNL     1      45.583   4.676  12.518  0.00  0.00    +0.000 A 
ATOM      3  C   UNL     1      44.513   4.768  11.616  0.00  0.00    +0.000 A 
ATOM      4  C   UNL     1      44.048   6.041  11.265  0.00  0.00    +0.000 A 
ATOM      5  C   UNL     1      44.647   7.190  11.788  0.00  0.00    +0.000 A 
ATOM      6  C   UNL     1      45.710   7.105  12.706  0.00  0.00    +0.000 A 
ENDROOT
BRANCH   1   8
ATOM      7  N   UNL     1      48.107   5.520  14.785  0.00  0.00    +0.000 NA
ATOM      8  C   UNL     1      47.251   5.636  14.017  0.00  0.00    +0.000 C 
ENDBRANCH   1   8
BRANCH   3   9
ATOM      9  C   UNL     1      43.885   3.524  11.041  0.00  0.00    +0.000 C 
BRANCH   9  10
ATOM     10  N   UNL     1      44.784   2.780  10.199  0.00  0.00    +0.000 N 
ATOM     11  C   UNL     1      44.994   3.142   8.886  0.00  0.00    +0.000 C 
ATOM     12  O   UNL     1      44.441   4.100   8.355  0.00  0.00    +0.000 OA
ATOM     13  H   UNL     1      45.283   1.960  10.534  0.00  0.00    +0.000 HD
BRANCH  11  14
ATOM     14  C   UNL     1      45.945   2.277   8.184  0.00  0.00    +0.000 A 
ATOM     15  C   UNL     1      46.900   2.673   7.265  0.00  0.00    +0.000 A 
ATOM     16  N   UNL     1      47.541   1.531   6.882  0.00  0.00    +0.000 N 
ATOM     17  C   UNL     1      46.975   0.493   7.564  0.00  0.00    +0.000 A 
ATOM     18  N   UNL     1      46.008   0.900   8.360  0.00  0.00    +0.000 NA
ATOM     19  H   UNL     1      48.298   1.460   6.218  0.00  0.00    +0.000 HD
ENDBRANCH  11  14
ENDBRANCH   9  10
ENDBRANCH   3   9
BRANCH   6  20
ATOM     20  C   UNL     1      46.291   8.391  13.247  0.00  0.00    +0.000 C 
BRANCH  20  21
ATOM     21  N   UNL     1      47.367   8.892  12.429  0.00  0.00    +0.000 N 
ATOM     22  C   UNL     1      48.325   9.772  12.865  0.00  0.00    +0.000 C 
ATOM     23  O   UNL     1      48.306  10.265  13.989  0.00  0.00    +0.000 OA
ATOM     24  H   UNL     1      47.327   8.656  11.445  0.00  0.00    +0.000 HD
BRANCH  22  25
ATOM     25  C   UNL     1      49.427  10.039  11.922  0.00  0.00    +0.000 A 
ATOM     26  C   UNL     1      49.682  11.333  11.489  0.00  0.00    +0.000 A 
ATOM     27  S   UNL     1      51.051  11.458  10.476  0.00  0.00    +0.000 S 
ATOM     28  C   UNL     1      51.333   9.781  10.556  0.00  0.00    +0.000 A 
ATOM     29  N   UNL     1      52.385   9.212   9.907  0.00  0.00    +0.000 NA
ATOM     30  C   UNL     1      52.479   7.933  10.060  0.00  0.00    +0.000 A 
ATOM     31  N   UNL     1      51.614   7.170  10.797  0.00  0.00    +0.000 N 
ATOM     32  C   UNL     1      50.530   7.698  11.456  0.00  0.00    +0.000 A 
ATOM     33  O   UNL     1      49.773   6.985  12.108  0.00  0.00    +0.000 OA
ATOM     34  C   UNL     1      50.394   9.137  11.341  0.00  0.00    +0.000 A 
ATOM     35  H   UNL     1      51.740   6.171  10.883  0.00  0.00    +0.000 HD
ENDBRANCH  22  25
ENDBRANCH  20  21
ENDBRANCH   6  20
TORSDOF 7
ENDMDL
MODEL 3
REMARK VINA RESULT:    -7.522      4.443      9.257
REMARK INTER + INTRA:         -11.567
REMARK INTER:                 -10.701
REMARK INTRA:                  -0.866
REMARK UNBOUND:                -0.966
REMARK  Name = 
REMARK  7 active torsions:
REMARK  status: ('A' for Active; 'I' for Inactive)
REMARK    1  A    between atoms: C_2  and  C_3
REMARK    2  A    between atoms: C_5  and  C_6
REMARK    3  A    between atoms: C_6  and  N_7
REMARK    4  A    between atoms: C_8  and  C_10
REMARK    5  A    between atoms: C_17  and  C_18
REMARK    6  A    between atoms: C_18  and  N_19
REMARK    7  A    between atoms: C_20  and  C_22
REMARK                            x       y       z     vdW  Elec       q    Type
REMARK                         _______ _______ _______ _____ _____    ______ ____
ROOT
ATOM      1  C   UNL     1      49.253   4.278  17.920  0.00  0.00    +0.000 A 
ATOM      2  C   UNL     1      50.622   4.073  18.183  0.00  0.00    +0.000 A 
ATOM      3  C   UNL     1      51.280   2.908  17.762  0.00  0.00    +0.000 A 
ATOM      4  C   UNL     1      50.543   1.944  17.065  0.00  0.00    +0.000 A 
ATOM      5  C   UNL     1      49.189   2.147  16.782  0.00  0.00    +0.000 A 
ATOM      6  C   UNL     1      48.519   3.305  17.216  0.00  0.00    +0.000 A 
ENDROOT
BRANCH   1   8
ATOM      7  N   UNL     1      48.145   6.457  18.803  0.00  0.00    +0.000 NA
ATOM      8  C   UNL     1      48.652   5.489  18.426  0.00  0.00    +0.000 C 
ENDBRANCH   1   8
BRANCH   3   9
ATOM      9  C   UNL     1      52.746   2.706  18.053  0.00  0.00    +0.000 C 
BRANCH   9  10
ATOM     10  N   UNL     1      53.067   1.346  18.395  0.00  0.00    +0.000 N 
ATOM     11  C   UNL     1      54.020   0.641  17.692  0.00  0.00    +0.000 C 
ATOM     12  O   UNL     1      54.645   1.112  16.747  0.00  0.00    +0.000 OA
ATOM     13  H   UNL     1      52.599   0.854  19.152  0.00  0.00    +0.000 HD
BRANCH  11  14
ATOM     14  C   UNL     1      54.221  -0.724  18.184  0.00  0.00    +0.000 A 
ATOM     15  C   UNL     1      55.070  -1.678  17.650  0.00  0.00    +0.000 A 
ATOM     16  N   UNL     1      54.919  -2.786  18.432  0.00  0.00    +0.000 N 
ATOM     17  C   UNL     1      54.006  -2.484  19.401  0.00  0.00    +0.000 A 
ATOM     18  N   UNL     1      53.560  -1.251  19.287  0.00  0.00    +0.000 NA
ATOM     19  H   UNL     1      55.395  -3.670  18.321  0.00  0.00    +0.000 HD
ENDBRANCH  11  14
ENDBRANCH   9  10
ENDBRANCH   3   9
BRANCH   6  20
ATOM     20  C   UNL     1      47.048   3.443  16.894  0.00  0.00    +0.000 C 
BRANCH  20  21
ATOM     21  N   UNL     1      46.803   4.424  15.866  0.00  0.00    +0.000 N 
ATOM     22  C   UNL     1      46.874   4.169  14.520  0.00  0.00    +0.000 C 
ATOM     23  O   UNL     1      47.223   3.081  14.072  0.00  0.00    +0.000 OA
ATOM     24  H   UNL     1      46.686   5.380  16.181  0.00  0.00    +0.000 HD
BRANCH  22  25
ATOM     25  C   UNL     1      46.436   5.265  13.636  0.00  0.00    +0.000 A 
ATOM     26  C   UNL     1      47.294   6.317  13.345  0.00  0.00    +0.000 A 
ATOM     27  S   UNL     1      46.646   7.441  12.233  0.00  0.00    +0.000 S 
ATOM     28  C   UNL     1      45.183   6.576  12.127  0.00  0.00    +0.000 A 
ATOM     29  N   UNL     1      44.174   6.996  11.318  0.00  0.00    +0.000 NA
ATOM     30  C   UNL     1      43.126   6.242  11.333  0.00  0.00    +0.000 A 
ATOM     31  N   UNL     1      42.992   5.108  12.089  0.00  0.00    +0.000 N 
ATOM     32  C   UNL     1      43.978   4.654  12.932  0.00  0.00    +0.000 A 
ATOM     33  O   UNL     1      43.826   3.633  13.596  0.00  0.00    +0.000 OA
ATOM     34  C   UNL     1      45.190   5.450  12.930  0.00  0.00    +0.000 A 
ATOM     35  H   UNL     1      42.147   4.554  12.058  0.00  0.00    +0.000 HD
ENDBRANCH  22  25
ENDBRANCH  20  21
ENDBRANCH   6  20
TORSDOF 7
ENDMDL
MODEL 4
REMARK VINA RESULT:    -7.323      1.769      2.184
REMARK INTER + INTRA:         -11.286
REMARK INTER:                 -10.130
REMARK INTRA:                  -1.156
REMARK UNBOUND:                -0.966
REMARK  Name = 
REMARK  7 active torsions:
REMARK  status: ('A' for Active; 'I' for Inactive)
REMARK    1  A    between atoms: C_2  and  C_3
REMARK    2  A    between atoms: C_5  and  C_6
REMARK    3  A    between atoms: C_6  and  N_7
REMARK    4  A    between atoms: C_8  and  C_10
REMARK    5  A    between atoms: C_17  and  C_18
REMARK    6  A    between atoms: C_18  and  N_19
REMARK    7  A    between atoms: C_20  and  C_22
REMARK                            x       y       z     vdW  Elec       q    Type
REMARK                         _______ _______ _______ _____ _____    ______ ____
ROOT
ATOM      1  C   UNL     1      45.726   7.196  12.385  0.00  0.00    +0.000 A 
ATOM      2  C   UNL     1      44.903   6.309  11.662  0.00  0.00    +0.000 A 
ATOM      3  C   UNL     1      45.108   4.923  11.706  0.00  0.00    +0.000 A 
ATOM      4  C   UNL     1      46.155   4.431  12.494  0.00  0.00    +0.000 A 
ATOM      5  C   UNL     1      46.965   5.301  13.230  0.00  0.00    +0.000 A 
ATOM      6  C   UNL     1      46.776   6.694  13.177  0.00  0.00    +0.000 A 
ENDROOT
BRANCH   1   8
ATOM      7  N   UNL     1      45.287   9.743  12.112  0.00  0.00    +0.000 NA
ATOM      8  C   UNL     1      45.465   8.609  12.247  0.00  0.00    +0.000 C 
ENDBRANCH   1   8
BRANCH   3   9
ATOM      9  C   UNL     1      44.218   3.989  10.926  0.00  0.00    +0.000 C 
BRANCH   9  10
ATOM     10  N   UNL     1      44.955   3.080  10.089  0.00  0.00    +0.000 N 
ATOM     11  C   UNL     1      45.347   3.442   8.818  0.00  0.00    +0.000 C 
ATOM     12  O   UNL     1      45.099   4.536   8.322  0.00  0.00    +0.000 OA
ATOM     13  H   UNL     1      45.201   2.143  10.395  0.00  0.00    +0.000 HD
BRANCH  11  14
ATOM     14  C   UNL     1      46.093   2.395   8.114  0.00  0.00    +0.000 A 
ATOM     15  C   UNL     1      47.006   2.577   7.091  0.00  0.00    +0.000 A 
ATOM     16  N   UNL     1      47.436   1.327   6.752  0.00  0.00    +0.000 N 
ATOM     17  C   UNL     1      46.791   0.437   7.562  0.00  0.00    +0.000 A 
ATOM     18  N   UNL     1      45.971   1.040   8.397  0.00  0.00    +0.000 NA
ATOM     19  H   UNL     1      48.110   1.096   6.037  0.00  0.00    +0.000 HD
ENDBRANCH  11  14
ENDBRANCH   9  10
ENDBRANCH   3   9
BRANCH   6  20
ATOM     20  C   UNL     1      47.706   7.572  13.982  0.00  0.00    +0.000 C 
BRANCH  20  21
ATOM     21  N   UNL     1      47.960   7.040  15.297  0.00  0.00    +0.000 N 
ATOM     22  C   UNL     1      49.203   6.702  15.768  0.00  0.00    +0.000 C 
ATOM     23  O   UNL     1      50.213   6.765  15.073  0.00  0.00    +0.000 OA
ATOM     24  H   UNL     1      47.143   6.802  15.847  0.00  0.00    +0.000 HD
BRANCH  22  25
ATOM     25  C   UNL     1      49.268   6.323  17.192  0.00  0.00    +0.000 A 
ATOM     26  C   UNL     1      49.825   5.110  17.570  0.00  0.00    +0.000 A 
ATOM     27  S   UNL     1      49.897   4.887  19.263  0.00  0.00    +0.000 S 
ATOM     28  C   UNL     1      49.156   6.394  19.548  0.00  0.00    +0.000 A 
ATOM     29  N   UNL     1      48.928   6.838  20.813  0.00  0.00    +0.000 NA
ATOM     30  C   UNL     1      48.364   7.998  20.879  0.00  0.00    +0.000 A 
ATOM     31  N   UNL     1      48.003   8.753  19.795  0.00  0.00    +0.000 N 
ATOM     32  C   UNL     1      48.200   8.338  18.500  0.00  0.00    +0.000 A 
ATOM     33  O   UNL     1      47.864   9.040  17.551  0.00  0.00    +0.000 OA
ATOM     34  C   UNL     1      48.857   7.052  18.369  0.00  0.00    +0.000 A 
ATOM     35  H   UNL     1      47.566   9.657  19.909  0.00  0.00    +0.000 HD
ENDBRANCH  22  25
ENDBRANCH  20  21
ENDBRANCH   6  20
TORSDOF 7
ENDMDL
MODEL 5
REMARK VINA RESULT:    -7.183      1.885      2.436
REMARK INTER + INTRA:         -11.088
REMARK INTER:                  -9.959
REMARK INTRA:                  -1.129
REMARK UNBOUND:                -0.966
REMARK  Name = 
REMARK  7 active torsions:
REMARK  status: ('A' for Active; 'I' for Inactive)
REMARK    1  A    between atoms: C_2  and  C_3
REMARK    2  A    between atoms: C_5  and  C_6
REMARK    3  A    between atoms: C_6  and  N_7
REMARK    4  A    between atoms: C_8  and  C_10
REMARK    5  A    between atoms: C_17  and  C_18
REMARK    6  A    between atoms: C_18  and  N_19
REMARK    7  A    between atoms: C_20  and  C_22
REMARK                            x       y       z     vdW  Elec       q    Type
REMARK                         _______ _______ _______ _____ _____    ______ ____
ROOT
ATOM      1  C   UNL     1      47.039   7.052  12.105  0.00  0.00    +0.000 A 
ATOM      2  C   UNL     1      46.345   6.075  11.361  0.00  0.00    +0.000 A 
ATOM      3  C   UNL     1      44.979   6.208  11.076  0.00  0.00    +0.000 A 
ATOM      4  C   UNL     1      44.309   7.343  11.548  0.00  0.00    +0.000 A 
ATOM      5  C   UNL     1      44.992   8.327  12.270  0.00  0.00    +0.000 A 
ATOM      6  C   UNL     1      46.359   8.192  12.574  0.00  0.00    +0.000 A 
ENDROOT
BRANCH   1   8
ATOM      7  N   UNL     1      49.561   6.640  12.575  0.00  0.00    +0.000 NA
ATOM      8  C   UNL     1      48.434   6.810  12.383  0.00  0.00    +0.000 C 
ENDBRANCH   1   8
BRANCH   3   9
ATOM      9  C   UNL     1      44.254   5.153  10.280  0.00  0.00    +0.000 C 
BRANCH   9  10
ATOM     10  N   UNL     1      45.128   4.403   9.417  0.00  0.00    +0.000 N 
ATOM     11  C   UNL     1      44.935   3.055   9.207  0.00  0.00    +0.000 C 
ATOM     12  O   UNL     1      44.028   2.414   9.730  0.00  0.00    +0.000 OA
ATOM     13  H   UNL     1      45.920   4.831   8.945  0.00  0.00    +0.000 HD
BRANCH  11  14
ATOM     14  C   UNL     1      45.914   2.457   8.296  0.00  0.00    +0.000 A 
ATOM     15  C   UNL     1      46.669   3.120   7.344  0.00  0.00    +0.000 A 
ATOM     16  N   UNL     1      47.429   2.159   6.742  0.00  0.00    +0.000 N 
ATOM     17  C   UNL     1      47.127   0.965   7.331  0.00  0.00    +0.000 A 
ATOM     18  N   UNL     1      46.218   1.101   8.273  0.00  0.00    +0.000 NA
ATOM     19  H   UNL     1      48.098   2.300   5.998  0.00  0.00    +0.000 HD
ENDBRANCH  11  14
ENDBRANCH   9  10
ENDBRANCH   3   9
BRANCH   6  20
ATOM     20  C   UNL     1      47.023   9.285  13.379  0.00  0.00    +0.000 C 
BRANCH  20  21
ATOM     21  N   UNL     1      47.223   8.905  14.756  0.00  0.00    +0.000 N 
ATOM     22  C   UNL     1      48.421   8.999  15.418  0.00  0.00    +0.000 C 
ATOM     23  O   UNL     1      49.455   9.359  14.864  0.00  0.00    +0.000 OA
ATOM     24  H   UNL     1      46.446   8.436  15.206  0.00  0.00    +0.000 HD
BRANCH  22  25
ATOM     25  C   UNL     1      48.379   8.708  16.863  0.00  0.00    +0.000 A 
ATOM     26  C   UNL     1      48.123   9.722  17.775  0.00  0.00    +0.000 A 
ATOM     27  S   UNL     1      48.021   9.179  19.392  0.00  0.00    +0.000 S 
ATOM     28  C   UNL     1      48.346   7.572  18.930  0.00  0.00    +0.000 A 
ATOM     29  N   UNL     1      48.391   6.571  19.850  0.00  0.00    +0.000 NA
ATOM     30  C   UNL     1      48.642   5.403  19.358  0.00  0.00    +0.000 A 
ATOM     31  N   UNL     1      48.860   5.146  18.031  0.00  0.00    +0.000 N 
ATOM     32  C   UNL     1      48.840   6.128  17.069  0.00  0.00    +0.000 A 
ATOM     33  O   UNL     1      49.039   5.863  15.888  0.00  0.00    +0.000 OA
ATOM     34  C   UNL     1      48.532   7.455  17.565  0.00  0.00    +0.000 A 
ATOM     35  H   UNL     1      49.050   4.209  17.703  0.00  0.00    +0.000 HD
ENDBRANCH  22  25
ENDBRANCH  20  21
ENDBRANCH   6  20
TORSDOF 7
ENDMDL
MODEL 6
REMARK VINA RESULT:    -7.057      1.862      2.620
REMARK INTER + INTRA:         -10.911
REMARK INTER:                 -10.450
REMARK INTRA:                  -0.461
REMARK UNBOUND:                -0.966
REMARK  Name = 
REMARK  7 active torsions:
REMARK  status: ('A' for Active; 'I' for Inactive)
REMARK    1  A    between atoms: C_2  and  C_3
REMARK    2  A    between atoms: C_5  and  C_6
REMARK    3  A    between atoms: C_6  and  N_7
REMARK    4  A    between atoms: C_8  and  C_10
REMARK    5  A    between atoms: C_17  and  C_18
REMARK    6  A    between atoms: C_18  and  N_19
REMARK    7  A    between atoms: C_20  and  C_22
REMARK                            x       y       z     vdW  Elec       q    Type
REMARK                         _______ _______ _______ _____ _____    ______ ____
ROOT
ATOM      1  C   UNL     1      46.857   5.249  13.627  0.00  0.00    +0.000 A 
ATOM      2  C   UNL     1      45.919   4.552  12.839  0.00  0.00    +0.000 A 
ATOM      3  C   UNL     1      45.455   5.073  11.623  0.00  0.00    +0.000 A 
ATOM      4  C   UNL     1      45.950   6.313  11.201  0.00  0.00    +0.000 A 
ATOM      5  C   UNL     1      46.894   7.003  11.966  0.00  0.00    +0.000 A 
ATOM      6  C   UNL     1      47.352   6.494  13.195  0.00  0.00    +0.000 A 
ENDROOT
BRANCH   1   8
ATOM      7  N   UNL     1      47.590   4.198  15.889  0.00  0.00    +0.000 NA
ATOM      8  C   UNL     1      47.247   4.652  14.882  0.00  0.00    +0.000 C 
ENDBRANCH   1   8
BRANCH   3   9
ATOM      9  C   UNL     1      44.452   4.313  10.794  0.00  0.00    +0.000 C 
BRANCH   9  10
ATOM     10  N   UNL     1      45.056   3.299   9.972  0.00  0.00    +0.000 N 
ATOM     11  C   UNL     1      45.509   3.588   8.703  0.00  0.00    +0.000 C 
ATOM     12  O   UNL     1      45.429   4.703   8.197  0.00  0.00    +0.000 OA
ATOM     13  H   UNL     1      45.160   2.338  10.288  0.00  0.00    +0.000 HD
BRANCH  11  14
ATOM     14  C   UNL     1      46.101   2.437   8.016  0.00  0.00    +0.000 A 
ATOM     15  C   UNL     1      46.902   2.471   6.888  0.00  0.00    +0.000 A 
ATOM     16  N   UNL     1      47.209   1.170   6.614  0.00  0.00    +0.000 N 
ATOM     17  C   UNL     1      46.604   0.396   7.561  0.00  0.00    +0.000 A 
ATOM     18  N   UNL     1      45.925   1.121   8.425  0.00  0.00    +0.000 NA
ATOM     19  H   UNL     1      47.781   0.834   5.852  0.00  0.00    +0.000 HD
ENDBRANCH  11  14
ENDBRANCH   9  10
ENDBRANCH   3   9
BRANCH   6  20
ATOM     20  C   UNL     1      48.355   7.309  13.977  0.00  0.00    +0.000 C 
BRANCH  20  21
ATOM     21  N   UNL     1      48.219   7.124  15.401  0.00  0.00    +0.000 N 
ATOM     22  C   UNL     1      49.229   7.327  16.307  0.00  0.00    +0.000 C 
ATOM     23  O   UNL     1      50.370   7.625  15.968  0.00  0.00    +0.000 OA
ATOM     24  H   UNL     1      47.351   6.708  15.715  0.00  0.00    +0.000 HD
BRANCH  22  25
ATOM     25  C   UNL     1      48.843   7.236  17.727  0.00  0.00    +0.000 A 
ATOM     26  C   UNL     1      48.029   8.205  18.297  0.00  0.00    +0.000 A 
ATOM     27  S   UNL     1      47.614   7.882  19.922  0.00  0.00    +0.000 S 
ATOM     28  C   UNL     1      48.534   6.448  19.930  0.00  0.00    +0.000 A 
ATOM     29  N   UNL     1      48.600   5.660  21.036  0.00  0.00    +0.000 NA
ATOM     30  C   UNL     1      49.329   4.604  20.898  0.00  0.00    +0.000 A 
ATOM     31  N   UNL     1      50.004   4.266  19.755  0.00  0.00    +0.000 N 
ATOM     32  C   UNL     1      49.979   5.039  18.619  0.00  0.00    +0.000 A 
ATOM     33  O   UNL     1      50.596   4.707  17.612  0.00  0.00    +0.000 OA
ATOM     34  C   UNL     1      49.149   6.225  18.712  0.00  0.00    +0.000 A 
ATOM     35  H   UNL     1      50.559   3.423  19.705  0.00  0.00    +0.000 HD
ENDBRANCH  22  25
ENDBRANCH  20  21
ENDBRANCH   6  20
TORSDOF 7
ENDMDL
MODEL 7
REMARK VINA RESULT:    -6.793      1.860      3.043
REMARK INTER + INTRA:         -10.540
REMARK INTER:                 -10.585
REMARK INTRA:                   0.045
REMARK UNBOUND:                -0.966
REMARK  Name = 
REMARK  7 active torsions:
REMARK  status: ('A' for Active; 'I' for Inactive)
REMARK    1  A    between atoms: C_2  and  C_3
REMARK    2  A    between atoms: C_5  and  C_6
REMARK    3  A    between atoms: C_6  and  N_7
REMARK    4  A    between atoms: C_8  and  C_10
REMARK    5  A    between atoms: C_17  and  C_18
REMARK    6  A    between atoms: C_18  and  N_19
REMARK    7  A    between atoms: C_20  and  C_22
REMARK                            x       y       z     vdW  Elec       q    Type
REMARK                         _______ _______ _______ _____ _____    ______ ____
ROOT
ATOM      1  C   UNL     1      46.230   5.175  13.243  0.00  0.00    +0.000 A 
ATOM      2  C   UNL     1      45.480   4.395  12.340  0.00  0.00    +0.000 A 
ATOM      3  C   UNL     1      44.896   4.960  11.197  0.00  0.00    +0.000 A 
ATOM      4  C   UNL     1      45.077   6.329  10.966  0.00  0.00    +0.000 A 
ATOM      5  C   UNL     1      45.835   7.107  11.846  0.00  0.00    +0.000 A 
ATOM      6  C   UNL     1      46.410   6.550  13.003  0.00  0.00    +0.000 A 
ENDROOT
BRANCH   1   8
ATOM      7  N   UNL     1      47.210   4.015  15.352  0.00  0.00    +0.000 NA
ATOM      8  C   UNL     1      46.760   4.515  14.412  0.00  0.00    +0.000 C 
ENDBRANCH   1   8
BRANCH   3   9
ATOM      9  C   UNL     1      44.096   4.110  10.243  0.00  0.00    +0.000 C 
BRANCH   9  10
ATOM     10  N   UNL     1      44.911   3.186   9.497  0.00  0.00    +0.000 N 
ATOM     11  C   UNL     1      45.653   3.605   8.415  0.00  0.00    +0.000 C 
ATOM     12  O   UNL     1      45.670   4.766   8.018  0.00  0.00    +0.000 OA
ATOM     13  H   UNL     1      44.958   2.198   9.731  0.00  0.00    +0.000 HD
BRANCH  11  14
ATOM     14  C   UNL     1      46.425   2.532   7.782  0.00  0.00    +0.000 A 
ATOM     15  C   UNL     1      47.365   2.673   6.777  0.00  0.00    +0.000 A 
ATOM     16  N   UNL     1      47.812   1.411   6.510  0.00  0.00    +0.000 N 
ATOM     17  C   UNL     1      47.151   0.556   7.343  0.00  0.00    +0.000 A 
ATOM     18  N   UNL     1      46.305   1.191   8.126  0.00  0.00    +0.000 NA
ATOM     19  H   UNL     1      48.507   1.152   5.825  0.00  0.00    +0.000 HD
ENDBRANCH  11  14
ENDBRANCH   9  10
ENDBRANCH   3   9
BRANCH   6  20
ATOM     20  C   UNL     1      47.195   7.460  13.919  0.00  0.00    +0.000 C 
BRANCH  20  21
ATOM     21  N   UNL     1      48.132   6.733  14.740  0.00  0.00    +0.000 N 
ATOM     22  C   UNL     1      48.887   7.297  15.736  0.00  0.00    +0.000 C 
ATOM     23  O   UNL     1      48.875   8.502  15.973  0.00  0.00    +0.000 OA
ATOM     24  H   UNL     1      48.311   5.774  14.469  0.00  0.00    +0.000 HD
BRANCH  22  25
ATOM     25  C   UNL     1      49.666   6.355  16.561  0.00  0.00    +0.000 A 
ATOM     26  C   UNL     1      49.021   5.469  17.412  0.00  0.00    +0.000 A 
ATOM     27  S   UNL     1      50.081   4.396  18.214  0.00  0.00    +0.000 S 
ATOM     28  C   UNL     1      51.443   5.100  17.473  0.00  0.00    +0.000 A 
ATOM     29  N   UNL     1      52.698   4.635  17.720  0.00  0.00    +0.000 NA
ATOM     30  C   UNL     1      53.634   5.260  17.087  0.00  0.00    +0.000 A 
ATOM     31  N   UNL     1      53.430   6.313  16.234  0.00  0.00    +0.000 N 
ATOM     32  C   UNL     1      52.184   6.825  15.967  0.00  0.00    +0.000 A 
ATOM     33  O   UNL     1      52.037   7.769  15.198  0.00  0.00    +0.000 OA
ATOM     34  C   UNL     1      51.092   6.139  16.631  0.00  0.00    +0.000 A 
ATOM     35  H   UNL     1      54.204   6.762  15.764  0.00  0.00    +0.000 HD
ENDBRANCH  22  25
ENDBRANCH  20  21
ENDBRANCH   6  20
TORSDOF 7
ENDMDL
MODEL 8
REMARK VINA RESULT:    -6.774      4.418      7.378
REMARK INTER + INTRA:         -10.513
REMARK INTER:                  -9.672
REMARK INTRA:                  -0.841
REMARK UNBOUND:                -0.966
REMARK  Name = 
REMARK  7 active torsions:
REMARK  status: ('A' for Active; 'I' for Inactive)
REMARK    1  A    between atoms: C_2  and  C_3
REMARK    2  A    between atoms: C_5  and  C_6
REMARK    3  A    between atoms: C_6  and  N_7
REMARK    4  A    between atoms: C_8  and  C_10
REMARK    5  A    between atoms: C_17  and  C_18
REMARK    6  A    between atoms: C_18  and  N_19
REMARK    7  A    between atoms: C_20  and  C_22
REMARK                            x       y       z     vdW  Elec       q    Type
REMARK                         _______ _______ _______ _____ _____    ______ ____
ROOT
ATOM      1  C   UNL     1      48.805   7.589  13.178  0.00  0.00    +0.000 A 
ATOM      2  C   UNL     1      50.124   7.702  12.695  0.00  0.00    +0.000 A 
ATOM      3  C   UNL     1      50.482   8.697  11.773  0.00  0.00    +0.000 A 
ATOM      4  C   UNL     1      49.493   9.587  11.339  0.00  0.00    +0.000 A 
ATOM      5  C   UNL     1      48.186   9.495  11.827  0.00  0.00    +0.000 A 
ATOM      6  C   UNL     1      47.816   8.490  12.738  0.00  0.00    +0.000 A 
ENDROOT
BRANCH   1   8
ATOM      7  N   UNL     1      48.270   5.669  14.846  0.00  0.00    +0.000 NA
ATOM      8  C   UNL     1      48.521   6.510  14.093  0.00  0.00    +0.000 C 
ENDBRANCH   1   8
BRANCH   3   9
ATOM      9  C   UNL     1      51.899   8.802  11.268  0.00  0.00    +0.000 C 
BRANCH   9  10
ATOM     10  N   UNL     1      52.293   7.675  10.464  0.00  0.00    +0.000 N 
ATOM     11  C   UNL     1      52.652   7.834   9.143  0.00  0.00    +0.000 C 
ATOM     12  O   UNL     1      52.659   8.921   8.573  0.00  0.00    +0.000 OA
ATOM     13  H   UNL     1      52.308   6.728  10.832  0.00  0.00    +0.000 HD
BRANCH  11  14
ATOM     14  C   UNL     1      53.030   6.582   8.483  0.00  0.00    +0.000 A 
ATOM     15  C   UNL     1      53.811   5.570   9.015  0.00  0.00    +0.000 A 
ATOM     16  N   UNL     1      53.891   4.617   8.042  0.00  0.00    +0.000 N 
ATOM     17  C   UNL     1      53.172   5.059   6.970  0.00  0.00    +0.000 A 
ATOM     18  N   UNL     1      52.636   6.241   7.195  0.00  0.00    +0.000 NA
ATOM     19  H   UNL     1      54.389   3.739   8.100  0.00  0.00    +0.000 HD
ENDBRANCH  11  14
ENDBRANCH   9  10
ENDBRANCH   3   9
BRANCH   6  20
ATOM     20  C   UNL     1      46.379   8.439  13.202  0.00  0.00    +0.000 C 
BRANCH  20  21
ATOM     21  N   UNL     1      45.768   7.157  12.952  0.00  0.00    +0.000 N 
ATOM     22  C   UNL     1      44.898   6.902  11.923  0.00  0.00    +0.000 C 
ATOM     23  O   UNL     1      44.509   7.777  11.154  0.00  0.00    +0.000 OA
ATOM     24  H   UNL     1      45.915   6.447  13.660  0.00  0.00    +0.000 HD
BRANCH  22  25
ATOM     25  C   UNL     1      44.508   5.490  11.748  0.00  0.00    +0.000 A 
ATOM     26  C   UNL     1      43.787   4.834  12.737  0.00  0.00    +0.000 A 
ATOM     27  S   UNL     1      43.347   3.238  12.317  0.00  0.00    +0.000 S 
ATOM     28  C   UNL     1      44.132   3.358  10.811  0.00  0.00    +0.000 A 
ATOM     29  N   UNL     1      44.129   2.321   9.930  0.00  0.00    +0.000 NA
ATOM     30  C   UNL     1      44.758   2.554   8.827  0.00  0.00    +0.000 A 
ATOM     31  N   UNL     1      45.397   3.727   8.526  0.00  0.00    +0.000 N 
ATOM     32  C   UNL     1      45.440   4.795   9.391  0.00  0.00    +0.000 A 
ATOM     33  O   UNL     1      46.023   5.832   9.090  0.00  0.00    +0.000 OA
ATOM     34  C   UNL     1      44.723   4.596  10.635  0.00  0.00    +0.000 A 
ATOM     35  H   UNL     1      45.872   3.853   7.643  0.00  0.00    +0.000 HD
ENDBRANCH  22  25
ENDBRANCH  20  21
ENDBRANCH   6  20
TORSDOF 7
ENDMDL
MODEL 9
REMARK VINA RESULT:    -6.553      3.907     10.003
REMARK INTER + INTRA:         -10.202
REMARK INTER:                  -9.296
REMARK INTRA:                  -0.905
REMARK UNBOUND:                -0.966
REMARK  Name = 
REMARK  7 active torsions:
REMARK  status: ('A' for Active; 'I' for Inactive)
REMARK    1  A    between atoms: C_2  and  C_3
REMARK    2  A    between atoms: C_5  and  C_6
REMARK    3  A    between atoms: C_6  and  N_7
REMARK    4  A    between atoms: C_8  and  C_10
REMARK    5  A    between atoms: C_17  and  C_18
REMARK    6  A    between atoms: C_18  and  N_19
REMARK    7  A    between atoms: C_20  and  C_22
REMARK                            x       y       z     vdW  Elec       q    Type
REMARK                         _______ _______ _______ _____ _____    ______ ____
ROOT
ATOM      1  C   UNL     1      49.404   3.751  17.965  0.00  0.00    +0.000 A 
ATOM      2  C   UNL     1      50.235   4.388  18.909  0.00  0.00    +0.000 A 
ATOM      3  C   UNL     1      49.798   5.511  19.628  0.00  0.00    +0.000 A 
ATOM      4  C   UNL     1      48.505   5.989  19.388  0.00  0.00    +0.000 A 
ATOM      5  C   UNL     1      47.666   5.353  18.468  0.00  0.00    +0.000 A 
ATOM      6  C   UNL     1      48.104   4.237  17.732  0.00  0.00    +0.000 A 
ENDROOT
BRANCH   1   8
ATOM      7  N   UNL     1      50.402   1.751  16.639  0.00  0.00    +0.000 NA
ATOM      8  C   UNL     1      49.954   2.627  17.246  0.00  0.00    +0.000 C 
ENDBRANCH   1   8
BRANCH   3   9
ATOM      9  C   UNL     1      50.701   6.179  20.633  0.00  0.00    +0.000 C 
BRANCH   9  10
ATOM     10  N   UNL     1      51.835   6.826  20.025  0.00  0.00    +0.000 N 
ATOM     11  C   UNL     1      53.090   6.259  20.079  0.00  0.00    +0.000 C 
ATOM     12  O   UNL     1      53.324   5.191  20.636  0.00  0.00    +0.000 OA
ATOM     13  H   UNL     1      51.755   7.721  19.551  0.00  0.00    +0.000 HD
BRANCH  11  14
ATOM     14  C   UNL     1      54.120   7.052  19.403  0.00  0.00    +0.000 A 
ATOM     15  C   UNL     1      54.412   8.387  19.623  0.00  0.00    +0.000 A 
ATOM     16  N   UNL     1      55.433   8.687  18.768  0.00  0.00    +0.000 N 
ATOM     17  C   UNL     1      55.732   7.553  18.070  0.00  0.00    +0.000 A 
ATOM     18  N   UNL     1      54.963   6.544  18.422  0.00  0.00    +0.000 NA
ATOM     19  H   UNL     1      55.891   9.581  18.669  0.00  0.00    +0.000 HD
ENDBRANCH  11  14
ENDBRANCH   9  10
ENDBRANCH   3   9
BRANCH   6  20
ATOM     20  C   UNL     1      47.149   3.618  16.738  0.00  0.00    +0.000 C 
BRANCH  20  21
ATOM     21  N   UNL     1      46.736   4.552  15.721  0.00  0.00    +0.000 N 
ATOM     22  C   UNL     1      46.747   4.285  14.375  0.00  0.00    +0.000 C 
ATOM     23  O   UNL     1      47.179   3.233  13.914  0.00  0.00    +0.000 OA
ATOM     24  H   UNL     1      46.540   5.495  16.034  0.00  0.00    +0.000 HD
BRANCH  22  25
ATOM     25  C   UNL     1      46.140   5.316  13.513  0.00  0.00    +0.000 A 
ATOM     26  C   UNL     1      46.839   6.474  13.205  0.00  0.00    +0.000 A 
ATOM     27  S   UNL     1      46.014   7.505  12.121  0.00  0.00    +0.000 S 
ATOM     28  C   UNL     1      44.678   6.451  12.049  0.00  0.00    +0.000 A 
ATOM     29  N   UNL     1      43.598   6.735  11.272  0.00  0.00    +0.000 NA
ATOM     30  C   UNL     1      42.663   5.846  11.311  0.00  0.00    +0.000 A 
ATOM     31  N   UNL     1      42.705   4.701  12.062  0.00  0.00    +0.000 N 
ATOM     32  C   UNL     1      43.767   4.381  12.873  0.00  0.00    +0.000 A 
ATOM     33  O   UNL     1      43.773   3.347  13.533  0.00  0.00    +0.000 OA
ATOM     34  C   UNL     1      44.860   5.334  12.843  0.00  0.00    +0.000 A 
ATOM     35  H   UNL     1      41.941   4.039  12.051  0.00  0.00    +0.000 HD
ENDBRANCH  22  25
ENDBRANCH  20  21
ENDBRANCH   6  20
TORSDOF 7
ENDMDL
