MODEL 1
REMARK VINA RESULT:    -8.594      0.000      0.000
REMARK INTER + INTRA:         -13.304
REMARK INTER:                 -12.111
REMARK INTRA:                  -1.193
REMARK UNBOUND:                -1.193
REMARK  Name = 
REMARK  7 active torsions:
REMARK  status: ('A' for Active; 'I' for Inactive)
REMARK    1  A    between atoms: C_2  and  C_4
REMARK    2  A    between atoms: C_7  and  N_8
REMARK    3  A    between atoms: N_8  and  C_9
REMARK    4  A    between atoms: C_9  and  C_10
REMARK    5  A    between atoms: C_10  and  C_13
REMARK    6  A    between atoms: C_17  and  C_18
REMARK    7  A    between atoms: C_18  and  C_19
REMARK                            x       y       z     vdW  Elec       q    Type
REMARK                         _______ _______ _______ _____ _____    ______ ____
ROOT
ATOM      1  C   UNL     1      43.899   4.735  12.422  0.00  0.00    +0.000 C 
ATOM      2  F   UNL     1      42.979   5.311  13.250  0.00  0.00    +0.000 F 
ATOM      3  F   UNL     1      43.819   3.391  12.679  0.00  0.00    +0.000 F 
ENDROOT
BRANCH   1   4
ATOM      4  C   UNL     1      45.292   5.283  12.644  0.00  0.00    +0.000 A 
ATOM      5  C   UNL     1      45.878   6.133  11.695  0.00  0.00    +0.000 A 
ATOM      6  C   UNL     1      47.135   6.686  11.928  0.00  0.00    +0.000 A 
ATOM      7  C   UNL     1      47.821   6.391  13.107  0.00  0.00    +0.000 A 
ATOM      8  C   UNL     1      47.261   5.535  14.066  0.00  0.00    +0.000 A 
ATOM      9  C   UNL     1      45.994   4.988  13.827  0.00  0.00    +0.000 A 
BRANCH   8  10
ATOM     10  C   UNL     1      48.011   5.215  15.338  0.00  0.00    +0.000 C 
BRANCH  10  11
ATOM     11  C   UNL     1      47.222   4.245  16.209  0.00  0.00    +0.000 C 
ATOM     12  C   UNL     1      47.112   4.544  17.716  0.00  0.00    +0.000 C 
ATOM     13  N   UNL     1      47.606   3.197  18.025  0.00  0.00    +0.000 NA
ATOM     14  C   UNL     1      48.001   2.983  16.628  0.00  0.00    +0.000 C 
ATOM     15  H   UNL     1      46.883   2.557  18.353  0.00  0.00    +0.000 HD
ENDBRANCH  10  11
ENDBRANCH   8  10
ENDBRANCH   1   4
BRANCH   1  16
ATOM     16  C   UNL     1      43.476   4.968  10.950  0.00  0.00    +0.000 C 
BRANCH  16  17
ATOM     17  N   UNL     1      43.527   3.745  10.136  0.00  0.00    +0.000 N 
ATOM     18  H   UNL     1      43.062   2.938  10.551  0.00  0.00    +0.000 HD
BRANCH  17  22
ATOM     19  C   UNL     1      46.653   2.652   7.535  0.00  0.00    +0.000 A 
ATOM     20  C   UNL     1      46.303   3.998   7.654  0.00  0.00    +0.000 A 
ATOM     21  C   UNL     1      45.283   4.381   8.536  0.00  0.00    +0.000 A 
ATOM     22  C   UNL     1      44.619   3.440   9.335  0.00  0.00    +0.000 A 
ATOM     23  C   UNL     1      44.982   2.095   9.197  0.00  0.00    +0.000 A 
ATOM     24  C   UNL     1      45.984   1.699   8.305  0.00  0.00    +0.000 A 
BRANCH  19  26
ATOM     25  N   UNL     1      47.865   2.946   5.443  0.00  0.00    +0.000 N 
ATOM     26  C   UNL     1      47.680   2.191   6.568  0.00  0.00    +0.000 C 
ATOM     27  O   UNL     1      48.359   1.195   6.774  0.00  0.00    +0.000 OA
ATOM     28  H   UNL     1      48.636   2.674   4.848  0.00  0.00    +0.000 HD
ATOM     29  H   UNL     1      47.519   3.890   5.363  0.00  0.00    +0.000 HD
ENDBRANCH  19  26
ENDBRANCH  17  22
ENDBRANCH  16  17
ENDBRANCH   1  16
TORSDOF 7
ENDMDL
MODEL 2
REMARK VINA RESULT:    -8.111      2.262      3.472
REMARK INTER + INTRA:         -12.623
REMARK INTER:                 -11.410
REMARK INTRA:                  -1.213
REMARK UNBOUND:                -1.193
REMARK  Name = 
REMARK  7 active torsions:
REMARK  status: ('A' for Active; 'I' for Inactive)
REMARK    1  A    between atoms: C_2  and  C_4
REMARK    2  A    between atoms: C_7  and  N_8
REMARK    3  A    between atoms: N_8  and  C_9
REMARK    4  A    between atoms: C_9  and  C_10
REMARK    5  A    between atoms: C_10  and  C_13
REMARK    6  A    between atoms: C_17  and  C_18
REMARK    7  A    between atoms: C_18  and  C_19
REMARK                            x       y       z     vdW  Elec       q    Type
REMARK                         _______ _______ _______ _____ _____    ______ ____
ROOT
ATOM      1  C   UNL     1      43.867   4.881  12.439  0.00  0.00    +0.000 C 
ATOM      2  F   UNL     1      42.937   5.415  13.284  0.00  0.00    +0.000 F 
ATOM      3  F   UNL     1      43.697   3.525  12.530  0.00  0.00    +0.000 F 
ENDROOT
BRANCH   1   4
ATOM      4  C   UNL     1      45.275   5.312  12.792  0.00  0.00    +0.000 A 
ATOM      5  C   UNL     1      45.913   4.783  13.923  0.00  0.00    +0.000 A 
ATOM      6  C   UNL     1      47.230   5.133  14.214  0.00  0.00    +0.000 A 
ATOM      7  C   UNL     1      47.919   6.015  13.382  0.00  0.00    +0.000 A 
ATOM      8  C   UNL     1      47.300   6.565  12.250  0.00  0.00    +0.000 A 
ATOM      9  C   UNL     1      45.977   6.204  11.962  0.00  0.00    +0.000 A 
BRANCH   8  10
ATOM     10  C   UNL     1      48.049   7.525  11.356  0.00  0.00    +0.000 C 
BRANCH  10  11
ATOM     11  C   UNL     1      49.160   8.232  12.122  0.00  0.00    +0.000 C 
ATOM     12  C   UNL     1      49.376   9.736  11.867  0.00  0.00    +0.000 C 
ATOM     13  N   UNL     1      50.795   9.490  11.585  0.00  0.00    +0.000 NA
ATOM     14  C   UNL     1      50.569   8.041  11.528  0.00  0.00    +0.000 C 
ATOM     15  H   UNL     1      51.422   9.781  12.335  0.00  0.00    +0.000 HD
ENDBRANCH  10  11
ENDBRANCH   8  10
ENDBRANCH   1   4
BRANCH   1  16
ATOM     16  C   UNL     1      43.541   5.309  10.986  0.00  0.00    +0.000 C 
BRANCH  16  17
ATOM     17  N   UNL     1      43.404   4.170  10.068  0.00  0.00    +0.000 N 
ATOM     18  H   UNL     1      42.719   3.471  10.354  0.00  0.00    +0.000 HD
BRANCH  17  22
ATOM     19  C   UNL     1      46.482   2.483   7.740  0.00  0.00    +0.000 A 
ATOM     20  C   UNL     1      46.294   3.866   7.725  0.00  0.00    +0.000 A 
ATOM     21  C   UNL     1      45.292   4.445   8.515  0.00  0.00    +0.000 A 
ATOM     22  C   UNL     1      44.485   3.666   9.355  0.00  0.00    +0.000 A 
ATOM     23  C   UNL     1      44.686   2.281   9.353  0.00  0.00    +0.000 A 
ATOM     24  C   UNL     1      45.669   1.690   8.553  0.00  0.00    +0.000 A 
BRANCH  19  26
ATOM     25  N   UNL     1      48.548   2.569   6.454  0.00  0.00    +0.000 N 
ATOM     26  C   UNL     1      47.485   1.818   6.873  0.00  0.00    +0.000 C 
ATOM     27  O   UNL     1      47.390   0.638   6.565  0.00  0.00    +0.000 OA
ATOM     28  H   UNL     1      49.272   2.073   5.950  0.00  0.00    +0.000 HD
ATOM     29  H   UNL     1      48.793   3.447   6.887  0.00  0.00    +0.000 HD
ENDBRANCH  19  26
ENDBRANCH  17  22
ENDBRANCH  16  17
ENDBRANCH   1  16
TORSDOF 7
ENDMDL
MODEL 3
REMARK VINA RESULT:    -8.069      2.776      4.731
REMARK INTER + INTRA:         -12.563
REMARK INTER:                 -11.604
REMARK INTRA:                  -0.959
REMARK UNBOUND:                -1.193
REMARK  Name = 
REMARK  7 active torsions:
REMARK  status: ('A' for Active; 'I' for Inactive)
REMARK    1  A    between atoms: C_2  and  C_4
REMARK    2  A    between atoms: C_7  and  N_8
REMARK    3  A    between atoms: N_8  and  C_9
REMARK    4  A    between atoms: C_9  and  C_10
REMARK    5  A    between atoms: C_10  and  C_13
REMARK    6  A    between atoms: C_17  and  C_18
REMARK    7  A    between atoms: C_18  and  C_19
REMARK                            x       y       z     vdW  Elec       q    Type
REMARK                         _______ _______ _______ _____ _____    ______ ____
ROOT
ATOM      1  C   UNL     1      43.798   4.830  12.432  0.00  0.00    +0.000 C 
ATOM      2  F   UNL     1      42.882   5.100  13.408  0.00  0.00    +0.000 F 
ATOM      3  F   UNL     1      44.330   3.613  12.769  0.00  0.00    +0.000 F 
ENDROOT
BRANCH   1   4
ATOM      4  C   UNL     1      44.853   5.910  12.323  0.00  0.00    +0.000 A 
ATOM      5  C   UNL     1      46.214   5.574  12.342  0.00  0.00    +0.000 A 
ATOM      6  C   UNL     1      47.184   6.561  12.181  0.00  0.00    +0.000 A 
ATOM      7  C   UNL     1      46.804   7.891  12.002  0.00  0.00    +0.000 A 
ATOM      8  C   UNL     1      45.450   8.254  11.989  0.00  0.00    +0.000 A 
ATOM      9  C   UNL     1      44.481   7.255  12.147  0.00  0.00    +0.000 A 
BRANCH   8  10
ATOM     10  C   UNL     1      45.044   9.697  11.800  0.00  0.00    +0.000 C 
BRANCH  10  11
ATOM     11  C   UNL     1      43.739   9.802  11.021  0.00  0.00    +0.000 C 
ATOM     12  C   UNL     1      43.776  10.448   9.623  0.00  0.00    +0.000 C 
ATOM     13  N   UNL     1      42.706  11.373  10.016  0.00  0.00    +0.000 NA
ATOM     14  C   UNL     1      42.846  10.991  11.427  0.00  0.00    +0.000 C 
ATOM     15  H   UNL     1      41.797  11.147   9.615  0.00  0.00    +0.000 HD
ENDBRANCH  10  11
ENDBRANCH   8  10
ENDBRANCH   1   4
BRANCH   1  16
ATOM     16  C   UNL     1      43.068   4.675  11.075  0.00  0.00    +0.000 C 
BRANCH  16  17
ATOM     17  N   UNL     1      43.908   5.039   9.925  0.00  0.00    +0.000 N 
ATOM     18  H   UNL     1      43.557   5.819   9.370  0.00  0.00    +0.000 HD
BRANCH  17  22
ATOM     19  C   UNL     1      46.326   2.270   7.871  0.00  0.00    +0.000 A 
ATOM     20  C   UNL     1      45.378   1.803   8.782  0.00  0.00    +0.000 A 
ATOM     21  C   UNL     1      44.547   2.711   9.454  0.00  0.00    +0.000 A 
ATOM     22  C   UNL     1      44.622   4.088   9.207  0.00  0.00    +0.000 A 
ATOM     23  C   UNL     1      45.582   4.536   8.293  0.00  0.00    +0.000 A 
ATOM     24  C   UNL     1      46.431   3.641   7.632  0.00  0.00    +0.000 A 
BRANCH  19  26
ATOM     25  N   UNL     1      48.361   1.919   6.580  0.00  0.00    +0.000 N 
ATOM     26  C   UNL     1      47.272   1.355   7.185  0.00  0.00    +0.000 C 
ATOM     27  O   UNL     1      47.108   0.143   7.180  0.00  0.00    +0.000 OA
ATOM     28  H   UNL     1      49.046   1.274   6.208  0.00  0.00    +0.000 HD
ATOM     29  H   UNL     1      48.663   2.861   6.780  0.00  0.00    +0.000 HD
ENDBRANCH  19  26
ENDBRANCH  17  22
ENDBRANCH  16  17
ENDBRANCH   1  16
TORSDOF 7
ENDMDL
MODEL 4
REMARK VINA RESULT:    -7.787      1.656      2.156
REMARK INTER + INTRA:         -12.166
REMARK INTER:                 -11.112
REMARK INTRA:                  -1.054
REMARK UNBOUND:                -1.193
REMARK  Name = 
REMARK  7 active torsions:
REMARK  status: ('A' for Active; 'I' for Inactive)
REMARK    1  A    between atoms: C_2  and  C_4
REMARK    2  A    between atoms: C_7  and  N_8
REMARK    3  A    between atoms: N_8  and  C_9
REMARK    4  A    between atoms: C_9  and  C_10
REMARK    5  A    between atoms: C_10  and  C_13
REMARK    6  A    between atoms: C_17  and  C_18
REMARK    7  A    between atoms: C_18  and  C_19
REMARK                            x       y       z     vdW  Elec       q    Type
REMARK                         _______ _______ _______ _____ _____    ______ ____
ROOT
ATOM      1  C   UNL     1      44.085   5.215  12.379  0.00  0.00    +0.000 C 
ATOM      2  F   UNL     1      43.119   5.483  13.306  0.00  0.00    +0.000 F 
ATOM      3  F   UNL     1      44.646   4.031  12.780  0.00  0.00    +0.000 F 
ENDROOT
BRANCH   1   4
ATOM      4  C   UNL     1      45.103   6.330  12.275  0.00  0.00    +0.000 A 
ATOM      5  C   UNL     1      44.706   7.617  11.886  0.00  0.00    +0.000 A 
ATOM      6  C   UNL     1      45.632   8.657  11.848  0.00  0.00    +0.000 A 
ATOM      7  C   UNL     1      46.963   8.420  12.194  0.00  0.00    +0.000 A 
ATOM      8  C   UNL     1      47.387   7.140  12.576  0.00  0.00    +0.000 A 
ATOM      9  C   UNL     1      46.449   6.101  12.616  0.00  0.00    +0.000 A 
BRANCH   8  10
ATOM     10  C   UNL     1      48.831   6.889  12.944  0.00  0.00    +0.000 C 
BRANCH  10  11
ATOM     11  C   UNL     1      49.134   7.397  14.348  0.00  0.00    +0.000 C 
ATOM     12  C   UNL     1      50.585   7.308  14.856  0.00  0.00    +0.000 C 
ATOM     13  N   UNL     1      50.128   6.599  16.057  0.00  0.00    +0.000 NA
ATOM     14  C   UNL     1      48.794   6.402  15.475  0.00  0.00    +0.000 C 
ATOM     15  H   UNL     1      50.130   7.171  16.901  0.00  0.00    +0.000 HD
ENDBRANCH  10  11
ENDBRANCH   8  10
ENDBRANCH   1   4
BRANCH   1  16
ATOM     16  C   UNL     1      43.418   4.987  10.999  0.00  0.00    +0.000 C 
BRANCH  16  17
ATOM     17  N   UNL     1      43.675   3.648  10.451  0.00  0.00    +0.000 N 
ATOM     18  H   UNL     1      43.484   2.880  11.093  0.00  0.00    +0.000 HD
BRANCH  17  22
ATOM     19  C   UNL     1      46.589   2.767   7.541  0.00  0.00    +0.000 A 
ATOM     20  C   UNL     1      46.259   4.099   7.795  0.00  0.00    +0.000 A 
ATOM     21  C   UNL     1      45.311   4.410   8.779  0.00  0.00    +0.000 A 
ATOM     22  C   UNL     1      44.702   3.408   9.547  0.00  0.00    +0.000 A 
ATOM     23  C   UNL     1      45.044   2.079   9.274  0.00  0.00    +0.000 A 
ATOM     24  C   UNL     1      45.973   1.756   8.280  0.00  0.00    +0.000 A 
BRANCH  19  26
ATOM     25  N   UNL     1      47.444   3.059   5.280  0.00  0.00    +0.000 N 
ATOM     26  C   UNL     1      47.537   2.385   6.466  0.00  0.00    +0.000 C 
ATOM     27  O   UNL     1      48.390   1.524   6.633  0.00  0.00    +0.000 OA
ATOM     28  H   UNL     1      48.163   2.857   4.596  0.00  0.00    +0.000 HD
ATOM     29  H   UNL     1      46.943   3.930   5.191  0.00  0.00    +0.000 HD
ENDBRANCH  19  26
ENDBRANCH  17  22
ENDBRANCH  16  17
ENDBRANCH   1  16
TORSDOF 7
ENDMDL
MODEL 5
REMARK VINA RESULT:    -7.562      2.677      7.705
REMARK INTER + INTRA:         -11.850
REMARK INTER:                 -11.171
REMARK INTRA:                  -0.679
REMARK UNBOUND:                -1.193
REMARK  Name = 
REMARK  7 active torsions:
REMARK  status: ('A' for Active; 'I' for Inactive)
REMARK    1  A    between atoms: C_2  and  C_4
REMARK    2  A    between atoms: C_7  and  N_8
REMARK    3  A    between atoms: N_8  and  C_9
REMARK    4  A    between atoms: C_9  and  C_10
REMARK    5  A    between atoms: C_10  and  C_13
REMARK    6  A    between atoms: C_17  and  C_18
REMARK    7  A    between atoms: C_18  and  C_19
REMARK                            x       y       z     vdW  Elec       q    Type
REMARK                         _______ _______ _______ _____ _____    ______ ____
ROOT
ATOM      1  C   UNL     1      44.108   5.655  11.524  0.00  0.00    +0.000 C 
ATOM      2  F   UNL     1      43.684   5.219  12.746  0.00  0.00    +0.000 F 
ATOM      3  F   UNL     1      43.075   6.411  11.035  0.00  0.00    +0.000 F 
ENDROOT
BRANCH   1   4
ATOM      4  C   UNL     1      44.472   4.511  10.602  0.00  0.00    +0.000 A 
ATOM      5  C   UNL     1      43.980   3.221  10.848  0.00  0.00    +0.000 A 
ATOM      6  C   UNL     1      44.265   2.180   9.967  0.00  0.00    +0.000 A 
ATOM      7  C   UNL     1      45.047   2.417   8.836  0.00  0.00    +0.000 A 
ATOM      8  C   UNL     1      45.560   3.695   8.574  0.00  0.00    +0.000 A 
ATOM      9  C   UNL     1      45.264   4.737   9.462  0.00  0.00    +0.000 A 
BRANCH   8  10
ATOM     10  C   UNL     1      46.411   3.944   7.350  0.00  0.00    +0.000 C 
BRANCH  10  11
ATOM     11  C   UNL     1      46.691   2.645   6.605  0.00  0.00    +0.000 C 
ATOM     12  C   UNL     1      47.977   1.871   6.950  0.00  0.00    +0.000 C 
ATOM     13  N   UNL     1      48.353   1.852   5.532  0.00  0.00    +0.000 NA
ATOM     14  C   UNL     1      47.309   2.831   5.205  0.00  0.00    +0.000 C 
ATOM     15  H   UNL     1      48.225   0.946   5.082  0.00  0.00    +0.000 HD
ENDBRANCH  10  11
ENDBRANCH   8  10
ENDBRANCH   1   4
BRANCH   1  16
ATOM     16  C   UNL     1      45.335   6.583  11.711  0.00  0.00    +0.000 C 
BRANCH  16  17
ATOM     17  N   UNL     1      46.562   5.852  12.054  0.00  0.00    +0.000 N 
ATOM     18  H   UNL     1      46.782   5.072  11.434  0.00  0.00    +0.000 HD
BRANCH  17  22
ATOM     19  C   UNL     1      47.949   5.081  15.955  0.00  0.00    +0.000 A 
ATOM     20  C   UNL     1      48.360   6.244  15.302  0.00  0.00    +0.000 A 
ATOM     21  C   UNL     1      47.886   6.528  14.014  0.00  0.00    +0.000 A 
ATOM     22  C   UNL     1      46.973   5.682  13.370  0.00  0.00    +0.000 A 
ATOM     23  C   UNL     1      46.577   4.518  14.040  0.00  0.00    +0.000 A 
ATOM     24  C   UNL     1      47.061   4.214  15.317  0.00  0.00    +0.000 A 
BRANCH  19  26
ATOM     25  N   UNL     1      47.593   4.144  18.174  0.00  0.00    +0.000 N 
ATOM     26  C   UNL     1      48.474   4.704  17.291  0.00  0.00    +0.000 C 
ATOM     27  O   UNL     1      49.650   4.856  17.588  0.00  0.00    +0.000 OA
ATOM     28  H   UNL     1      47.990   3.801  19.040  0.00  0.00    +0.000 HD
ATOM     29  H   UNL     1      46.701   3.771  17.885  0.00  0.00    +0.000 HD
ENDBRANCH  19  26
ENDBRANCH  17  22
ENDBRANCH  16  17
ENDBRANCH   1  16
TORSDOF 7
ENDMDL
MODEL 6
REMARK VINA RESULT:    -7.493      3.089      7.082
REMARK INTER + INTRA:         -11.752
REMARK INTER:                 -10.808
REMARK INTRA:                  -0.944
REMARK UNBOUND:                -1.193
REMARK  Name = 
REMARK  7 active torsions:
REMARK  status: ('A' for Active; 'I' for Inactive)
REMARK    1  A    between atoms: C_2  and  C_4
REMARK    2  A    between atoms: C_7  and  N_8
REMARK    3  A    between atoms: N_8  and  C_9
REMARK    4  A    between atoms: C_9  and  C_10
REMARK    5  A    between atoms: C_10  and  C_13
REMARK    6  A    between atoms: C_17  and  C_18
REMARK    7  A    between atoms: C_18  and  C_19
REMARK                            x       y       z     vdW  Elec       q    Type
REMARK                         _______ _______ _______ _____ _____    ______ ____
ROOT
ATOM      1  C   UNL     1      44.050   5.641  11.555  0.00  0.00    +0.000 C 
ATOM      2  F   UNL     1      42.730   5.618  11.903  0.00  0.00    +0.000 F 
ATOM      3  F   UNL     1      44.248   6.868  10.979  0.00  0.00    +0.000 F 
ENDROOT
BRANCH   1   4
ATOM      4  C   UNL     1      44.417   4.502  10.627  0.00  0.00    +0.000 A 
ATOM      5  C   UNL     1      43.889   3.220  10.837  0.00  0.00    +0.000 A 
ATOM      6  C   UNL     1      44.178   2.187   9.949  0.00  0.00    +0.000 A 
ATOM      7  C   UNL     1      44.999   2.423   8.846  0.00  0.00    +0.000 A 
ATOM      8  C   UNL     1      45.547   3.693   8.619  0.00  0.00    +0.000 A 
ATOM      9  C   UNL     1      45.248   4.728   9.515  0.00  0.00    +0.000 A 
BRANCH   8  10
ATOM     10  C   UNL     1      46.440   3.942   7.426  0.00  0.00    +0.000 C 
BRANCH  10  11
ATOM     11  C   UNL     1      46.713   2.648   6.669  0.00  0.00    +0.000 C 
ATOM     12  C   UNL     1      48.014   1.884   6.979  0.00  0.00    +0.000 C 
ATOM     13  N   UNL     1      48.356   1.874   5.552  0.00  0.00    +0.000 NA
ATOM     14  C   UNL     1      47.296   2.845   5.255  0.00  0.00    +0.000 C 
ATOM     15  H   UNL     1      48.225   0.969   5.101  0.00  0.00    +0.000 HD
ENDBRANCH  10  11
ENDBRANCH   8  10
ENDBRANCH   1   4
BRANCH   1  16
ATOM     16  C   UNL     1      44.917   5.567  12.837  0.00  0.00    +0.000 C 
BRANCH  16  17
ATOM     17  N   UNL     1      45.433   6.877  13.258  0.00  0.00    +0.000 N 
ATOM     18  H   UNL     1      44.728   7.609  13.334  0.00  0.00    +0.000 HD
BRANCH  17  22
ATOM     19  C   UNL     1      49.267   8.006  11.933  0.00  0.00    +0.000 A 
ATOM     20  C   UNL     1      48.214   8.916  11.830  0.00  0.00    +0.000 A 
ATOM     21  C   UNL     1      46.938   8.564  12.291  0.00  0.00    +0.000 A 
ATOM     22  C   UNL     1      46.696   7.321  12.891  0.00  0.00    +0.000 A 
ATOM     23  C   UNL     1      47.765   6.422  12.981  0.00  0.00    +0.000 A 
ATOM     24  C   UNL     1      49.038   6.753  12.504  0.00  0.00    +0.000 A 
BRANCH  19  26
ATOM     25  N   UNL     1      51.134   9.547  11.659  0.00  0.00    +0.000 N 
ATOM     26  C   UNL     1      50.619   8.307  11.400  0.00  0.00    +0.000 C 
ATOM     27  O   UNL     1      51.267   7.476  10.778  0.00  0.00    +0.000 OA
ATOM     28  H   UNL     1      52.093   9.697  11.377  0.00  0.00    +0.000 HD
ATOM     29  H   UNL     1      50.752  10.152  12.371  0.00  0.00    +0.000 HD
ENDBRANCH  19  26
ENDBRANCH  17  22
ENDBRANCH  16  17
ENDBRANCH   1  16
TORSDOF 7
ENDMDL
MODEL 7
REMARK VINA RESULT:    -7.237      2.535      3.595
REMARK INTER + INTRA:         -11.391
REMARK INTER:                 -10.837
REMARK INTRA:                  -0.554
REMARK UNBOUND:                -1.193
REMARK  Name = 
REMARK  7 active torsions:
REMARK  status: ('A' for Active; 'I' for Inactive)
REMARK    1  A    between atoms: C_2  and  C_4
REMARK    2  A    between atoms: C_7  and  N_8
REMARK    3  A    between atoms: N_8  and  C_9
REMARK    4  A    between atoms: C_9  and  C_10
REMARK    5  A    between atoms: C_10  and  C_13
REMARK    6  A    between atoms: C_17  and  C_18
REMARK    7  A    between atoms: C_18  and  C_19
REMARK                            x       y       z     vdW  Elec       q    Type
REMARK                         _______ _______ _______ _____ _____    ______ ____
ROOT
ATOM      1  C   UNL     1      44.963   6.394  11.445  0.00  0.00    +0.000 C 
ATOM      2  F   UNL     1      45.609   6.644  10.269  0.00  0.00    +0.000 F 
ATOM      3  F   UNL     1      44.163   7.486  11.654  0.00  0.00    +0.000 F 
ENDROOT
BRANCH   1   4
ATOM      4  C   UNL     1      45.927   6.158  12.589  0.00  0.00    +0.000 A 
ATOM      5  C   UNL     1      45.878   4.962  13.320  0.00  0.00    +0.000 A 
ATOM      6  C   UNL     1      46.804   4.720  14.332  0.00  0.00    +0.000 A 
ATOM      7  C   UNL     1      47.782   5.669  14.626  0.00  0.00    +0.000 A 
ATOM      8  C   UNL     1      47.846   6.877  13.917  0.00  0.00    +0.000 A 
ATOM      9  C   UNL     1      46.915   7.111  12.897  0.00  0.00    +0.000 A 
BRANCH   8  10
ATOM     10  C   UNL     1      48.905   7.904  14.243  0.00  0.00    +0.000 C 
BRANCH  10  11
ATOM     11  C   UNL     1      50.141   7.711  13.373  0.00  0.00    +0.000 C 
ATOM     12  C   UNL     1      51.051   8.928  13.122  0.00  0.00    +0.000 C 
ATOM     13  N   UNL     1      50.957   8.706  11.674  0.00  0.00    +0.000 NA
ATOM     14  C   UNL     1      49.866   7.740  11.857  0.00  0.00    +0.000 C 
ATOM     15  H   UNL     1      51.799   8.304  11.262  0.00  0.00    +0.000 HD
ENDBRANCH  10  11
ENDBRANCH   8  10
ENDBRANCH   1   4
BRANCH   1  16
ATOM     16  C   UNL     1      44.049   5.155  11.271  0.00  0.00    +0.000 C 
BRANCH  16  17
ATOM     17  N   UNL     1      43.771   4.839   9.863  0.00  0.00    +0.000 N 
ATOM     18  H   UNL     1      42.785   4.875   9.604  0.00  0.00    +0.000 HD
BRANCH  17  22
ATOM     19  C   UNL     1      46.307   2.155   7.838  0.00  0.00    +0.000 A 
ATOM     20  C   UNL     1      45.381   1.658   8.757  0.00  0.00    +0.000 A 
ATOM     21  C   UNL     1      44.512   2.536   9.419  0.00  0.00    +0.000 A 
ATOM     22  C   UNL     1      44.526   3.912   9.155  0.00  0.00    +0.000 A 
ATOM     23  C   UNL     1      45.464   4.391   8.234  0.00  0.00    +0.000 A 
ATOM     24  C   UNL     1      46.351   3.527   7.583  0.00  0.00    +0.000 A 
BRANCH  19  26
ATOM     25  N   UNL     1      48.369   1.877   6.572  0.00  0.00    +0.000 N 
ATOM     26  C   UNL     1      47.291   1.275   7.162  0.00  0.00    +0.000 C 
ATOM     27  O   UNL     1      47.169   0.058   7.152  0.00  0.00    +0.000 OA
ATOM     28  H   UNL     1      49.079   1.256   6.206  0.00  0.00    +0.000 HD
ATOM     29  H   UNL     1      48.635   2.828   6.777  0.00  0.00    +0.000 HD
ENDBRANCH  19  26
ENDBRANCH  17  22
ENDBRANCH  16  17
ENDBRANCH   1  16
TORSDOF 7
ENDMDL
MODEL 8
REMARK VINA RESULT:    -6.346      4.118      7.635
REMARK INTER + INTRA:         -10.135
REMARK INTER:                  -8.914
REMARK INTRA:                  -1.221
REMARK UNBOUND:                -1.193
REMARK  Name = 
REMARK  7 active torsions:
REMARK  status: ('A' for Active; 'I' for Inactive)
REMARK    1  A    between atoms: C_2  and  C_4
REMARK    2  A    between atoms: C_7  and  N_8
REMARK    3  A    between atoms: N_8  and  C_9
REMARK    4  A    between atoms: C_9  and  C_10
REMARK    5  A    between atoms: C_10  and  C_13
REMARK    6  A    between atoms: C_17  and  C_18
REMARK    7  A    between atoms: C_18  and  C_19
REMARK                            x       y       z     vdW  Elec       q    Type
REMARK                         _______ _______ _______ _____ _____    ______ ____
ROOT
ATOM      1  C   UNL     1      49.103   8.160  12.399  0.00  0.00    +0.000 C 
ATOM      2  F   UNL     1      49.683   9.097  11.593  0.00  0.00    +0.000 F 
ATOM      3  F   UNL     1      49.785   6.999  12.147  0.00  0.00    +0.000 F 
ENDROOT
BRANCH   1   4
ATOM      4  C   UNL     1      47.617   8.023  12.139  0.00  0.00    +0.000 A 
ATOM      5  C   UNL     1      46.768   9.128  12.293  0.00  0.00    +0.000 A 
ATOM      6  C   UNL     1      45.411   9.018  11.996  0.00  0.00    +0.000 A 
ATOM      7  C   UNL     1      44.891   7.804  11.547  0.00  0.00    +0.000 A 
ATOM      8  C   UNL     1      45.717   6.682  11.394  0.00  0.00    +0.000 A 
ATOM      9  C   UNL     1      47.081   6.803  11.690  0.00  0.00    +0.000 A 
BRANCH   8  10
ATOM     10  C   UNL     1      45.147   5.369  10.912  0.00  0.00    +0.000 C 
BRANCH  10  11
ATOM     11  C   UNL     1      44.560   4.570  12.069  0.00  0.00    +0.000 C 
ATOM     12  C   UNL     1      45.269   3.268  12.488  0.00  0.00    +0.000 C 
ATOM     13  N   UNL     1      44.005   2.533  12.365  0.00  0.00    +0.000 NA
ATOM     14  C   UNL     1      43.370   3.668  11.685  0.00  0.00    +0.000 C 
ATOM     15  H   UNL     1      43.577   2.294  13.258  0.00  0.00    +0.000 HD
ENDBRANCH  10  11
ENDBRANCH   8  10
ENDBRANCH   1   4
BRANCH   1  16
ATOM     16  C   UNL     1      49.339   8.544  13.881  0.00  0.00    +0.000 C 
BRANCH  16  17
ATOM     17  N   UNL     1      50.134   7.549  14.613  0.00  0.00    +0.000 N 
ATOM     18  H   UNL     1      50.945   7.194  14.106  0.00  0.00    +0.000 HD
BRANCH  17  22
ATOM     19  C   UNL     1      48.361   4.595  17.034  0.00  0.00    +0.000 A 
ATOM     20  C   UNL     1      49.623   5.085  17.370  0.00  0.00    +0.000 A 
ATOM     21  C   UNL     1      50.215   6.088  16.590  0.00  0.00    +0.000 A 
ATOM     22  C   UNL     1      49.551   6.641  15.487  0.00  0.00    +0.000 A 
ATOM     23  C   UNL     1      48.287   6.132  15.164  0.00  0.00    +0.000 A 
ATOM     24  C   UNL     1      47.696   5.117  15.923  0.00  0.00    +0.000 A 
BRANCH  19  26
ATOM     25  N   UNL     1      48.302   3.120  18.971  0.00  0.00    +0.000 N 
ATOM     26  C   UNL     1      47.721   3.489  17.789  0.00  0.00    +0.000 C 
ATOM     27  O   UNL     1      46.700   2.944  17.395  0.00  0.00    +0.000 OA
ATOM     28  H   UNL     1      47.796   2.437  19.521  0.00  0.00    +0.000 HD
ATOM     29  H   UNL     1      48.974   3.703  19.448  0.00  0.00    +0.000 HD
ENDBRANCH  19  26
ENDBRANCH  17  22
ENDBRANCH  16  17
ENDBRANCH   1  16
TORSDOF 7
ENDMDL
