MODEL 1
REMARK VINA RESULT:    -7.600      0.000      0.000
REMARK INTER + INTRA:         -10.210
REMARK INTER:                  -9.600
REMARK INTRA:                  -0.610
REMARK UNBOUND:                -0.610
REMARK  Name = 
REMARK  5 active torsions:
REMARK  status: ('A' for Active; 'I' for Inactive)
REMARK    1  A    between atoms: N_1  and  C_2
REMARK    2  A    between atoms: C_2  and  C_3
REMARK    3  A    between atoms: C_3  and  C_4
REMARK    4  A    between atoms: C_7  and  C_8
REMARK    5  A    between atoms: C_8  and  N_9
REMARK                            x       y       z     vdW  Elec       q    Type
REMARK                         _______ _______ _______ _____ _____    ______ ____
ROOT
ATOM      1  C   UNL     1      45.824   2.599   8.260  0.00  0.00    +0.000 A 
ATOM      2  C   UNL     1      44.941   1.990   9.158  0.00  0.00    +0.000 A 
ATOM      3  C   UNL     1      44.170   2.767  10.027  0.00  0.00    +0.000 A 
ATOM      4  C   UNL     1      44.260   4.160  10.024  0.00  0.00    +0.000 A 
ATOM      5  C   UNL     1      45.149   4.771   9.122  0.00  0.00    +0.000 A 
ATOM      6  C   UNL     1      45.911   3.995   8.241  0.00  0.00    +0.000 A 
ENDROOT
BRANCH   1   7
ATOM      7  C   UNL     1      46.671   1.766   7.331  0.00  0.00    +0.000 C 
BRANCH   7   8
ATOM      8  C   UNL     1      47.875   2.532   6.771  0.00  0.00    +0.000 C 
BRANCH   8   9
ATOM      9  N   UNL     1      48.535   1.765   5.713  0.00  0.00    +0.000 NA
ATOM     10  H   UNL     1      47.839   1.456   5.034  0.00  0.00    +0.000 HD
ATOM     11  H   UNL     1      48.948   0.920   6.104  0.00  0.00    +0.000 HD
ENDBRANCH   8   9
ENDBRANCH   7   8
ENDBRANCH   1   7
BRANCH   4  12
ATOM     12  C   UNL     1      43.424   4.994  10.963  0.00  0.00    +0.000 C 
BRANCH  12  13
ATOM     13  N   UNL     1      44.159   6.099  11.577  0.00  0.00    +0.000 N 
ATOM     14  C   UNL     1      44.105   7.393  11.129  0.00  0.00    +0.000 A 
ATOM     15  C   UNL     1      44.999   8.138  11.858  0.00  0.00    +0.000 A 
ATOM     16  C   UNL     1      45.815   7.221  12.564  0.00  0.00    +0.000 A 
ATOM     17  C   UNL     1      47.047   7.343  13.231  0.00  0.00    +0.000 A 
ATOM     18  C   UNL     1      47.601   6.210  13.819  0.00  0.00    +0.000 A 
ATOM     19  F   UNL     1      48.833   6.283  14.342  0.00  0.00    +0.000 F 
ATOM     20  C   UNL     1      46.917   5.003  13.858  0.00  0.00    +0.000 A 
ATOM     21  C   UNL     1      45.687   4.860  13.207  0.00  0.00    +0.000 A 
ATOM     22  C   UNL     1      45.195   5.966  12.491  0.00  0.00    +0.000 A 
ENDBRANCH  12  13
ENDBRANCH   4  12
TORSDOF 5
ENDMDL
MODEL 2
REMARK VINA RESULT:    -7.082      1.385      2.197
REMARK INTER + INTRA:          -9.555
REMARK INTER:                  -8.966
REMARK INTRA:                  -0.590
REMARK UNBOUND:                -0.610
REMARK  Name = 
REMARK  5 active torsions:
REMARK  status: ('A' for Active; 'I' for Inactive)
REMARK    1  A    between atoms: N_1  and  C_2
REMARK    2  A    between atoms: C_2  and  C_3
REMARK    3  A    between atoms: C_3  and  C_4
REMARK    4  A    between atoms: C_7  and  C_8
REMARK    5  A    between atoms: C_8  and  N_9
REMARK                            x       y       z     vdW  Elec       q    Type
REMARK                         _______ _______ _______ _____ _____    ______ ____
ROOT
ATOM      1  C   UNL     1      45.854   2.985   7.777  0.00  0.00    +0.000 A 
ATOM      2  C   UNL     1      45.254   2.321   8.853  0.00  0.00    +0.000 A 
ATOM      3  C   UNL     1      44.905   3.023  10.009  0.00  0.00    +0.000 A 
ATOM      4  C   UNL     1      45.143   4.393  10.124  0.00  0.00    +0.000 A 
ATOM      5  C   UNL     1      45.747   5.060   9.042  0.00  0.00    +0.000 A 
ATOM      6  C   UNL     1      46.084   4.362   7.878  0.00  0.00    +0.000 A 
ENDROOT
BRANCH   1   7
ATOM      7  C   UNL     1      46.248   2.231   6.532  0.00  0.00    +0.000 C 
BRANCH   7   8
ATOM      8  C   UNL     1      47.522   1.399   6.716  0.00  0.00    +0.000 C 
BRANCH   8   9
ATOM      9  N   UNL     1      48.557   1.812   5.765  0.00  0.00    +0.000 NA
ATOM     10  H   UNL     1      49.357   2.185   6.275  0.00  0.00    +0.000 HD
ATOM     11  H   UNL     1      48.209   2.572   5.184  0.00  0.00    +0.000 HD
ENDBRANCH   8   9
ENDBRANCH   7   8
ENDBRANCH   1   7
BRANCH   4  12
ATOM     12  C   UNL     1      44.763   5.147  11.375  0.00  0.00    +0.000 C 
BRANCH  12  13
ATOM     13  N   UNL     1      45.801   5.138  12.403  0.00  0.00    +0.000 N 
ATOM     14  C   UNL     1      45.737   4.385  13.547  0.00  0.00    +0.000 A 
ATOM     15  C   UNL     1      46.815   4.705  14.334  0.00  0.00    +0.000 A 
ATOM     16  C   UNL     1      47.386   5.880  13.787  0.00  0.00    +0.000 A 
ATOM     17  C   UNL     1      48.299   6.828  14.282  0.00  0.00    +0.000 A 
ATOM     18  C   UNL     1      48.645   7.905  13.472  0.00  0.00    +0.000 A 
ATOM     19  F   UNL     1      49.411   8.882  13.978  0.00  0.00    +0.000 F 
ATOM     20  C   UNL     1      48.198   8.002  12.161  0.00  0.00    +0.000 A 
ATOM     21  C   UNL     1      47.294   7.067  11.646  0.00  0.00    +0.000 A 
ATOM     22  C   UNL     1      46.835   6.058  12.511  0.00  0.00    +0.000 A 
ENDBRANCH  12  13
ENDBRANCH   4  12
TORSDOF 5
ENDMDL
MODEL 3
REMARK VINA RESULT:    -6.727      2.793      6.378
REMARK INTER + INTRA:          -9.106
REMARK INTER:                  -8.410
REMARK INTRA:                  -0.697
REMARK UNBOUND:                -0.610
REMARK  Name = 
REMARK  5 active torsions:
REMARK  status: ('A' for Active; 'I' for Inactive)
REMARK    1  A    between atoms: N_1  and  C_2
REMARK    2  A    between atoms: C_2  and  C_3
REMARK    3  A    between atoms: C_3  and  C_4
REMARK    4  A    between atoms: C_7  and  C_8
REMARK    5  A    between atoms: C_8  and  N_9
REMARK                            x       y       z     vdW  Elec       q    Type
REMARK                         _______ _______ _______ _____ _____    ______ ____
ROOT
ATOM      1  C   UNL     1      47.158   6.106  13.093  0.00  0.00    +0.000 A 
ATOM      2  C   UNL     1      46.950   6.792  11.892  0.00  0.00    +0.000 A 
ATOM      3  C   UNL     1      45.963   6.369  10.998  0.00  0.00    +0.000 A 
ATOM      4  C   UNL     1      45.166   5.257  11.274  0.00  0.00    +0.000 A 
ATOM      5  C   UNL     1      45.377   4.566  12.481  0.00  0.00    +0.000 A 
ATOM      6  C   UNL     1      46.354   4.998  13.384  0.00  0.00    +0.000 A 
ENDROOT
BRANCH   1   7
ATOM      7  C   UNL     1      48.231   6.547  14.055  0.00  0.00    +0.000 C 
BRANCH   7   8
ATOM      8  C   UNL     1      49.011   7.771  13.560  0.00  0.00    +0.000 C 
BRANCH   8   9
ATOM      9  N   UNL     1      50.452   7.510  13.571  0.00  0.00    +0.000 NA
ATOM     10  H   UNL     1      50.849   7.762  12.666  0.00  0.00    +0.000 HD
ATOM     11  H   UNL     1      50.623   6.513  13.691  0.00  0.00    +0.000 HD
ENDBRANCH   8   9
ENDBRANCH   7   8
ENDBRANCH   1   7
BRANCH   4  12
ATOM     12  C   UNL     1      44.101   4.804  10.305  0.00  0.00    +0.000 C 
BRANCH  12  13
ATOM     13  N   UNL     1      44.435   3.566   9.605  0.00  0.00    +0.000 N 
ATOM     14  C   UNL     1      44.078   2.319  10.048  0.00  0.00    +0.000 A 
ATOM     15  C   UNL     1      44.649   1.387   9.217  0.00  0.00    +0.000 A 
ATOM     16  C   UNL     1      45.604   2.074   8.427  0.00  0.00    +0.000 A 
ATOM     17  C   UNL     1      46.676   1.648   7.624  0.00  0.00    +0.000 A 
ATOM     18  C   UNL     1      47.451   2.609   6.983  0.00  0.00    +0.000 A 
ATOM     19  F   UNL     1      48.552   2.224   6.322  0.00  0.00    +0.000 F 
ATOM     20  C   UNL     1      47.123   3.957   7.030  0.00  0.00    +0.000 A 
ATOM     21  C   UNL     1      46.057   4.403   7.818  0.00  0.00    +0.000 A 
ATOM     22  C   UNL     1      45.362   3.446   8.579  0.00  0.00    +0.000 A 
ENDBRANCH  12  13
ENDBRANCH   4  12
TORSDOF 5
ENDMDL
MODEL 4
REMARK VINA RESULT:    -6.668      2.777      6.374
REMARK INTER + INTRA:          -9.032
REMARK INTER:                  -8.380
REMARK INTRA:                  -0.653
REMARK UNBOUND:                -0.610
REMARK  Name = 
REMARK  5 active torsions:
REMARK  status: ('A' for Active; 'I' for Inactive)
REMARK    1  A    between atoms: N_1  and  C_2
REMARK    2  A    between atoms: C_2  and  C_3
REMARK    3  A    between atoms: C_3  and  C_4
REMARK    4  A    between atoms: C_7  and  C_8
REMARK    5  A    between atoms: C_8  and  N_9
REMARK                            x       y       z     vdW  Elec       q    Type
REMARK                         _______ _______ _______ _____ _____    ______ ____
ROOT
ATOM      1  C   UNL     1      47.898   6.511  13.326  0.00  0.00    +0.000 A 
ATOM      2  C   UNL     1      46.956   5.585  13.787  0.00  0.00    +0.000 A 
ATOM      3  C   UNL     1      45.807   5.315  13.040  0.00  0.00    +0.000 A 
ATOM      4  C   UNL     1      45.567   5.958  11.824  0.00  0.00    +0.000 A 
ATOM      5  C   UNL     1      46.513   6.890  11.362  0.00  0.00    +0.000 A 
ATOM      6  C   UNL     1      47.673   7.150  12.101  0.00  0.00    +0.000 A 
ENDROOT
BRANCH   1   7
ATOM      7  C   UNL     1      49.133   6.819  14.134  0.00  0.00    +0.000 C 
BRANCH   7   8
ATOM      8  C   UNL     1      48.895   6.731  15.646  0.00  0.00    +0.000 C 
BRANCH   8   9
ATOM      9  N   UNL     1      49.600   5.582  16.219  0.00  0.00    +0.000 NA
ATOM     10  H   UNL     1      50.284   5.234  15.548  0.00  0.00    +0.000 HD
ATOM     11  H   UNL     1      48.945   4.819  16.381  0.00  0.00    +0.000 HD
ENDBRANCH   8   9
ENDBRANCH   7   8
ENDBRANCH   1   7
BRANCH   4  12
ATOM     12  C   UNL     1      44.324   5.663  11.021  0.00  0.00    +0.000 C 
BRANCH  12  13
ATOM     13  N   UNL     1      44.293   4.312  10.463  0.00  0.00    +0.000 N 
ATOM     14  C   UNL     1      43.770   3.228  11.117  0.00  0.00    +0.000 A 
ATOM     15  C   UNL     1      44.010   2.109  10.358  0.00  0.00    +0.000 A 
ATOM     16  C   UNL     1      44.947   2.485   9.364  0.00  0.00    +0.000 A 
ATOM     17  C   UNL     1      45.776   1.751   8.496  0.00  0.00    +0.000 A 
ATOM     18  C   UNL     1      46.617   2.447   7.633  0.00  0.00    +0.000 A 
ATOM     19  F   UNL     1      47.503   1.764   6.895  0.00  0.00    +0.000 F 
ATOM     20  C   UNL     1      46.573   3.831   7.534  0.00  0.00    +0.000 A 
ATOM     21  C   UNL     1      45.752   4.580   8.383  0.00  0.00    +0.000 A 
ATOM     22  C   UNL     1      45.008   3.884   9.352  0.00  0.00    +0.000 A 
ENDBRANCH  12  13
ENDBRANCH   4  12
TORSDOF 5
ENDMDL
MODEL 5
REMARK VINA RESULT:    -6.602      1.787      2.790
REMARK INTER + INTRA:          -8.949
REMARK INTER:                  -8.420
REMARK INTRA:                  -0.529
REMARK UNBOUND:                -0.610
REMARK  Name = 
REMARK  5 active torsions:
REMARK  status: ('A' for Active; 'I' for Inactive)
REMARK    1  A    between atoms: N_1  and  C_2
REMARK    2  A    between atoms: C_2  and  C_3
REMARK    3  A    between atoms: C_3  and  C_4
REMARK    4  A    between atoms: C_7  and  C_8
REMARK    5  A    between atoms: C_8  and  N_9
REMARK                            x       y       z     vdW  Elec       q    Type
REMARK                         _______ _______ _______ _____ _____    ______ ____
ROOT
ATOM      1  C   UNL     1      45.871   2.759   8.030  0.00  0.00    +0.000 A 
ATOM      2  C   UNL     1      45.291   2.062   9.096  0.00  0.00    +0.000 A 
ATOM      3  C   UNL     1      44.729   2.756  10.171  0.00  0.00    +0.000 A 
ATOM      4  C   UNL     1      44.732   4.151  10.213  0.00  0.00    +0.000 A 
ATOM      5  C   UNL     1      45.318   4.851   9.142  0.00  0.00    +0.000 A 
ATOM      6  C   UNL     1      45.867   4.158   8.058  0.00  0.00    +0.000 A 
ENDROOT
BRANCH   1   7
ATOM      7  C   UNL     1      46.493   2.017   6.875  0.00  0.00    +0.000 C 
BRANCH   7   8
ATOM      8  C   UNL     1      47.889   2.537   6.513  0.00  0.00    +0.000 C 
BRANCH   8   9
ATOM      9  N   UNL     1      48.525   1.673   5.516  0.00  0.00    +0.000 NA
ATOM     10  H   UNL     1      49.536   1.693   5.644  0.00  0.00    +0.000 HD
ATOM     11  H   UNL     1      48.348   2.036   4.580  0.00  0.00    +0.000 HD
ENDBRANCH   8   9
ENDBRANCH   7   8
ENDBRANCH   1   7
BRANCH   4  12
ATOM     12  C   UNL     1      44.124   4.895  11.376  0.00  0.00    +0.000 C 
BRANCH  12  13
ATOM     13  N   UNL     1      44.999   5.923  11.936  0.00  0.00    +0.000 N 
ATOM     14  C   UNL     1      45.856   5.708  12.983  0.00  0.00    +0.000 A 
ATOM     15  C   UNL     1      46.433   6.908  13.322  0.00  0.00    +0.000 A 
ATOM     16  C   UNL     1      45.695   7.917  12.655  0.00  0.00    +0.000 A 
ATOM     17  C   UNL     1      45.611   9.312  12.813  0.00  0.00    +0.000 A 
ATOM     18  C   UNL     1      44.751  10.025  11.984  0.00  0.00    +0.000 A 
ATOM     19  F   UNL     1      44.563  11.333  12.210  0.00  0.00    +0.000 F 
ATOM     20  C   UNL     1      44.068   9.410  10.944  0.00  0.00    +0.000 A 
ATOM     21  C   UNL     1      44.142   8.025  10.764  0.00  0.00    +0.000 A 
ATOM     22  C   UNL     1      44.899   7.286  11.690  0.00  0.00    +0.000 A 
ENDBRANCH  12  13
ENDBRANCH   4  12
TORSDOF 5
ENDMDL
MODEL 6
REMARK VINA RESULT:    -6.400      1.122      1.215
REMARK INTER + INTRA:          -8.694
REMARK INTER:                  -8.285
REMARK INTRA:                  -0.409
REMARK UNBOUND:                -0.610
REMARK  Name = 
REMARK  5 active torsions:
REMARK  status: ('A' for Active; 'I' for Inactive)
REMARK    1  A    between atoms: N_1  and  C_2
REMARK    2  A    between atoms: C_2  and  C_3
REMARK    3  A    between atoms: C_3  and  C_4
REMARK    4  A    between atoms: C_7  and  C_8
REMARK    5  A    between atoms: C_8  and  N_9
REMARK                            x       y       z     vdW  Elec       q    Type
REMARK                         _______ _______ _______ _____ _____    ______ ____
ROOT
ATOM      1  C   UNL     1      45.651   3.186   8.091  0.00  0.00    +0.000 A 
ATOM      2  C   UNL     1      44.687   2.579   8.905  0.00  0.00    +0.000 A 
ATOM      3  C   UNL     1      44.153   3.265   9.999  0.00  0.00    +0.000 A 
ATOM      4  C   UNL     1      44.563   4.563  10.309  0.00  0.00    +0.000 A 
ATOM      5  C   UNL     1      45.533   5.171   9.492  0.00  0.00    +0.000 A 
ATOM      6  C   UNL     1      46.057   4.492   8.387  0.00  0.00    +0.000 A 
ENDROOT
BRANCH   1   7
ATOM      7  C   UNL     1      46.243   2.446   6.919  0.00  0.00    +0.000 C 
BRANCH   7   8
ATOM      8  C   UNL     1      47.421   1.548   7.313  0.00  0.00    +0.000 C 
BRANCH   8   9
ATOM      9  N   UNL     1      46.968   0.182   7.585  0.00  0.00    +0.000 NA
ATOM     10  H   UNL     1      46.630   0.121   8.545  0.00  0.00    +0.000 HD
ATOM     11  H   UNL     1      47.754  -0.463   7.517  0.00  0.00    +0.000 HD
ENDBRANCH   8   9
ENDBRANCH   7   8
ENDBRANCH   1   7
BRANCH   4  12
ATOM     12  C   UNL     1      43.982   5.299  11.492  0.00  0.00    +0.000 C 
BRANCH  12  13
ATOM     13  N   UNL     1      44.694   6.533  11.820  0.00  0.00    +0.000 N 
ATOM     14  C   UNL     1      44.342   7.768  11.342  0.00  0.00    +0.000 A 
ATOM     15  C   UNL     1      45.286   8.675  11.755  0.00  0.00    +0.000 A 
ATOM     16  C   UNL     1      46.382   7.926  12.251  0.00  0.00    +0.000 A 
ATOM     17  C   UNL     1      47.719   8.253  12.540  0.00  0.00    +0.000 A 
ATOM     18  C   UNL     1      48.563   7.249  13.007  0.00  0.00    +0.000 A 
ATOM     19  F   UNL     1      49.868   7.515  13.162  0.00  0.00    +0.000 F 
ATOM     20  C   UNL     1      48.089   5.976  13.294  0.00  0.00    +0.000 A 
ATOM     21  C   UNL     1      46.762   5.632  13.020  0.00  0.00    +0.000 A 
ATOM     22  C   UNL     1      45.946   6.605  12.416  0.00  0.00    +0.000 A 
ENDBRANCH  12  13
ENDBRANCH   4  12
TORSDOF 5
ENDMDL
MODEL 7
REMARK VINA RESULT:    -6.358      2.899      5.770
REMARK INTER + INTRA:          -8.641
REMARK INTER:                  -8.035
REMARK INTRA:                  -0.606
REMARK UNBOUND:                -0.610
REMARK  Name = 
REMARK  5 active torsions:
REMARK  status: ('A' for Active; 'I' for Inactive)
REMARK    1  A    between atoms: N_1  and  C_2
REMARK    2  A    between atoms: C_2  and  C_3
REMARK    3  A    between atoms: C_3  and  C_4
REMARK    4  A    between atoms: C_7  and  C_8
REMARK    5  A    between atoms: C_8  and  N_9
REMARK                            x       y       z     vdW  Elec       q    Type
REMARK                         _______ _______ _______ _____ _____    ______ ____
ROOT
ATOM      1  C   UNL     1      48.201   7.176  12.619  0.00  0.00    +0.000 A 
ATOM      2  C   UNL     1      47.813   5.904  13.054  0.00  0.00    +0.000 A 
ATOM      3  C   UNL     1      46.474   5.511  12.983  0.00  0.00    +0.000 A 
ATOM      4  C   UNL     1      45.494   6.369  12.482  0.00  0.00    +0.000 A 
ATOM      5  C   UNL     1      45.885   7.648  12.046  0.00  0.00    +0.000 A 
ATOM      6  C   UNL     1      47.227   8.038  12.102  0.00  0.00    +0.000 A 
ENDROOT
BRANCH   1   7
ATOM      7  C   UNL     1      49.641   7.613  12.708  0.00  0.00    +0.000 C 
BRANCH   7   8
ATOM      8  C   UNL     1      50.300   7.783  11.335  0.00  0.00    +0.000 C 
BRANCH   8   9
ATOM      9  N   UNL     1      51.700   7.356  11.371  0.00  0.00    +0.000 NA
ATOM     10  H   UNL     1      52.167   7.791  12.167  0.00  0.00    +0.000 HD
ATOM     11  H   UNL     1      52.185   7.687  10.539  0.00  0.00    +0.000 HD
ENDBRANCH   8   9
ENDBRANCH   7   8
ENDBRANCH   1   7
BRANCH   4  12
ATOM     12  C   UNL     1      44.049   5.939  12.406  0.00  0.00    +0.000 C 
BRANCH  12  13
ATOM     13  N   UNL     1      43.857   4.639  11.769  0.00  0.00    +0.000 N 
ATOM     14  C   UNL     1      43.423   3.520  12.432  0.00  0.00    +0.000 A 
ATOM     15  C   UNL     1      43.467   2.459  11.561  0.00  0.00    +0.000 A 
ATOM     16  C   UNL     1      44.213   2.886  10.435  0.00  0.00    +0.000 A 
ATOM     17  C   UNL     1      44.830   2.201   9.373  0.00  0.00    +0.000 A 
ATOM     18  C   UNL     1      45.520   2.940   8.416  0.00  0.00    +0.000 A 
ATOM     19  F   UNL     1      46.221   2.293   7.474  0.00  0.00    +0.000 F 
ATOM     20  C   UNL     1      45.516   4.328   8.428  0.00  0.00    +0.000 A 
ATOM     21  C   UNL     1      44.903   5.030   9.471  0.00  0.00    +0.000 A 
ATOM     22  C   UNL     1      44.329   4.280  10.514  0.00  0.00    +0.000 A 
ENDBRANCH  12  13
ENDBRANCH   4  12
TORSDOF 5
ENDMDL
MODEL 8
REMARK VINA RESULT:    -5.371      5.250      7.966
REMARK INTER + INTRA:          -7.394
REMARK INTER:                  -6.946
REMARK INTRA:                  -0.448
REMARK UNBOUND:                -0.610
REMARK  Name = 
REMARK  5 active torsions:
REMARK  status: ('A' for Active; 'I' for Inactive)
REMARK    1  A    between atoms: N_1  and  C_2
REMARK    2  A    between atoms: C_2  and  C_3
REMARK    3  A    between atoms: C_3  and  C_4
REMARK    4  A    between atoms: C_7  and  C_8
REMARK    5  A    between atoms: C_8  and  N_9
REMARK                            x       y       z     vdW  Elec       q    Type
REMARK                         _______ _______ _______ _____ _____    ______ ____
ROOT
ATOM      1  C   UNL     1      51.640   2.706  17.728  0.00  0.00    +0.000 A 
ATOM      2  C   UNL     1      50.533   1.991  17.260  0.00  0.00    +0.000 A 
ATOM      3  C   UNL     1      49.353   2.657  16.922  0.00  0.00    +0.000 A 
ATOM      4  C   UNL     1      49.245   4.044  17.041  0.00  0.00    +0.000 A 
ATOM      5  C   UNL     1      50.359   4.762  17.514  0.00  0.00    +0.000 A 
ATOM      6  C   UNL     1      51.546   4.098  17.838  0.00  0.00    +0.000 A 
ENDROOT
BRANCH   1   7
ATOM      7  C   UNL     1      52.911   1.992  18.111  0.00  0.00    +0.000 C 
BRANCH   7   8
ATOM      8  C   UNL     1      53.069   0.636  17.413  0.00  0.00    +0.000 C 
BRANCH   8   9
ATOM      9  N   UNL     1      53.042  -0.458  18.385  0.00  0.00    +0.000 NA
ATOM     10  H   UNL     1      52.140  -0.931  18.339  0.00  0.00    +0.000 HD
ATOM     11  H   UNL     1      53.121  -0.084  19.330  0.00  0.00    +0.000 HD
ENDBRANCH   8   9
ENDBRANCH   7   8
ENDBRANCH   1   7
BRANCH   4  12
ATOM     12  C   UNL     1      47.969   4.759  16.673  0.00  0.00    +0.000 C 
BRANCH  12  13
ATOM     13  N   UNL     1      48.038   5.461  15.393  0.00  0.00    +0.000 N 
ATOM     14  C   UNL     1      48.588   6.706  15.234  0.00  0.00    +0.000 A 
ATOM     15  C   UNL     1      48.381   7.106  13.937  0.00  0.00    +0.000 A 
ATOM     16  C   UNL     1      47.437   6.209  13.379  0.00  0.00    +0.000 A 
ATOM     17  C   UNL     1      46.631   6.252  12.227  0.00  0.00    +0.000 A 
ATOM     18  C   UNL     1      45.775   5.185  11.974  0.00  0.00    +0.000 A 
ATOM     19  F   UNL     1      44.909   5.272  10.954  0.00  0.00    +0.000 F 
ATOM     20  C   UNL     1      45.781   4.044  12.765  0.00  0.00    +0.000 A 
ATOM     21  C   UNL     1      46.579   3.977  13.911  0.00  0.00    +0.000 A 
ATOM     22  C   UNL     1      47.338   5.112  14.246  0.00  0.00    +0.000 A 
ENDBRANCH  12  13
ENDBRANCH   4  12
TORSDOF 5
ENDMDL
MODEL 9
REMARK VINA RESULT:    -5.216      3.322      5.279
REMARK INTER + INTRA:          -7.198
REMARK INTER:                  -6.624
REMARK INTRA:                  -0.575
REMARK UNBOUND:                -0.610
REMARK  Name = 
REMARK  5 active torsions:
REMARK  status: ('A' for Active; 'I' for Inactive)
REMARK    1  A    between atoms: N_1  and  C_2
REMARK    2  A    between atoms: C_2  and  C_3
REMARK    3  A    between atoms: C_3  and  C_4
REMARK    4  A    between atoms: C_7  and  C_8
REMARK    5  A    between atoms: C_8  and  N_9
REMARK                            x       y       z     vdW  Elec       q    Type
REMARK                         _______ _______ _______ _____ _____    ______ ____
ROOT
ATOM      1  C   UNL     1      44.948   5.091  11.836  0.00  0.00    +0.000 A 
ATOM      2  C   UNL     1      45.509   4.532  12.989  0.00  0.00    +0.000 A 
ATOM      3  C   UNL     1      46.698   5.043  13.516  0.00  0.00    +0.000 A 
ATOM      4  C   UNL     1      47.355   6.116  12.910  0.00  0.00    +0.000 A 
ATOM      5  C   UNL     1      46.791   6.676  11.749  0.00  0.00    +0.000 A 
ATOM      6  C   UNL     1      45.593   6.175  11.230  0.00  0.00    +0.000 A 
ENDROOT
BRANCH   1   7
ATOM      7  C   UNL     1      43.674   4.533  11.253  0.00  0.00    +0.000 C 
BRANCH   7   8
ATOM      8  C   UNL     1      43.813   3.076  10.798  0.00  0.00    +0.000 C 
BRANCH   8   9
ATOM      9  N   UNL     1      43.053   2.182  11.673  0.00  0.00    +0.000 NA
ATOM     10  H   UNL     1      42.340   2.717  12.169  0.00  0.00    +0.000 HD
ATOM     11  H   UNL     1      43.666   1.792  12.387  0.00  0.00    +0.000 HD
ENDBRANCH   8   9
ENDBRANCH   7   8
ENDBRANCH   1   7
BRANCH   4  12
ATOM     12  C   UNL     1      48.638   6.665  13.483  0.00  0.00    +0.000 C 
BRANCH  12  13
ATOM     13  N   UNL     1      48.454   7.411  14.726  0.00  0.00    +0.000 N 
ATOM     14  C   UNL     1      48.299   8.771  14.784  0.00  0.00    +0.000 A 
ATOM     15  C   UNL     1      48.267   9.145  16.105  0.00  0.00    +0.000 A 
ATOM     16  C   UNL     1      48.698   8.025  16.857  0.00  0.00    +0.000 A 
ATOM     17  C   UNL     1      49.140   7.867  18.183  0.00  0.00    +0.000 A 
ATOM     18  C   UNL     1      49.520   6.598  18.611  0.00  0.00    +0.000 A 
ATOM     19  F   UNL     1      50.064   6.457  19.828  0.00  0.00    +0.000 F 
ATOM     20  C   UNL     1      49.368   5.482  17.800  0.00  0.00    +0.000 A 
ATOM     21  C   UNL     1      48.925   5.615  16.481  0.00  0.00    +0.000 A 
ATOM     22  C   UNL     1      48.676   6.914  16.003  0.00  0.00    +0.000 A 
ENDBRANCH  12  13
ENDBRANCH   4  12
TORSDOF 5
ENDMDL
