MODEL 1
REMARK VINA RESULT:    -8.355      0.000      0.000
REMARK INTER + INTRA:         -12.847
REMARK INTER:                 -11.774
REMARK INTRA:                  -1.073
REMARK UNBOUND:                -1.073
REMARK  Name = 
REMARK  8 active torsions:
REMARK  status: ('A' for Active; 'I' for Inactive)
REMARK    1  A    between atoms: C_1  and  C_2
REMARK    2  A    between atoms: N_4  and  C_5
REMARK    3  A    between atoms: C_7  and  C_8
REMARK    4  A    between atoms: C_8  and  C_9
REMARK    5  A    between atoms: C_9  and  N_10
REMARK    6  A    between atoms: N_10  and  C_11
REMARK    7  A    between atoms: C_14  and  C_15
REMARK    8  A    between atoms: C_21  and  C_22
REMARK                            x       y       z     vdW  Elec       q    Type
REMARK                         _______ _______ _______ _____ _____    ______ ____
ROOT
ATOM      1  C   UNL     1      46.641   6.923  12.586  0.00  0.00    +0.000 A 
ATOM      2  C   UNL     1      45.309   6.673  12.231  0.00  0.00    +0.000 A 
ATOM      3  C   UNL     1      44.572   5.620  12.805  0.00  0.00    +0.000 A 
ATOM      4  C   UNL     1      45.181   4.803  13.766  0.00  0.00    +0.000 A 
ATOM      5  C   UNL     1      46.505   5.031  14.155  0.00  0.00    +0.000 A 
ATOM      6  C   UNL     1      47.209   6.092  13.564  0.00  0.00    +0.000 A 
ENDROOT
BRANCH   1  10
ATOM      7  C   UNL     1      51.162   8.326  11.453  0.00  0.00    +0.000 C 
ATOM      8  C   UNL     1      49.852   8.345  12.232  0.00  0.00    +0.000 C 
ATOM      9  C   UNL     1      48.715   7.707  11.402  0.00  0.00    +0.000 C 
ATOM     10  N   UNL     1      47.399   7.931  12.022  0.00  0.00    +0.000 N 
ATOM     11  C   UNL     1      47.157   9.324  12.442  0.00  0.00    +0.000 C 
ATOM     12  C   UNL     1      48.342   9.833  13.277  0.00  0.00    +0.000 C 
ATOM     13  O   UNL     1      49.572   9.723  12.547  0.00  0.00    +0.000 OA
ENDBRANCH   1  10
BRANCH   5  14
ATOM     14  C   UNL     1      47.194   4.157  15.171  0.00  0.00    +0.000 C 
ATOM     15  F   UNL     1      47.544   2.931  14.688  0.00  0.00    +0.000 F 
ATOM     16  F   UNL     1      48.349   4.713  15.635  0.00  0.00    +0.000 F 
ATOM     17  F   UNL     1      46.427   3.920  16.271  0.00  0.00    +0.000 F 
ENDBRANCH   5  14
BRANCH   3  18
ATOM     18  C   UNL     1      43.175   5.301  12.319  0.00  0.00    +0.000 C 
BRANCH  18  19
ATOM     19  C   UNL     1      43.229   4.227  11.226  0.00  0.00    +0.000 C 
BRANCH  19  20
ATOM     20  N   UNL     1      43.697   4.774   9.946  0.00  0.00    +0.000 N 
ATOM     21  H   UNL     1      44.050   5.726  10.033  0.00  0.00    +0.000 HD
BRANCH  20  22
ATOM     22  C   UNL     1      44.572   3.963   9.197  0.00  0.00    +0.000 A 
ATOM     23  C   UNL     1      45.506   4.480   8.295  0.00  0.00    +0.000 A 
ATOM     24  C   UNL     1      46.390   3.640   7.620  0.00  0.00    +0.000 A 
ATOM     25  C   UNL     1      46.342   2.283   7.889  0.00  0.00    +0.000 A 
ATOM     26  N   UNL     1      45.490   1.723   8.792  0.00  0.00    +0.000 NA
ATOM     27  C   UNL     1      44.651   2.583   9.428  0.00  0.00    +0.000 A 
BRANCH  25  28
ATOM     28  C   UNL     1      47.279   1.363   7.171  0.00  0.00    +0.000 C 
ATOM     29  N   UNL     1      48.377   1.954   6.614  0.00  0.00    +0.000 N 
ATOM     30  O   UNL     1      47.084   0.155   7.083  0.00  0.00    +0.000 OA
ATOM     31  H   UNL     1      48.496   2.958   6.690  0.00  0.00    +0.000 HD
ATOM     32  H   UNL     1      49.035   1.392   6.094  0.00  0.00    +0.000 HD
ENDBRANCH  25  28
ENDBRANCH  20  22
ENDBRANCH  19  20
ENDBRANCH  18  19
ENDBRANCH   3  18
TORSDOF 7
ENDMDL
MODEL 2
REMARK VINA RESULT:    -8.344      3.034      4.314
REMARK INTER + INTRA:         -12.832
REMARK INTER:                 -11.758
REMARK INTRA:                  -1.074
REMARK UNBOUND:                -1.073
REMARK  Name = 
REMARK  8 active torsions:
REMARK  status: ('A' for Active; 'I' for Inactive)
REMARK    1  A    between atoms: C_1  and  C_2
REMARK    2  A    between atoms: N_4  and  C_5
REMARK    3  A    between atoms: C_7  and  C_8
REMARK    4  A    between atoms: C_8  and  C_9
REMARK    5  A    between atoms: C_9  and  N_10
REMARK    6  A    between atoms: N_10  and  C_11
REMARK    7  A    between atoms: C_14  and  C_15
REMARK    8  A    between atoms: C_21  and  C_22
REMARK                            x       y       z     vdW  Elec       q    Type
REMARK                         _______ _______ _______ _____ _____    ______ ____
ROOT
ATOM      1  C   UNL     1      47.515   5.218  15.068  0.00  0.00    +0.000 A 
ATOM      2  C   UNL     1      46.585   4.392  14.423  0.00  0.00    +0.000 A 
ATOM      3  C   UNL     1      46.167   4.637  13.101  0.00  0.00    +0.000 A 
ATOM      4  C   UNL     1      46.700   5.730  12.405  0.00  0.00    +0.000 A 
ATOM      5  C   UNL     1      47.640   6.567  13.013  0.00  0.00    +0.000 A 
ATOM      6  C   UNL     1      48.037   6.292  14.331  0.00  0.00    +0.000 A 
ENDROOT
BRANCH   1  10
ATOM      7  C   UNL     1      51.260   5.618  18.151  0.00  0.00    +0.000 C 
ATOM      8  C   UNL     1      50.249   4.887  17.276  0.00  0.00    +0.000 C 
ATOM      9  C   UNL     1      49.018   5.781  17.004  0.00  0.00    +0.000 C 
ATOM     10  N   UNL     1      47.926   5.021  16.373  0.00  0.00    +0.000 N 
ATOM     11  C   UNL     1      47.629   3.733  17.026  0.00  0.00    +0.000 C 
ATOM     12  C   UNL     1      48.924   2.931  17.219  0.00  0.00    +0.000 C 
ATOM     13  O   UNL     1      49.888   3.680  17.974  0.00  0.00    +0.000 OA
ENDBRANCH   1  10
BRANCH   5  14
ATOM     14  C   UNL     1      48.217   7.762  12.298  0.00  0.00    +0.000 C 
ATOM     15  F   UNL     1      47.343   8.801  12.180  0.00  0.00    +0.000 F 
ATOM     16  F   UNL     1      49.309   8.270  12.936  0.00  0.00    +0.000 F 
ATOM     17  F   UNL     1      48.626   7.473  11.032  0.00  0.00    +0.000 F 
ENDBRANCH   5  14
BRANCH   3  18
ATOM     18  C   UNL     1      45.076   3.798  12.470  0.00  0.00    +0.000 C 
BRANCH  18  19
ATOM     19  C   UNL     1      44.186   4.674  11.581  0.00  0.00    +0.000 C 
BRANCH  19  20
ATOM     20  N   UNL     1      43.696   3.940  10.408  0.00  0.00    +0.000 N 
ATOM     21  H   UNL     1      42.925   4.416   9.942  0.00  0.00    +0.000 HD
BRANCH  20  22
ATOM     22  C   UNL     1      44.669   3.504   9.487  0.00  0.00    +0.000 A 
ATOM     23  C   UNL     1      44.976   2.156   9.285  0.00  0.00    +0.000 A 
ATOM     24  C   UNL     1      45.905   1.770   8.320  0.00  0.00    +0.000 A 
ATOM     25  C   UNL     1      46.491   2.753   7.542  0.00  0.00    +0.000 A 
ATOM     26  N   UNL     1      46.198   4.078   7.656  0.00  0.00    +0.000 NA
ATOM     27  C   UNL     1      45.285   4.404   8.608  0.00  0.00    +0.000 A 
BRANCH  25  28
ATOM     28  C   UNL     1      47.495   2.361   6.504  0.00  0.00    +0.000 C 
ATOM     29  N   UNL     1      47.465   3.089   5.348  0.00  0.00    +0.000 N 
ATOM     30  O   UNL     1      48.298   1.449   6.670  0.00  0.00    +0.000 OA
ATOM     31  H   UNL     1      46.775   3.823   5.238  0.00  0.00    +0.000 HD
ATOM     32  H   UNL     1      48.101   2.857   4.599  0.00  0.00    +0.000 HD
ENDBRANCH  25  28
ENDBRANCH  20  22
ENDBRANCH  19  20
ENDBRANCH  18  19
ENDBRANCH   3  18
TORSDOF 7
ENDMDL
MODEL 3
REMARK VINA RESULT:    -8.281      3.006      4.025
REMARK INTER + INTRA:         -12.742
REMARK INTER:                 -11.836
REMARK INTRA:                  -0.906
REMARK UNBOUND:                -1.073
REMARK  Name = 
REMARK  8 active torsions:
REMARK  status: ('A' for Active; 'I' for Inactive)
REMARK    1  A    between atoms: C_1  and  C_2
REMARK    2  A    between atoms: N_4  and  C_5
REMARK    3  A    between atoms: C_7  and  C_8
REMARK    4  A    between atoms: C_8  and  C_9
REMARK    5  A    between atoms: C_9  and  N_10
REMARK    6  A    between atoms: N_10  and  C_11
REMARK    7  A    between atoms: C_14  and  C_15
REMARK    8  A    between atoms: C_21  and  C_22
REMARK                            x       y       z     vdW  Elec       q    Type
REMARK                         _______ _______ _______ _____ _____    ______ ____
ROOT
ATOM      1  C   UNL     1      46.360   5.881  13.599  0.00  0.00    +0.000 A 
ATOM      2  C   UNL     1      45.225   5.125  13.279  0.00  0.00    +0.000 A 
ATOM      3  C   UNL     1      44.158   5.664  12.536  0.00  0.00    +0.000 A 
ATOM      4  C   UNL     1      44.235   6.991  12.092  0.00  0.00    +0.000 A 
ATOM      5  C   UNL     1      45.358   7.771  12.381  0.00  0.00    +0.000 A 
ATOM      6  C   UNL     1      46.405   7.200  13.121  0.00  0.00    +0.000 A 
ENDROOT
BRANCH   1  10
ATOM      7  C   UNL     1      47.558   3.080  17.395  0.00  0.00    +0.000 C 
ATOM      8  C   UNL     1      47.367   4.386  16.634  0.00  0.00    +0.000 C 
ATOM      9  C   UNL     1      47.349   4.131  15.110  0.00  0.00    +0.000 C 
ATOM     10  N   UNL     1      47.412   5.390  14.349  0.00  0.00    +0.000 N 
ATOM     11  C   UNL     1      48.453   6.326  14.812  0.00  0.00    +0.000 C 
ATOM     12  C   UNL     1      48.352   6.513  16.333  0.00  0.00    +0.000 C 
ATOM     13  O   UNL     1      48.450   5.256  17.016  0.00  0.00    +0.000 OA
ENDBRANCH   1  10
BRANCH   5  14
ATOM     14  C   UNL     1      45.461   9.208  11.935  0.00  0.00    +0.000 C 
ATOM     15  F   UNL     1      44.832  10.083  12.769  0.00  0.00    +0.000 F 
ATOM     16  F   UNL     1      46.753   9.635  11.859  0.00  0.00    +0.000 F 
ATOM     17  F   UNL     1      44.927   9.417  10.700  0.00  0.00    +0.000 F 
ENDBRANCH   5  14
BRANCH   3  18
ATOM     18  C   UNL     1      42.896   4.862  12.305  0.00  0.00    +0.000 C 
BRANCH  18  19
ATOM     19  C   UNL     1      43.074   3.936  11.096  0.00  0.00    +0.000 C 
BRANCH  19  20
ATOM     20  N   UNL     1      43.723   4.623   9.973  0.00  0.00    +0.000 N 
ATOM     21  H   UNL     1      44.132   5.516  10.244  0.00  0.00    +0.000 HD
BRANCH  20  22
ATOM     22  C   UNL     1      44.617   3.857   9.198  0.00  0.00    +0.000 A 
ATOM     23  C   UNL     1      45.539   4.426   8.315  0.00  0.00    +0.000 A 
ATOM     24  C   UNL     1      46.442   3.630   7.613  0.00  0.00    +0.000 A 
ATOM     25  C   UNL     1      46.427   2.264   7.838  0.00  0.00    +0.000 A 
ATOM     26  N   UNL     1      45.588   1.655   8.721  0.00  0.00    +0.000 NA
ATOM     27  C   UNL     1      44.729   2.473   9.384  0.00  0.00    +0.000 A 
BRANCH  25  28
ATOM     28  C   UNL     1      47.385   1.390   7.090  0.00  0.00    +0.000 C 
ATOM     29  N   UNL     1      48.466   2.027   6.549  0.00  0.00    +0.000 N 
ATOM     30  O   UNL     1      47.221   0.181   6.966  0.00  0.00    +0.000 OA
ATOM     31  H   UNL     1      48.559   3.031   6.654  0.00  0.00    +0.000 HD
ATOM     32  H   UNL     1      49.136   1.497   6.011  0.00  0.00    +0.000 HD
ENDBRANCH  25  28
ENDBRANCH  20  22
ENDBRANCH  19  20
ENDBRANCH  18  19
ENDBRANCH   3  18
TORSDOF 7
ENDMDL
MODEL 4
REMARK VINA RESULT:    -8.037      1.204      1.632
REMARK INTER + INTRA:         -12.399
REMARK INTER:                 -11.475
REMARK INTRA:                  -0.924
REMARK UNBOUND:                -1.073
REMARK  Name = 
REMARK  8 active torsions:
REMARK  status: ('A' for Active; 'I' for Inactive)
REMARK    1  A    between atoms: C_1  and  C_2
REMARK    2  A    between atoms: N_4  and  C_5
REMARK    3  A    between atoms: C_7  and  C_8
REMARK    4  A    between atoms: C_8  and  C_9
REMARK    5  A    between atoms: C_9  and  N_10
REMARK    6  A    between atoms: N_10  and  C_11
REMARK    7  A    between atoms: C_14  and  C_15
REMARK    8  A    between atoms: C_21  and  C_22
REMARK                            x       y       z     vdW  Elec       q    Type
REMARK                         _______ _______ _______ _____ _____    ______ ____
ROOT
ATOM      1  C   UNL     1      47.707   6.565  13.465  0.00  0.00    +0.000 A 
ATOM      2  C   UNL     1      46.525   6.265  12.774  0.00  0.00    +0.000 A 
ATOM      3  C   UNL     1      45.698   5.190  13.149  0.00  0.00    +0.000 A 
ATOM      4  C   UNL     1      46.056   4.402  14.249  0.00  0.00    +0.000 A 
ATOM      5  C   UNL     1      47.221   4.679  14.971  0.00  0.00    +0.000 A 
ATOM      6  C   UNL     1      48.021   5.761  14.572  0.00  0.00    +0.000 A 
ENDROOT
BRANCH   1  10
ATOM      7  C   UNL     1      49.587  10.828  14.873  0.00  0.00    +0.000 C 
ATOM      8  C   UNL     1      48.699   9.901  14.052  0.00  0.00    +0.000 C 
ATOM      9  C   UNL     1      49.245   8.456  14.081  0.00  0.00    +0.000 C 
ATOM     10  N   UNL     1      48.554   7.595  13.106  0.00  0.00    +0.000 N 
ATOM     11  C   UNL     1      48.427   8.186  11.761  0.00  0.00    +0.000 C 
ATOM     12  C   UNL     1      47.854   9.607  11.864  0.00  0.00    +0.000 C 
ATOM     13  O   UNL     1      48.666  10.432  12.712  0.00  0.00    +0.000 OA
ENDBRANCH   1  10
BRANCH   5  14
ATOM     14  C   UNL     1      47.644   3.837  16.147  0.00  0.00    +0.000 C 
ATOM     15  F   UNL     1      48.063   2.587  15.800  0.00  0.00    +0.000 F 
ATOM     16  F   UNL     1      48.679   4.394  16.838  0.00  0.00    +0.000 F 
ATOM     17  F   UNL     1      46.645   3.658  17.055  0.00  0.00    +0.000 F 
ENDBRANCH   5  14
BRANCH   3  18
ATOM     18  C   UNL     1      44.490   4.819  12.314  0.00  0.00    +0.000 C 
BRANCH  18  19
ATOM     19  C   UNL     1      44.476   5.636  11.017  0.00  0.00    +0.000 C 
BRANCH  19  20
ATOM     20  N   UNL     1      43.833   4.903   9.919  0.00  0.00    +0.000 N 
ATOM     21  H   UNL     1      43.332   5.517   9.279  0.00  0.00    +0.000 HD
BRANCH  20  22
ATOM     22  C   UNL     1      44.636   3.975   9.226  0.00  0.00    +0.000 A 
ATOM     23  C   UNL     1      45.572   4.351   8.259  0.00  0.00    +0.000 A 
ATOM     24  C   UNL     1      46.385   3.401   7.642  0.00  0.00    +0.000 A 
ATOM     25  C   UNL     1      46.265   2.079   8.036  0.00  0.00    +0.000 A 
ATOM     26  N   UNL     1      45.409   1.657   9.006  0.00  0.00    +0.000 NA
ATOM     27  C   UNL     1      44.640   2.620   9.580  0.00  0.00    +0.000 A 
BRANCH  25  28
ATOM     28  C   UNL     1      47.124   1.043   7.383  0.00  0.00    +0.000 C 
ATOM     29  N   UNL     1      46.767  -0.255   7.617  0.00  0.00    +0.000 N 
ATOM     30  O   UNL     1      48.088   1.327   6.680  0.00  0.00    +0.000 OA
ATOM     31  H   UNL     1      45.975  -0.454   8.219  0.00  0.00    +0.000 HD
ATOM     32  H   UNL     1      47.321  -1.002   7.225  0.00  0.00    +0.000 HD
ENDBRANCH  25  28
ENDBRANCH  20  22
ENDBRANCH  19  20
ENDBRANCH  18  19
ENDBRANCH   3  18
TORSDOF 7
ENDMDL
MODEL 5
REMARK VINA RESULT:    -7.615      3.153      3.828
REMARK INTER + INTRA:         -11.803
REMARK INTER:                 -11.095
REMARK INTRA:                  -0.708
REMARK UNBOUND:                -1.073
REMARK  Name = 
REMARK  8 active torsions:
REMARK  status: ('A' for Active; 'I' for Inactive)
REMARK    1  A    between atoms: C_1  and  C_2
REMARK    2  A    between atoms: N_4  and  C_5
REMARK    3  A    between atoms: C_7  and  C_8
REMARK    4  A    between atoms: C_8  and  C_9
REMARK    5  A    between atoms: C_9  and  N_10
REMARK    6  A    between atoms: N_10  and  C_11
REMARK    7  A    between atoms: C_14  and  C_15
REMARK    8  A    between atoms: C_21  and  C_22
REMARK                            x       y       z     vdW  Elec       q    Type
REMARK                         _______ _______ _______ _____ _____    ______ ____
ROOT
ATOM      1  C   UNL     1      47.452   7.669  12.986  0.00  0.00    +0.000 A 
ATOM      2  C   UNL     1      46.994   6.385  12.662  0.00  0.00    +0.000 A 
ATOM      3  C   UNL     1      45.808   6.182  11.932  0.00  0.00    +0.000 A 
ATOM      4  C   UNL     1      45.067   7.292  11.506  0.00  0.00    +0.000 A 
ATOM      5  C   UNL     1      45.501   8.589  11.799  0.00  0.00    +0.000 A 
ATOM      6  C   UNL     1      46.689   8.755  12.527  0.00  0.00    +0.000 A 
ENDROOT
BRANCH   1  10
ATOM      7  C   UNL     1      49.586   7.020  17.312  0.00  0.00    +0.000 C 
ATOM      8  C   UNL     1      48.908   7.809  16.198  0.00  0.00    +0.000 C 
ATOM      9  C   UNL     1      49.022   7.058  14.852  0.00  0.00    +0.000 C 
ATOM     10  N   UNL     1      48.597   7.902  13.723  0.00  0.00    +0.000 N 
ATOM     11  C   UNL     1      49.175   9.259  13.731  0.00  0.00    +0.000 C 
ATOM     12  C   UNL     1      48.978   9.906  15.110  0.00  0.00    +0.000 C 
ATOM     13  O   UNL     1      49.552   9.097  16.146  0.00  0.00    +0.000 OA
ENDBRANCH   1  10
BRANCH   5  14
ATOM     14  C   UNL     1      44.715   9.803  11.374  0.00  0.00    +0.000 C 
ATOM     15  F   UNL     1      43.730   9.526  10.474  0.00  0.00    +0.000 F 
ATOM     16  F   UNL     1      44.095  10.413  12.423  0.00  0.00    +0.000 F 
ATOM     17  F   UNL     1      45.493  10.758  10.794  0.00  0.00    +0.000 F 
ENDBRANCH   5  14
BRANCH   3  18
ATOM     18  C   UNL     1      45.277   4.784  11.697  0.00  0.00    +0.000 C 
BRANCH  18  19
ATOM     19  C   UNL     1      43.808   4.844  11.264  0.00  0.00    +0.000 C 
BRANCH  19  20
ATOM     20  N   UNL     1      43.666   4.786   9.804  0.00  0.00    +0.000 N 
ATOM     21  H   UNL     1      43.675   5.709   9.372  0.00  0.00    +0.000 HD
BRANCH  20  22
ATOM     22  C   UNL     1      44.514   3.888   9.125  0.00  0.00    +0.000 A 
ATOM     23  C   UNL     1      45.550   4.305   8.286  0.00  0.00    +0.000 A 
ATOM     24  C   UNL     1      46.399   3.379   7.681  0.00  0.00    +0.000 A 
ATOM     25  C   UNL     1      46.211   2.036   7.961  0.00  0.00    +0.000 A 
ATOM     26  N   UNL     1      45.253   1.570   8.808  0.00  0.00    +0.000 NA
ATOM     27  C   UNL     1      44.453   2.510   9.375  0.00  0.00    +0.000 A 
BRANCH  25  28
ATOM     28  C   UNL     1      47.108   1.025   7.318  0.00  0.00    +0.000 C 
ATOM     29  N   UNL     1      46.852  -0.279   7.636  0.00  0.00    +0.000 N 
ATOM     30  O   UNL     1      48.017   1.335   6.555  0.00  0.00    +0.000 OA
ATOM     31  H   UNL     1      46.105  -0.497   8.286  0.00  0.00    +0.000 HD
ATOM     32  H   UNL     1      47.437  -1.007   7.255  0.00  0.00    +0.000 HD
ENDBRANCH  25  28
ENDBRANCH  20  22
ENDBRANCH  19  20
ENDBRANCH  18  19
ENDBRANCH   3  18
TORSDOF 7
ENDMDL
MODEL 6
REMARK VINA RESULT:    -7.277      2.926      3.688
REMARK INTER + INTRA:         -11.327
REMARK INTER:                 -10.510
REMARK INTRA:                  -0.817
REMARK UNBOUND:                -1.073
REMARK  Name = 
REMARK  8 active torsions:
REMARK  status: ('A' for Active; 'I' for Inactive)
REMARK    1  A    between atoms: C_1  and  C_2
REMARK    2  A    between atoms: N_4  and  C_5
REMARK    3  A    between atoms: C_7  and  C_8
REMARK    4  A    between atoms: C_8  and  C_9
REMARK    5  A    between atoms: C_9  and  N_10
REMARK    6  A    between atoms: N_10  and  C_11
REMARK    7  A    between atoms: C_14  and  C_15
REMARK    8  A    between atoms: C_21  and  C_22
REMARK                            x       y       z     vdW  Elec       q    Type
REMARK                         _______ _______ _______ _____ _____    ______ ____
ROOT
ATOM      1  C   UNL     1      47.766   7.952  12.357  0.00  0.00    +0.000 A 
ATOM      2  C   UNL     1      47.261   6.660  12.160  0.00  0.00    +0.000 A 
ATOM      3  C   UNL     1      45.933   6.436  11.752  0.00  0.00    +0.000 A 
ATOM      4  C   UNL     1      45.091   7.532  11.525  0.00  0.00    +0.000 A 
ATOM      5  C   UNL     1      45.564   8.836  11.698  0.00  0.00    +0.000 A 
ATOM      6  C   UNL     1      46.895   9.024  12.103  0.00  0.00    +0.000 A 
ENDROOT
BRANCH   1  10
ATOM      7  C   UNL     1      50.894  11.439  13.680  0.00  0.00    +0.000 C 
ATOM      8  C   UNL     1      50.309  10.364  12.771  0.00  0.00    +0.000 C 
ATOM      9  C   UNL     1      49.431   9.384  13.580  0.00  0.00    +0.000 C 
ATOM     10  N   UNL     1      49.055   8.206  12.782  0.00  0.00    +0.000 N 
ATOM     11  C   UNL     1      50.179   7.582  12.058  0.00  0.00    +0.000 C 
ATOM     12  C   UNL     1      50.957   8.651  11.277  0.00  0.00    +0.000 C 
ATOM     13  O   UNL     1      51.421   9.693  12.148  0.00  0.00    +0.000 OA
ENDBRANCH   1  10
BRANCH   5  14
ATOM     14  C   UNL     1      44.678  10.036  11.482  0.00  0.00    +0.000 C 
ATOM     15  F   UNL     1      43.790  10.248  12.495  0.00  0.00    +0.000 F 
ATOM     16  F   UNL     1      45.390  11.193  11.369  0.00  0.00    +0.000 F 
ATOM     17  F   UNL     1      43.934   9.944  10.346  0.00  0.00    +0.000 F 
ENDBRANCH   5  14
BRANCH   3  18
ATOM     18  C   UNL     1      45.382   5.029  11.660  0.00  0.00    +0.000 C 
BRANCH  18  19
ATOM     19  C   UNL     1      43.888   5.069  11.316  0.00  0.00    +0.000 C 
BRANCH  19  20
ATOM     20  N   UNL     1      43.655   4.894   9.878  0.00  0.00    +0.000 N 
ATOM     21  H   UNL     1      43.585   5.780   9.381  0.00  0.00    +0.000 HD
BRANCH  20  22
ATOM     22  C   UNL     1      44.503   3.989   9.208  0.00  0.00    +0.000 A 
ATOM     23  C   UNL     1      45.514   4.397   8.334  0.00  0.00    +0.000 A 
ATOM     24  C   UNL     1      46.366   3.467   7.740  0.00  0.00    +0.000 A 
ATOM     25  C   UNL     1      46.206   2.130   8.064  0.00  0.00    +0.000 A 
ATOM     26  N   UNL     1      45.274   1.674   8.945  0.00  0.00    +0.000 NA
ATOM     27  C   UNL     1      44.470   2.619   9.500  0.00  0.00    +0.000 A 
BRANCH  25  28
ATOM     28  C   UNL     1      47.107   1.115   7.433  0.00  0.00    +0.000 C 
ATOM     29  N   UNL     1      48.045   1.610   6.572  0.00  0.00    +0.000 N 
ATOM     30  O   UNL     1      47.018  -0.086   7.667  0.00  0.00    +0.000 OA
ATOM     31  H   UNL     1      48.077   2.606   6.388  0.00  0.00    +0.000 HD
ATOM     32  H   UNL     1      48.667   0.974   6.095  0.00  0.00    +0.000 HD
ENDBRANCH  25  28
ENDBRANCH  20  22
ENDBRANCH  19  20
ENDBRANCH  18  19
ENDBRANCH   3  18
TORSDOF 7
ENDMDL
MODEL 7
REMARK VINA RESULT:    -7.066      3.077      4.160
REMARK INTER + INTRA:         -11.030
REMARK INTER:                 -10.048
REMARK INTRA:                  -0.982
REMARK UNBOUND:                -1.073
REMARK  Name = 
REMARK  8 active torsions:
REMARK  status: ('A' for Active; 'I' for Inactive)
REMARK    1  A    between atoms: C_1  and  C_2
REMARK    2  A    between atoms: N_4  and  C_5
REMARK    3  A    between atoms: C_7  and  C_8
REMARK    4  A    between atoms: C_8  and  C_9
REMARK    5  A    between atoms: C_9  and  N_10
REMARK    6  A    between atoms: N_10  and  C_11
REMARK    7  A    between atoms: C_14  and  C_15
REMARK    8  A    between atoms: C_21  and  C_22
REMARK                            x       y       z     vdW  Elec       q    Type
REMARK                         _______ _______ _______ _____ _____    ______ ____
ROOT
ATOM      1  C   UNL     1      48.209   6.922  14.334  0.00  0.00    +0.000 A 
ATOM      2  C   UNL     1      47.027   6.760  13.600  0.00  0.00    +0.000 A 
ATOM      3  C   UNL     1      46.979   6.983  12.211  0.00  0.00    +0.000 A 
ATOM      4  C   UNL     1      48.146   7.368  11.539  0.00  0.00    +0.000 A 
ATOM      5  C   UNL     1      49.347   7.526  12.236  0.00  0.00    +0.000 A 
ATOM      6  C   UNL     1      49.360   7.292  13.620  0.00  0.00    +0.000 A 
ENDROOT
BRANCH   1  10
ATOM      7  C   UNL     1      50.662   8.100  18.370  0.00  0.00    +0.000 C 
ATOM      8  C   UNL     1      50.197   7.191  17.238  0.00  0.00    +0.000 C 
ATOM      9  C   UNL     1      48.881   7.717  16.622  0.00  0.00    +0.000 C 
ATOM     10  N   UNL     1      48.283   6.737  15.701  0.00  0.00    +0.000 N 
ATOM     11  C   UNL     1      48.215   5.365  16.239  0.00  0.00    +0.000 C 
ATOM     12  C   UNL     1      49.585   4.951  16.797  0.00  0.00    +0.000 C 
ATOM     13  O   UNL     1      50.034   5.874  17.800  0.00  0.00    +0.000 OA
ENDBRANCH   1  10
BRANCH   5  14
ATOM     14  C   UNL     1      50.615   7.959  11.545  0.00  0.00    +0.000 C 
ATOM     15  F   UNL     1      51.052   7.075  10.605  0.00  0.00    +0.000 F 
ATOM     16  F   UNL     1      50.470   9.148  10.894  0.00  0.00    +0.000 F 
ATOM     17  F   UNL     1      51.654   8.131  12.408  0.00  0.00    +0.000 F 
ENDBRANCH   5  14
BRANCH   3  18
ATOM     18  C   UNL     1      45.665   6.914  11.464  0.00  0.00    +0.000 C 
BRANCH  18  19
ATOM     19  C   UNL     1      45.156   5.468  11.426  0.00  0.00    +0.000 C 
BRANCH  19  20
ATOM     20  N   UNL     1      44.482   5.160  10.158  0.00  0.00    +0.000 N 
ATOM     21  H   UNL     1      44.143   5.994   9.682  0.00  0.00    +0.000 HD
BRANCH  20  22
ATOM     22  C   UNL     1      45.165   4.300   9.275  0.00  0.00    +0.000 A 
ATOM     23  C   UNL     1      46.039   4.761   8.287  0.00  0.00    +0.000 A 
ATOM     24  C   UNL     1      46.736   3.867   7.474  0.00  0.00    +0.000 A 
ATOM     25  C   UNL     1      46.567   2.511   7.693  0.00  0.00    +0.000 A 
ATOM     26  N   UNL     1      45.770   1.999   8.671  0.00  0.00    +0.000 NA
ATOM     27  C   UNL     1      45.114   2.909   9.439  0.00  0.00    +0.000 A 
BRANCH  25  28
ATOM     28  C   UNL     1      47.302   1.535   6.829  0.00  0.00    +0.000 C 
ATOM     29  N   UNL     1      48.300   2.063   6.059  0.00  0.00    +0.000 N 
ATOM     30  O   UNL     1      47.035   0.338   6.806  0.00  0.00    +0.000 OA
ATOM     31  H   UNL     1      48.479   3.060   6.088  0.00  0.00    +0.000 HD
ATOM     32  H   UNL     1      48.817   1.461   5.435  0.00  0.00    +0.000 HD
ENDBRANCH  25  28
ENDBRANCH  20  22
ENDBRANCH  19  20
ENDBRANCH  18  19
ENDBRANCH   3  18
TORSDOF 7
ENDMDL
MODEL 8
REMARK VINA RESULT:    -6.911      1.893      2.612
REMARK INTER + INTRA:         -10.812
REMARK INTER:                  -9.984
REMARK INTRA:                  -0.827
REMARK UNBOUND:                -1.073
REMARK  Name = 
REMARK  8 active torsions:
REMARK  status: ('A' for Active; 'I' for Inactive)
REMARK    1  A    between atoms: C_1  and  C_2
REMARK    2  A    between atoms: N_4  and  C_5
REMARK    3  A    between atoms: C_7  and  C_8
REMARK    4  A    between atoms: C_8  and  C_9
REMARK    5  A    between atoms: C_9  and  N_10
REMARK    6  A    between atoms: N_10  and  C_11
REMARK    7  A    between atoms: C_14  and  C_15
REMARK    8  A    between atoms: C_21  and  C_22
REMARK                            x       y       z     vdW  Elec       q    Type
REMARK                         _______ _______ _______ _____ _____    ______ ____
ROOT
ATOM      1  C   UNL     1      48.244   6.453  14.770  0.00  0.00    +0.000 A 
ATOM      2  C   UNL     1      47.421   5.925  13.766  0.00  0.00    +0.000 A 
ATOM      3  C   UNL     1      46.722   4.715  13.939  0.00  0.00    +0.000 A 
ATOM      4  C   UNL     1      46.840   4.023  15.151  0.00  0.00    +0.000 A 
ATOM      5  C   UNL     1      47.640   4.527  16.180  0.00  0.00    +0.000 A 
ATOM      6  C   UNL     1      48.322   5.737  15.975  0.00  0.00    +0.000 A 
ENDROOT
BRANCH   1  10
ATOM      7  C   UNL     1      50.706   9.225  11.616  0.00  0.00    +0.000 C 
ATOM      8  C   UNL     1      50.533   8.271  12.792  0.00  0.00    +0.000 C 
ATOM      9  C   UNL     1      49.092   8.342  13.345  0.00  0.00    +0.000 C 
ATOM     10  N   UNL     1      48.965   7.622  14.622  0.00  0.00    +0.000 N 
ATOM     11  C   UNL     1      50.023   7.934  15.601  0.00  0.00    +0.000 C 
ATOM     12  C   UNL     1      51.403   7.805  14.940  0.00  0.00    +0.000 C 
ATOM     13  O   UNL     1      51.505   8.652  13.786  0.00  0.00    +0.000 OA
ENDBRANCH   1  10
BRANCH   5  14
ATOM     14  C   UNL     1      47.804   3.795  17.488  0.00  0.00    +0.000 C 
ATOM     15  F   UNL     1      47.563   4.572  18.581  0.00  0.00    +0.000 F 
ATOM     16  F   UNL     1      46.957   2.733  17.597  0.00  0.00    +0.000 F 
ATOM     17  F   UNL     1      49.057   3.291  17.657  0.00  0.00    +0.000 F 
ENDBRANCH   5  14
BRANCH   3  18
ATOM     18  C   UNL     1      45.934   4.111  12.796  0.00  0.00    +0.000 C 
BRANCH  18  19
ATOM     19  C   UNL     1      44.773   5.034  12.410  0.00  0.00    +0.000 C 
BRANCH  19  20
ATOM     20  N   UNL     1      43.965   4.468  11.323  0.00  0.00    +0.000 N 
ATOM     21  H   UNL     1      43.214   5.091  11.029  0.00  0.00    +0.000 HD
BRANCH  20  22
ATOM     22  C   UNL     1      44.670   3.948  10.219  0.00  0.00    +0.000 A 
ATOM     23  C   UNL     1      44.696   2.586   9.906  0.00  0.00    +0.000 A 
ATOM     24  C   UNL     1      45.360   2.126   8.770  0.00  0.00    +0.000 A 
ATOM     25  C   UNL     1      45.964   3.055   7.940  0.00  0.00    +0.000 A 
ATOM     26  N   UNL     1      45.931   4.397   8.163  0.00  0.00    +0.000 NA
ATOM     27  C   UNL     1      45.270   4.798   9.281  0.00  0.00    +0.000 A 
BRANCH  25  28
ATOM     28  C   UNL     1      46.686   2.581   6.718  0.00  0.00    +0.000 C 
ATOM     29  N   UNL     1      47.315   1.373   6.834  0.00  0.00    +0.000 N 
ATOM     30  O   UNL     1      46.718   3.226   5.675  0.00  0.00    +0.000 OA
ATOM     31  H   UNL     1      47.284   0.877   7.717  0.00  0.00    +0.000 HD
ATOM     32  H   UNL     1      47.840   1.010   6.053  0.00  0.00    +0.000 HD
ENDBRANCH  25  28
ENDBRANCH  20  22
ENDBRANCH  19  20
ENDBRANCH  18  19
ENDBRANCH   3  18
TORSDOF 7
ENDMDL
MODEL 9
REMARK VINA RESULT:    -6.813      4.496      7.899
REMARK INTER + INTRA:         -10.674
REMARK INTER:                  -9.684
REMARK INTRA:                  -0.989
REMARK UNBOUND:                -1.073
REMARK  Name = 
REMARK  8 active torsions:
REMARK  status: ('A' for Active; 'I' for Inactive)
REMARK    1  A    between atoms: C_1  and  C_2
REMARK    2  A    between atoms: N_4  and  C_5
REMARK    3  A    between atoms: C_7  and  C_8
REMARK    4  A    between atoms: C_8  and  C_9
REMARK    5  A    between atoms: C_9  and  N_10
REMARK    6  A    between atoms: N_10  and  C_11
REMARK    7  A    between atoms: C_14  and  C_15
REMARK    8  A    between atoms: C_21  and  C_22
REMARK                            x       y       z     vdW  Elec       q    Type
REMARK                         _______ _______ _______ _____ _____    ______ ____
ROOT
ATOM      1  C   UNL     1      45.268   7.004  12.055  0.00  0.00    +0.000 A 
ATOM      2  C   UNL     1      46.425   7.518  12.654  0.00  0.00    +0.000 A 
ATOM      3  C   UNL     1      46.727   8.892  12.629  0.00  0.00    +0.000 A 
ATOM      4  C   UNL     1      45.843   9.776  11.997  0.00  0.00    +0.000 A 
ATOM      5  C   UNL     1      44.671   9.302  11.400  0.00  0.00    +0.000 A 
ATOM      6  C   UNL     1      44.400   7.925  11.446  0.00  0.00    +0.000 A 
ENDROOT
BRANCH   1  10
ATOM      7  C   UNL     1      44.529   3.137   9.193  0.00  0.00    +0.000 C 
ATOM      8  C   UNL     1      44.134   4.267  10.136  0.00  0.00    +0.000 C 
ATOM      9  C   UNL     1      45.354   4.745  10.955  0.00  0.00    +0.000 C 
ATOM     10  N   UNL     1      44.956   5.659  12.038  0.00  0.00    +0.000 N 
ATOM     11  C   UNL     1      43.813   5.183  12.841  0.00  0.00    +0.000 C 
ATOM     12  C   UNL     1      42.662   4.761  11.917  0.00  0.00    +0.000 C 
ATOM     13  O   UNL     1      43.088   3.757  10.985  0.00  0.00    +0.000 OA
ENDBRANCH   1  10
BRANCH   5  14
ATOM     14  C   UNL     1      43.711  10.224  10.694  0.00  0.00    +0.000 C 
ATOM     15  F   UNL     1      42.423   9.780  10.703  0.00  0.00    +0.000 F 
ATOM     16  F   UNL     1      43.676  11.465  11.258  0.00  0.00    +0.000 F 
ATOM     17  F   UNL     1      44.031  10.418   9.385  0.00  0.00    +0.000 F 
ENDBRANCH   5  14
BRANCH   3  18
ATOM     18  C   UNL     1      48.040   9.404  13.183  0.00  0.00    +0.000 C 
BRANCH  18  19
ATOM     19  C   UNL     1      48.151   9.064  14.674  0.00  0.00    +0.000 C 
BRANCH  19  20
ATOM     20  N   UNL     1      49.228   8.102  14.935  0.00  0.00    +0.000 N 
ATOM     21  H   UNL     1      50.073   8.546  15.289  0.00  0.00    +0.000 HD
BRANCH  20  22
ATOM     22  C   UNL     1      48.885   6.963  15.692  0.00  0.00    +0.000 A 
ATOM     23  C   UNL     1      49.082   6.880  17.073  0.00  0.00    +0.000 A 
ATOM     24  C   UNL     1      48.673   5.754  17.788  0.00  0.00    +0.000 A 
ATOM     25  C   UNL     1      48.036   4.736  17.100  0.00  0.00    +0.000 A 
ATOM     26  N   UNL     1      47.770   4.779  15.766  0.00  0.00    +0.000 NA
ATOM     27  C   UNL     1      48.185   5.897  15.113  0.00  0.00    +0.000 A 
BRANCH  25  28
ATOM     28  C   UNL     1      47.594   3.517  17.847  0.00  0.00    +0.000 C 
ATOM     29  N   UNL     1      48.277   3.250  19.000  0.00  0.00    +0.000 N 
ATOM     30  O   UNL     1      46.679   2.798  17.460  0.00  0.00    +0.000 OA
ATOM     31  H   UNL     1      49.041   3.855  19.279  0.00  0.00    +0.000 HD
ATOM     32  H   UNL     1      48.043   2.428  19.537  0.00  0.00    +0.000 HD
ENDBRANCH  25  28
ENDBRANCH  20  22
ENDBRANCH  19  20
ENDBRANCH  18  19
ENDBRANCH   3  18
TORSDOF 7
ENDMDL
