MODEL 1
REMARK VINA RESULT:    -8.583      0.000      0.000
REMARK INTER + INTRA:         -11.027
REMARK INTER:                 -10.591
REMARK INTRA:                  -0.437
REMARK UNBOUND:                -0.437
REMARK  Name = 
REMARK  4 active torsions:
REMARK  status: ('A' for Active; 'I' for Inactive)
REMARK    1  A    between atoms: C_2  and  C_4
REMARK    2  A    between atoms: N_8  and  C_9
REMARK    3  A    between atoms: C_9  and  C_10
REMARK    4  A    between atoms: C_12  and  N_13
REMARK                            x       y       z     vdW  Elec       q    Type
REMARK                         _______ _______ _______ _____ _____    ______ ____
ROOT
ATOM      1  C   UNL     1      46.526   2.655   7.498  0.00  0.00    +0.000 A 
ATOM      2  C   UNL     1      46.228   4.004   7.649  0.00  0.00    +0.000 A 
ATOM      3  C   UNL     1      45.358   4.395   8.667  0.00  0.00    +0.000 A 
ATOM      4  C   UNL     1      44.797   3.437   9.505  0.00  0.00    +0.000 A 
ATOM      5  N   UNL     1      43.916   3.726  10.504  0.00  0.00    +0.000 N 
ATOM      6  N   UNL     1      45.085   2.127   9.365  0.00  0.00    +0.000 NA
ATOM      7  C   UNL     1      45.928   1.758   8.365  0.00  0.00    +0.000 A 
ATOM      8  H   UNL     1      43.628   2.919  11.040  0.00  0.00    +0.000 HD
ENDROOT
BRANCH   1  10
ATOM      9  N   UNL     1      47.704   2.997   5.403  0.00  0.00    +0.000 N 
ATOM     10  C   UNL     1      47.435   2.155   6.443  0.00  0.00    +0.000 C 
ATOM     11  O   UNL     1      47.949   1.048   6.518  0.00  0.00    +0.000 OA
ATOM     12  H   UNL     1      48.402   2.684   4.737  0.00  0.00    +0.000 HD
ATOM     13  H   UNL     1      47.499   3.987   5.431  0.00  0.00    +0.000 HD
ENDBRANCH   1  10
BRANCH   5  14
ATOM     14  C   UNL     1      43.336   5.022  10.782  0.00  0.00    +0.000 C 
BRANCH  14  15
ATOM     15  C   UNL     1      44.307   5.945  11.490  0.00  0.00    +0.000 A 
ATOM     16  C   UNL     1      45.254   5.400  12.359  0.00  0.00    +0.000 A 
ATOM     17  C   UNL     1      46.125   6.220  13.080  0.00  0.00    +0.000 A 
ATOM     18  C   UNL     1      46.004   7.592  12.859  0.00  0.00    +0.000 A 
ATOM     19  C   UNL     1      45.047   8.067  11.971  0.00  0.00    +0.000 A 
ATOM     20  N   UNL     1      44.194   7.278  11.284  0.00  0.00    +0.000 NA
BRANCH  17  21
ATOM     21  N   UNL     1      47.063   5.678  13.930  0.00  0.00    +0.000 N 
ATOM     22  C   UNL     1      47.029   4.283  14.389  0.00  0.00    +0.000 C 
ATOM     23  C   UNL     1      47.350   4.251  15.896  0.00  0.00    +0.000 C 
ATOM     24  O   UNL     1      48.603   4.893  16.193  0.00  0.00    +0.000 OA
ATOM     25  C   UNL     1      48.574   6.267  15.768  0.00  0.00    +0.000 C 
ATOM     26  C   UNL     1      48.319   6.374  14.257  0.00  0.00    +0.000 C 
ENDBRANCH  17  21
ENDBRANCH  14  15
ENDBRANCH   5  14
TORSDOF 4
ENDMDL
MODEL 2
REMARK VINA RESULT:    -8.067      2.035      2.985
REMARK INTER + INTRA:         -10.390
REMARK INTER:                  -9.824
REMARK INTRA:                  -0.566
REMARK UNBOUND:                -0.437
REMARK  Name = 
REMARK  4 active torsions:
REMARK  status: ('A' for Active; 'I' for Inactive)
REMARK    1  A    between atoms: C_2  and  C_4
REMARK    2  A    between atoms: N_8  and  C_9
REMARK    3  A    between atoms: C_9  and  C_10
REMARK    4  A    between atoms: C_12  and  N_13
REMARK                            x       y       z     vdW  Elec       q    Type
REMARK                         _______ _______ _______ _____ _____    ______ ____
ROOT
ATOM      1  C   UNL     1      46.376   2.275   7.557  0.00  0.00    +0.000 A 
ATOM      2  C   UNL     1      45.868   1.861   8.783  0.00  0.00    +0.000 A 
ATOM      3  C   UNL     1      45.060   2.735   9.511  0.00  0.00    +0.000 A 
ATOM      4  C   UNL     1      44.783   4.002   9.010  0.00  0.00    +0.000 A 
ATOM      5  N   UNL     1      44.029   4.930   9.665  0.00  0.00    +0.000 N 
ATOM      6  N   UNL     1      45.270   4.408   7.820  0.00  0.00    +0.000 NA
ATOM      7  C   UNL     1      46.062   3.551   7.123  0.00  0.00    +0.000 A 
ATOM      8  H   UNL     1      43.898   5.788   9.150  0.00  0.00    +0.000 HD
ENDROOT
BRANCH   1  10
ATOM      9  N   UNL     1      48.284   2.015   6.079  0.00  0.00    +0.000 N 
ATOM     10  C   UNL     1      47.242   1.413   6.724  0.00  0.00    +0.000 C 
ATOM     11  O   UNL     1      47.054   0.208   6.644  0.00  0.00    +0.000 OA
ATOM     12  H   UNL     1      48.928   1.403   5.591  0.00  0.00    +0.000 HD
ATOM     13  H   UNL     1      48.612   2.943   6.314  0.00  0.00    +0.000 HD
ENDBRANCH   1  10
BRANCH   5  14
ATOM     14  C   UNL     1      43.503   4.806  11.008  0.00  0.00    +0.000 C 
BRANCH  14  15
ATOM     15  C   UNL     1      44.576   4.989  12.063  0.00  0.00    +0.000 A 
ATOM     16  C   UNL     1      45.407   6.109  12.003  0.00  0.00    +0.000 A 
ATOM     17  C   UNL     1      46.448   6.283  12.916  0.00  0.00    +0.000 A 
ATOM     18  C   UNL     1      46.585   5.294  13.889  0.00  0.00    +0.000 A 
ATOM     19  C   UNL     1      45.717   4.209  13.899  0.00  0.00    +0.000 A 
ATOM     20  N   UNL     1      44.718   4.031  13.008  0.00  0.00    +0.000 NA
BRANCH  17  21
ATOM     21  N   UNL     1      47.260   7.394  12.858  0.00  0.00    +0.000 N 
ATOM     22  C   UNL     1      46.791   8.755  13.151  0.00  0.00    +0.000 C 
ATOM     23  C   UNL     1      47.371   9.716  12.095  0.00  0.00    +0.000 C 
ATOM     24  O   UNL     1      48.806   9.636  12.025  0.00  0.00    +0.000 OA
ATOM     25  C   UNL     1      49.217   8.298  11.692  0.00  0.00    +0.000 C 
ATOM     26  C   UNL     1      48.724   7.290  12.740  0.00  0.00    +0.000 C 
ENDBRANCH  17  21
ENDBRANCH  14  15
ENDBRANCH   5  14
TORSDOF 4
ENDMDL
MODEL 3
REMARK VINA RESULT:    -7.199      2.474      8.281
REMARK INTER + INTRA:          -9.319
REMARK INTER:                  -8.953
REMARK INTRA:                  -0.366
REMARK UNBOUND:                -0.437
REMARK  Name = 
REMARK  4 active torsions:
REMARK  status: ('A' for Active; 'I' for Inactive)
REMARK    1  A    between atoms: C_2  and  C_4
REMARK    2  A    between atoms: N_8  and  C_9
REMARK    3  A    between atoms: C_9  and  C_10
REMARK    4  A    between atoms: C_12  and  N_13
REMARK                            x       y       z     vdW  Elec       q    Type
REMARK                         _______ _______ _______ _____ _____    ______ ____
ROOT
ATOM      1  C   UNL     1      48.588   4.472  18.293  0.00  0.00    +0.000 A 
ATOM      2  C   UNL     1      48.676   5.545  17.413  0.00  0.00    +0.000 A 
ATOM      3  C   UNL     1      47.942   5.510  16.228  0.00  0.00    +0.000 A 
ATOM      4  C   UNL     1      47.145   4.408  15.939  0.00  0.00    +0.000 A 
ATOM      5  N   UNL     1      46.418   4.276  14.793  0.00  0.00    +0.000 N 
ATOM      6  N   UNL     1      47.053   3.365  16.789  0.00  0.00    +0.000 NA
ATOM      7  C   UNL     1      47.779   3.407  17.937  0.00  0.00    +0.000 A 
ATOM      8  H   UNL     1      45.869   3.429  14.752  0.00  0.00    +0.000 HD
ENDROOT
BRANCH   1  10
ATOM      9  N   UNL     1      48.661   3.985  20.670  0.00  0.00    +0.000 N 
ATOM     10  C   UNL     1      49.336   4.426  19.568  0.00  0.00    +0.000 C 
ATOM     11  O   UNL     1      50.516   4.739  19.626  0.00  0.00    +0.000 OA
ATOM     12  H   UNL     1      49.207   3.865  21.516  0.00  0.00    +0.000 HD
ATOM     13  H   UNL     1      47.778   3.495  20.613  0.00  0.00    +0.000 HD
ENDBRANCH   1  10
BRANCH   5  14
ATOM     14  C   UNL     1      46.442   5.175  13.660  0.00  0.00    +0.000 C 
BRANCH  14  15
ATOM     15  C   UNL     1      45.322   4.892  12.679  0.00  0.00    +0.000 A 
ATOM     16  C   UNL     1      45.620   4.270  11.466  0.00  0.00    +0.000 A 
ATOM     17  C   UNL     1      44.628   4.049  10.507  0.00  0.00    +0.000 A 
ATOM     18  C   UNL     1      43.340   4.463  10.847  0.00  0.00    +0.000 A 
ATOM     19  C   UNL     1      43.111   5.067  12.077  0.00  0.00    +0.000 A 
ATOM     20  N   UNL     1      44.070   5.294  12.999  0.00  0.00    +0.000 NA
BRANCH  17  21
ATOM     21  N   UNL     1      44.925   3.427   9.315  0.00  0.00    +0.000 N 
ATOM     22  C   UNL     1      44.797   1.979   9.105  0.00  0.00    +0.000 C 
ATOM     23  C   UNL     1      46.033   1.481   8.330  0.00  0.00    +0.000 C 
ATOM     24  O   UNL     1      46.221   2.198   7.097  0.00  0.00    +0.000 OA
ATOM     25  C   UNL     1      46.387   3.603   7.356  0.00  0.00    +0.000 C 
ATOM     26  C   UNL     1      45.159   4.183   8.073  0.00  0.00    +0.000 C 
ENDBRANCH  17  21
ENDBRANCH  14  15
ENDBRANCH   5  14
TORSDOF 4
ENDMDL
MODEL 4
REMARK VINA RESULT:    -7.153      2.677      6.823
REMARK INTER + INTRA:          -9.262
REMARK INTER:                  -8.625
REMARK INTRA:                  -0.637
REMARK UNBOUND:                -0.437
REMARK  Name = 
REMARK  4 active torsions:
REMARK  status: ('A' for Active; 'I' for Inactive)
REMARK    1  A    between atoms: C_2  and  C_4
REMARK    2  A    between atoms: N_8  and  C_9
REMARK    3  A    between atoms: C_9  and  C_10
REMARK    4  A    between atoms: C_12  and  N_13
REMARK                            x       y       z     vdW  Elec       q    Type
REMARK                         _______ _______ _______ _____ _____    ______ ____
ROOT
ATOM      1  C   UNL     1      49.940   7.938  12.388  0.00  0.00    +0.000 A 
ATOM      2  C   UNL     1      48.929   8.143  11.456  0.00  0.00    +0.000 A 
ATOM      3  C   UNL     1      47.629   7.745  11.769  0.00  0.00    +0.000 A 
ATOM      4  C   UNL     1      47.364   7.147  12.996  0.00  0.00    +0.000 A 
ATOM      5  N   UNL     1      46.132   6.701  13.374  0.00  0.00    +0.000 N 
ATOM      6  N   UNL     1      48.340   6.949  13.906  0.00  0.00    +0.000 NA
ATOM      7  C   UNL     1      49.604   7.333  13.586  0.00  0.00    +0.000 A 
ATOM      8  H   UNL     1      46.105   6.319  14.308  0.00  0.00    +0.000 HD
ENDROOT
BRANCH   1  10
ATOM      9  N   UNL     1      52.260   8.015  13.098  0.00  0.00    +0.000 N 
ATOM     10  C   UNL     1      51.344   8.326  12.134  0.00  0.00    +0.000 C 
ATOM     11  O   UNL     1      51.676   8.871  11.091  0.00  0.00    +0.000 OA
ATOM     12  H   UNL     1      53.232   8.197  12.874  0.00  0.00    +0.000 HD
ATOM     13  H   UNL     1      52.069   7.360  13.845  0.00  0.00    +0.000 HD
ENDBRANCH   1  10
BRANCH   5  14
ATOM     14  C   UNL     1      44.947   6.665  12.544  0.00  0.00    +0.000 C 
BRANCH  14  15
ATOM     15  C   UNL     1      44.592   5.256  12.113  0.00  0.00    +0.000 A 
ATOM     16  C   UNL     1      45.006   4.803  10.859  0.00  0.00    +0.000 A 
ATOM     17  C   UNL     1      44.646   3.536  10.396  0.00  0.00    +0.000 A 
ATOM     18  C   UNL     1      43.878   2.759  11.264  0.00  0.00    +0.000 A 
ATOM     19  C   UNL     1      43.509   3.268  12.503  0.00  0.00    +0.000 A 
ATOM     20  N   UNL     1      43.844   4.498  12.947  0.00  0.00    +0.000 NA
BRANCH  17  21
ATOM     21  N   UNL     1      45.064   3.089   9.163  0.00  0.00    +0.000 N 
ATOM     22  C   UNL     1      45.106   1.670   8.789  0.00  0.00    +0.000 C 
ATOM     23  C   UNL     1      46.424   1.396   8.037  0.00  0.00    +0.000 C 
ATOM     24  O   UNL     1      46.588   2.265   6.903  0.00  0.00    +0.000 OA
ATOM     25  C   UNL     1      46.585   3.641   7.323  0.00  0.00    +0.000 C 
ATOM     26  C   UNL     1      45.270   4.004   8.027  0.00  0.00    +0.000 C 
ENDBRANCH  17  21
ENDBRANCH  14  15
ENDBRANCH   5  14
TORSDOF 4
ENDMDL
MODEL 5
REMARK VINA RESULT:    -7.008      4.169      8.337
REMARK INTER + INTRA:          -9.084
REMARK INTER:                  -8.565
REMARK INTRA:                  -0.519
REMARK UNBOUND:                -0.437
REMARK  Name = 
REMARK  4 active torsions:
REMARK  status: ('A' for Active; 'I' for Inactive)
REMARK    1  A    between atoms: C_2  and  C_4
REMARK    2  A    between atoms: N_8  and  C_9
REMARK    3  A    between atoms: C_9  and  C_10
REMARK    4  A    between atoms: C_12  and  N_13
REMARK                            x       y       z     vdW  Elec       q    Type
REMARK                         _______ _______ _______ _____ _____    ______ ____
ROOT
ATOM      1  C   UNL     1      52.158   2.306  17.773  0.00  0.00    +0.000 A 
ATOM      2  C   UNL     1      51.599   3.544  18.068  0.00  0.00    +0.000 A 
ATOM      3  C   UNL     1      50.282   3.800  17.685  0.00  0.00    +0.000 A 
ATOM      4  C   UNL     1      49.554   2.825  17.012  0.00  0.00    +0.000 A 
ATOM      5  N   UNL     1      48.275   2.999  16.575  0.00  0.00    +0.000 N 
ATOM      6  N   UNL     1      50.090   1.621  16.726  0.00  0.00    +0.000 NA
ATOM      7  C   UNL     1      51.376   1.386  17.097  0.00  0.00    +0.000 A 
ATOM      8  H   UNL     1      47.880   2.182  16.132  0.00  0.00    +0.000 HD
ENDROOT
BRANCH   1  10
ATOM      9  N   UNL     1      54.546   2.704  17.586  0.00  0.00    +0.000 N 
ATOM     10  C   UNL     1      53.547   1.954  18.139  0.00  0.00    +0.000 C 
ATOM     11  O   UNL     1      53.789   1.053  18.929  0.00  0.00    +0.000 OA
ATOM     12  H   UNL     1      55.486   2.519  17.918  0.00  0.00    +0.000 HD
ATOM     13  H   UNL     1      54.378   3.593  17.135  0.00  0.00    +0.000 HD
ENDBRANCH   1  10
BRANCH   5  14
ATOM     14  C   UNL     1      47.516   4.230  16.628  0.00  0.00    +0.000 C 
BRANCH  14  15
ATOM     15  C   UNL     1      47.414   4.899  15.271  0.00  0.00    +0.000 A 
ATOM     16  C   UNL     1      46.454   4.453  14.362  0.00  0.00    +0.000 A 
ATOM     17  C   UNL     1      46.369   4.998  13.079  0.00  0.00    +0.000 A 
ATOM     18  C   UNL     1      47.275   6.016  12.781  0.00  0.00    +0.000 A 
ATOM     19  C   UNL     1      48.199   6.419  13.738  0.00  0.00    +0.000 A 
ATOM     20  N   UNL     1      48.293   5.885  14.973  0.00  0.00    +0.000 NA
BRANCH  17  21
ATOM     21  N   UNL     1      45.415   4.561  12.188  0.00  0.00    +0.000 N 
ATOM     22  C   UNL     1      44.899   5.384  11.087  0.00  0.00    +0.000 C 
ATOM     23  C   UNL     1      43.369   5.211  11.015  0.00  0.00    +0.000 C 
ATOM     24  O   UNL     1      42.989   3.830  10.889  0.00  0.00    +0.000 OA
ATOM     25  C   UNL     1      43.476   3.072  12.010  0.00  0.00    +0.000 C 
ATOM     26  C   UNL     1      45.007   3.148  12.107  0.00  0.00    +0.000 C 
ENDBRANCH  17  21
ENDBRANCH  14  15
ENDBRANCH   5  14
TORSDOF 4
ENDMDL
MODEL 6
REMARK VINA RESULT:    -6.425      2.872      5.007
REMARK INTER + INTRA:          -8.364
REMARK INTER:                  -7.765
REMARK INTRA:                  -0.599
REMARK UNBOUND:                -0.437
REMARK  Name = 
REMARK  4 active torsions:
REMARK  status: ('A' for Active; 'I' for Inactive)
REMARK    1  A    between atoms: C_2  and  C_4
REMARK    2  A    between atoms: N_8  and  C_9
REMARK    3  A    between atoms: C_9  and  C_10
REMARK    4  A    between atoms: C_12  and  N_13
REMARK                            x       y       z     vdW  Elec       q    Type
REMARK                         _______ _______ _______ _____ _____    ______ ____
ROOT
ATOM      1  C   UNL     1      44.725   5.157  10.977  0.00  0.00    +0.000 A 
ATOM      2  C   UNL     1      45.940   5.731  10.617  0.00  0.00    +0.000 A 
ATOM      3  C   UNL     1      46.549   6.630  11.492  0.00  0.00    +0.000 A 
ATOM      4  C   UNL     1      45.935   6.945  12.700  0.00  0.00    +0.000 A 
ATOM      5  N   UNL     1      46.444   7.833  13.601  0.00  0.00    +0.000 N 
ATOM      6  N   UNL     1      44.760   6.389  13.056  0.00  0.00    +0.000 NA
ATOM      7  C   UNL     1      44.172   5.521  12.192  0.00  0.00    +0.000 A 
ATOM      8  H   UNL     1      45.891   7.925  14.441  0.00  0.00    +0.000 HD
ENDROOT
BRANCH   1  10
ATOM      9  N   UNL     1      44.105   4.391   8.758  0.00  0.00    +0.000 N 
ATOM     10  C   UNL     1      44.011   4.199  10.106  0.00  0.00    +0.000 C 
ATOM     11  O   UNL     1      43.390   3.255  10.574  0.00  0.00    +0.000 OA
ATOM     12  H   UNL     1      43.695   3.676   8.169  0.00  0.00    +0.000 HD
ATOM     13  H   UNL     1      44.796   4.999   8.338  0.00  0.00    +0.000 HD
ENDBRANCH   1  10
BRANCH   5  14
ATOM     14  C   UNL     1      47.611   8.667  13.411  0.00  0.00    +0.000 C 
BRANCH  14  15
ATOM     15  C   UNL     1      48.818   8.143  14.163  0.00  0.00    +0.000 A 
ATOM     16  C   UNL     1      48.653   7.095  15.069  0.00  0.00    +0.000 A 
ATOM     17  C   UNL     1      49.726   6.625  15.830  0.00  0.00    +0.000 A 
ATOM     18  C   UNL     1      50.955   7.247  15.610  0.00  0.00    +0.000 A 
ATOM     19  C   UNL     1      51.052   8.279  14.685  0.00  0.00    +0.000 A 
ATOM     20  N   UNL     1      50.014   8.744  13.959  0.00  0.00    +0.000 NA
BRANCH  17  21
ATOM     21  N   UNL     1      49.561   5.585  16.716  0.00  0.00    +0.000 N 
ATOM     22  C   UNL     1      50.605   5.145  17.651  0.00  0.00    +0.000 C 
ATOM     23  C   UNL     1      50.648   3.604  17.654  0.00  0.00    +0.000 C 
ATOM     24  O   UNL     1      49.365   3.031  17.960  0.00  0.00    +0.000 OA
ATOM     25  C   UNL     1      48.385   3.452  16.995  0.00  0.00    +0.000 C 
ATOM     26  C   UNL     1      48.244   4.981  16.980  0.00  0.00    +0.000 C 
ENDBRANCH  17  21
ENDBRANCH  14  15
ENDBRANCH   5  14
TORSDOF 4
ENDMDL
MODEL 7
REMARK VINA RESULT:    -6.278      2.940      8.140
REMARK INTER + INTRA:          -8.183
REMARK INTER:                  -7.722
REMARK INTRA:                  -0.461
REMARK UNBOUND:                -0.437
REMARK  Name = 
REMARK  4 active torsions:
REMARK  status: ('A' for Active; 'I' for Inactive)
REMARK    1  A    between atoms: C_2  and  C_4
REMARK    2  A    between atoms: N_8  and  C_9
REMARK    3  A    between atoms: C_9  and  C_10
REMARK    4  A    between atoms: C_12  and  N_13
REMARK                            x       y       z     vdW  Elec       q    Type
REMARK                         _______ _______ _______ _____ _____    ______ ____
ROOT
ATOM      1  C   UNL     1      49.153   5.162  18.466  0.00  0.00    +0.000 A 
ATOM      2  C   UNL     1      49.064   6.514  18.157  0.00  0.00    +0.000 A 
ATOM      3  C   UNL     1      48.661   6.891  16.876  0.00  0.00    +0.000 A 
ATOM      4  C   UNL     1      48.364   5.917  15.929  0.00  0.00    +0.000 A 
ATOM      5  N   UNL     1      47.991   6.193  14.647  0.00  0.00    +0.000 N 
ATOM      6  N   UNL     1      48.445   4.603  16.223  0.00  0.00    +0.000 NA
ATOM      7  C   UNL     1      48.847   4.249  17.472  0.00  0.00    +0.000 A 
ATOM      8  H   UNL     1      47.781   5.373  14.097  0.00  0.00    +0.000 HD
ENDROOT
BRANCH   1  10
ATOM      9  N   UNL     1      48.670   3.946  20.511  0.00  0.00    +0.000 N 
ATOM     10  C   UNL     1      49.576   4.677  19.797  0.00  0.00    +0.000 C 
ATOM     11  O   UNL     1      50.701   4.892  20.225  0.00  0.00    +0.000 OA
ATOM     12  H   UNL     1      49.001   3.537  21.377  0.00  0.00    +0.000 HD
ATOM     13  H   UNL     1      47.839   3.548  20.096  0.00  0.00    +0.000 HD
ENDBRANCH   1  10
BRANCH   5  14
ATOM     14  C   UNL     1      47.957   7.503  14.032  0.00  0.00    +0.000 C 
BRANCH  14  15
ATOM     15  C   UNL     1      46.750   7.682  13.133  0.00  0.00    +0.000 A 
ATOM     16  C   UNL     1      46.149   6.557  12.566  0.00  0.00    +0.000 A 
ATOM     17  C   UNL     1      45.076   6.682  11.681  0.00  0.00    +0.000 A 
ATOM     18  C   UNL     1      44.638   7.981  11.425  0.00  0.00    +0.000 A 
ATOM     19  C   UNL     1      45.275   9.057  12.032  0.00  0.00    +0.000 A 
ATOM     20  N   UNL     1      46.321   8.940  12.876  0.00  0.00    +0.000 NA
BRANCH  17  21
ATOM     21  N   UNL     1      44.481   5.569  11.132  0.00  0.00    +0.000 N 
ATOM     22  C   UNL     1      43.124   5.125  11.475  0.00  0.00    +0.000 C 
ATOM     23  C   UNL     1      43.136   3.594  11.653  0.00  0.00    +0.000 C 
ATOM     24  O   UNL     1      43.653   2.921  10.492  0.00  0.00    +0.000 OA
ATOM     25  C   UNL     1      44.998   3.353  10.220  0.00  0.00    +0.000 C 
ATOM     26  C   UNL     1      45.053   4.867   9.970  0.00  0.00    +0.000 C 
ENDBRANCH  17  21
ENDBRANCH  14  15
ENDBRANCH   5  14
TORSDOF 4
ENDMDL
MODEL 8
REMARK VINA RESULT:    -6.022      3.875      5.419
REMARK INTER + INTRA:          -7.867
REMARK INTER:                  -7.313
REMARK INTRA:                  -0.554
REMARK UNBOUND:                -0.437
REMARK  Name = 
REMARK  4 active torsions:
REMARK  status: ('A' for Active; 'I' for Inactive)
REMARK    1  A    between atoms: C_2  and  C_4
REMARK    2  A    between atoms: N_8  and  C_9
REMARK    3  A    between atoms: C_9  and  C_10
REMARK    4  A    between atoms: C_12  and  N_13
REMARK                            x       y       z     vdW  Elec       q    Type
REMARK                         _______ _______ _______ _____ _____    ______ ____
ROOT
ATOM      1  C   UNL     1      44.459   4.105  11.558  0.00  0.00    +0.000 A 
ATOM      2  C   UNL     1      44.204   5.323  10.939  0.00  0.00    +0.000 A 
ATOM      3  C   UNL     1      44.729   6.488  11.496  0.00  0.00    +0.000 A 
ATOM      4  C   UNL     1      45.488   6.419  12.659  0.00  0.00    +0.000 A 
ATOM      5  N   UNL     1      46.016   7.508  13.288  0.00  0.00    +0.000 N 
ATOM      6  N   UNL     1      45.743   5.240  13.262  0.00  0.00    +0.000 NA
ATOM      7  C   UNL     1      45.219   4.112  12.714  0.00  0.00    +0.000 A 
ATOM      8  H   UNL     1      46.567   7.281  14.103  0.00  0.00    +0.000 HD
ENDROOT
BRANCH   1  10
ATOM      9  N   UNL     1      44.592   2.270   9.973  0.00  0.00    +0.000 N 
ATOM     10  C   UNL     1      43.937   2.823  11.035  0.00  0.00    +0.000 C 
ATOM     11  O   UNL     1      42.980   2.266  11.555  0.00  0.00    +0.000 OA
ATOM     12  H   UNL     1      44.288   1.347   9.685  0.00  0.00    +0.000 HD
ATOM     13  H   UNL     1      45.513   2.569   9.682  0.00  0.00    +0.000 HD
ENDBRANCH   1  10
BRANCH   5  14
ATOM     14  C   UNL     1      45.784   8.892  12.935  0.00  0.00    +0.000 C 
BRANCH  14  15
ATOM     15  C   UNL     1      46.979   9.514  12.240  0.00  0.00    +0.000 A 
ATOM     16  C   UNL     1      48.211   8.858  12.285  0.00  0.00    +0.000 A 
ATOM     17  C   UNL     1      49.351   9.426  11.715  0.00  0.00    +0.000 A 
ATOM     18  C   UNL     1      49.176  10.660  11.088  0.00  0.00    +0.000 A 
ATOM     19  C   UNL     1      47.919  11.253  11.070  0.00  0.00    +0.000 A 
ATOM     20  N   UNL     1      46.818  10.713  11.633  0.00  0.00    +0.000 NA
BRANCH  17  21
ATOM     21  N   UNL     1      50.562   8.772  11.754  0.00  0.00    +0.000 N 
ATOM     22  C   UNL     1      51.601   9.052  12.754  0.00  0.00    +0.000 C 
ATOM     23  C   UNL     1      52.969   9.096  12.046  0.00  0.00    +0.000 C 
ATOM     24  O   UNL     1      53.232   7.890  11.307  0.00  0.00    +0.000 OA
ATOM     25  C   UNL     1      52.216   7.681  10.311  0.00  0.00    +0.000 C 
ATOM     26  C   UNL     1      50.826   7.564  10.953  0.00  0.00    +0.000 C 
ENDBRANCH  17  21
ENDBRANCH  14  15
ENDBRANCH   5  14
TORSDOF 4
ENDMDL
MODEL 9
REMARK VINA RESULT:    -5.846      3.208      5.548
REMARK INTER + INTRA:          -7.650
REMARK INTER:                  -7.178
REMARK INTRA:                  -0.471
REMARK UNBOUND:                -0.437
REMARK  Name = 
REMARK  4 active torsions:
REMARK  status: ('A' for Active; 'I' for Inactive)
REMARK    1  A    between atoms: C_2  and  C_4
REMARK    2  A    between atoms: N_8  and  C_9
REMARK    3  A    between atoms: C_9  and  C_10
REMARK    4  A    between atoms: C_12  and  N_13
REMARK                            x       y       z     vdW  Elec       q    Type
REMARK                         _______ _______ _______ _____ _____    ______ ____
ROOT
ATOM      1  C   UNL     1      44.917   4.684  11.405  0.00  0.00    +0.000 A 
ATOM      2  C   UNL     1      45.660   5.801  11.038  0.00  0.00    +0.000 A 
ATOM      3  C   UNL     1      46.557   6.348  11.955  0.00  0.00    +0.000 A 
ATOM      4  C   UNL     1      46.691   5.780  13.217  0.00  0.00    +0.000 A 
ATOM      5  N   UNL     1      47.521   6.265  14.184  0.00  0.00    +0.000 N 
ATOM      6  N   UNL     1      45.977   4.694  13.578  0.00  0.00    +0.000 NA
ATOM      7  C   UNL     1      45.100   4.175  12.679  0.00  0.00    +0.000 A 
ATOM      8  H   UNL     1      47.523   5.717  15.033  0.00  0.00    +0.000 HD
ENDROOT
BRANCH   1  10
ATOM      9  N   UNL     1      43.937   4.460   9.196  0.00  0.00    +0.000 N 
ATOM     10  C   UNL     1      43.941   4.045  10.496  0.00  0.00    +0.000 C 
ATOM     11  O   UNL     1      43.194   3.159  10.886  0.00  0.00    +0.000 OA
ATOM     12  H   UNL     1      43.334   3.949   8.560  0.00  0.00    +0.000 HD
ATOM     13  H   UNL     1      44.690   5.000   8.790  0.00  0.00    +0.000 HD
ENDBRANCH   1  10
BRANCH   5  14
ATOM     14  C   UNL     1      48.293   7.487  14.111  0.00  0.00    +0.000 C 
BRANCH  14  15
ATOM     15  C   UNL     1      48.906   7.858  15.447  0.00  0.00    +0.000 A 
ATOM     16  C   UNL     1      48.911   6.918  16.479  0.00  0.00    +0.000 A 
ATOM     17  C   UNL     1      49.407   7.240  17.744  0.00  0.00    +0.000 A 
ATOM     18  C   UNL     1      49.910   8.532  17.897  0.00  0.00    +0.000 A 
ATOM     19  C   UNL     1      49.884   9.415  16.825  0.00  0.00    +0.000 A 
ATOM     20  N   UNL     1      49.392   9.111  15.605  0.00  0.00    +0.000 NA
BRANCH  17  21
ATOM     21  N   UNL     1      49.418   6.307  18.756  0.00  0.00    +0.000 N 
ATOM     22  C   UNL     1      49.719   4.885  18.543  0.00  0.00    +0.000 C 
ATOM     23  C   UNL     1      48.718   4.040  19.355  0.00  0.00    +0.000 C 
ATOM     24  O   UNL     1      48.720   4.396  20.749  0.00  0.00    +0.000 OA
ATOM     25  C   UNL     1      48.376   5.783  20.912  0.00  0.00    +0.000 C 
ATOM     26  C   UNL     1      49.372   6.692  20.177  0.00  0.00    +0.000 C 
ENDBRANCH  17  21
ENDBRANCH  14  15
ENDBRANCH   5  14
TORSDOF 4
ENDMDL
