MODEL 1
REMARK VINA RESULT:    -7.728      0.000      0.000
REMARK INTER + INTRA:         -10.841
REMARK INTER:                  -9.987
REMARK INTRA:                  -0.855
REMARK UNBOUND:                -0.855
REMARK  Name = 
REMARK  5 active torsions:
REMARK  status: ('A' for Active; 'I' for Inactive)
REMARK    1  A    between atoms: C_2  and  C_3
REMARK    2  A    between atoms: C_6  and  N_7
REMARK    3  A    between atoms: N_7  and  C_8
REMARK    4  A    between atoms: C_8  and  C_9
REMARK    5  A    between atoms: C_13  and  C_14
REMARK                            x       y       z     vdW  Elec       q    Type
REMARK                         _______ _______ _______ _____ _____    ______ ____
ROOT
ATOM      1  C   UNL     1      43.828   4.996  11.241  0.00  0.00    +0.000 C 
ATOM      2  C   UNL     1      42.505   5.301  11.945  0.00  0.00    +0.000 C 
ATOM      3  C   UNL     1      43.085   6.294  10.994  0.00  0.00    +0.000 C 
ENDROOT
BRANCH   1   4
ATOM      4  C   UNL     1      45.081   5.064  12.109  0.00  0.00    +0.000 A 
ATOM      5  C   UNL     1      45.396   4.068  13.041  0.00  0.00    +0.000 A 
ATOM      6  C   UNL     1      46.637   4.045  13.675  0.00  0.00    +0.000 A 
ATOM      7  C   UNL     1      47.570   5.049  13.419  0.00  0.00    +0.000 A 
ATOM      8  C   UNL     1      47.259   6.127  12.576  0.00  0.00    +0.000 A 
ATOM      9  C   UNL     1      46.018   6.097  11.925  0.00  0.00    +0.000 A 
BRANCH   8  10
ATOM     10  C   UNL     1      48.284   7.240  12.367  0.00  0.00    +0.000 C 
ATOM     11  C   UNL     1      49.062   7.558  13.659  0.00  0.00    +0.000 C 
ATOM     12  C   UNL     1      48.237   8.400  14.632  0.00  0.00    +0.000 C 
ATOM     13  N   UNL     1      47.793   9.657  14.025  0.00  0.00    +0.000 NA
ATOM     14  C   UNL     1      46.997   9.411  12.823  0.00  0.00    +0.000 C 
ATOM     15  C   UNL     1      47.752   8.570  11.789  0.00  0.00    +0.000 C 
ATOM     16  H   UNL     1      48.607  10.218  13.780  0.00  0.00    +0.000 HD
ENDBRANCH   8  10
ENDBRANCH   1   4
BRANCH   1  17
ATOM     17  N   UNL     1      43.779   3.886  10.295  0.00  0.00    +0.000 N 
ATOM     18  H   UNL     1      43.103   3.140  10.409  0.00  0.00    +0.000 HD
BRANCH  17  22
ATOM     19  C   UNL     1      46.602   2.619   7.598  0.00  0.00    +0.000 A 
ATOM     20  C   UNL     1      45.946   1.754   8.455  0.00  0.00    +0.000 A 
ATOM     21  N   UNL     1      45.026   2.175   9.360  0.00  0.00    +0.000 NA
ATOM     22  C   UNL     1      44.762   3.503   9.396  0.00  0.00    +0.000 A 
ATOM     23  C   UNL     1      45.439   4.364   8.530  0.00  0.00    +0.000 A 
ATOM     24  N   UNL     1      46.367   3.954   7.620  0.00  0.00    +0.000 NA
BRANCH  19  26
ATOM     25  N   UNL     1      48.287   1.686   5.865  0.00  0.00    +0.000 NA
ATOM     26  C   UNL     1      47.541   2.128   6.632  0.00  0.00    +0.000 C 
ENDBRANCH  19  26
ENDBRANCH  17  22
ENDBRANCH   1  17
TORSDOF 5
ENDMDL
MODEL 2
REMARK VINA RESULT:    -7.035      1.253      2.146
REMARK INTER + INTRA:          -9.946
REMARK INTER:                 -10.141
REMARK INTRA:                   0.194
REMARK UNBOUND:                -0.855
REMARK  Name = 
REMARK  5 active torsions:
REMARK  status: ('A' for Active; 'I' for Inactive)
REMARK    1  A    between atoms: C_2  and  C_3
REMARK    2  A    between atoms: C_6  and  N_7
REMARK    3  A    between atoms: N_7  and  C_8
REMARK    4  A    between atoms: C_8  and  C_9
REMARK    5  A    between atoms: C_13  and  C_14
REMARK                            x       y       z     vdW  Elec       q    Type
REMARK                         _______ _______ _______ _____ _____    ______ ____
ROOT
ATOM      1  C   UNL     1      43.900   5.201  11.334  0.00  0.00    +0.000 C 
ATOM      2  C   UNL     1      43.962   4.099  12.393  0.00  0.00    +0.000 C 
ATOM      3  C   UNL     1      42.817   5.055  12.385  0.00  0.00    +0.000 C 
ENDROOT
BRANCH   1   4
ATOM      4  C   UNL     1      44.887   6.351  11.505  0.00  0.00    +0.000 A 
ATOM      5  C   UNL     1      44.485   7.691  11.455  0.00  0.00    +0.000 A 
ATOM      6  C   UNL     1      45.358   8.717  11.811  0.00  0.00    +0.000 A 
ATOM      7  C   UNL     1      46.669   8.420  12.182  0.00  0.00    +0.000 A 
ATOM      8  C   UNL     1      47.150   7.102  12.144  0.00  0.00    +0.000 A 
ATOM      9  C   UNL     1      46.235   6.092  11.819  0.00  0.00    +0.000 A 
BRANCH   8  10
ATOM     10  C   UNL     1      48.609   6.822  12.499  0.00  0.00    +0.000 C 
ATOM     11  C   UNL     1      48.815   6.683  14.021  0.00  0.00    +0.000 C 
ATOM     12  C   UNL     1      48.827   8.040  14.724  0.00  0.00    +0.000 C 
ATOM     13  N   UNL     1      49.863   8.925  14.185  0.00  0.00    +0.000 NA
ATOM     14  C   UNL     1      49.679   9.139  12.751  0.00  0.00    +0.000 C 
ATOM     15  C   UNL     1      49.656   7.824  11.965  0.00  0.00    +0.000 C 
ATOM     16  H   UNL     1      50.778   8.510  14.349  0.00  0.00    +0.000 HD
ENDBRANCH   8  10
ENDBRANCH   1   4
BRANCH   1  17
ATOM     17  N   UNL     1      43.716   4.729   9.966  0.00  0.00    +0.000 N 
ATOM     18  H   UNL     1      42.791   4.688   9.554  0.00  0.00    +0.000 HD
BRANCH  17  22
ATOM     19  C   UNL     1      46.471   2.666   7.729  0.00  0.00    +0.000 A 
ATOM     20  C   UNL     1      46.323   4.039   7.651  0.00  0.00    +0.000 A 
ATOM     21  N   UNL     1      45.399   4.720   8.377  0.00  0.00    +0.000 NA
ATOM     22  C   UNL     1      44.609   3.993   9.202  0.00  0.00    +0.000 A 
ATOM     23  C   UNL     1      44.766   2.607   9.263  0.00  0.00    +0.000 A 
ATOM     24  N   UNL     1      45.686   1.912   8.537  0.00  0.00    +0.000 NA
BRANCH  19  26
ATOM     25  N   UNL     1      48.265   1.425   6.331  0.00  0.00    +0.000 NA
ATOM     26  C   UNL     1      47.483   1.990   6.970  0.00  0.00    +0.000 C 
ENDBRANCH  19  26
ENDBRANCH  17  22
ENDBRANCH   1  17
TORSDOF 5
ENDMDL
MODEL 3
REMARK VINA RESULT:    -6.326      2.366      7.152
REMARK INTER + INTRA:          -9.030
REMARK INTER:                  -8.930
REMARK INTRA:                  -0.100
REMARK UNBOUND:                -0.855
REMARK  Name = 
REMARK  5 active torsions:
REMARK  status: ('A' for Active; 'I' for Inactive)
REMARK    1  A    between atoms: C_2  and  C_3
REMARK    2  A    between atoms: C_6  and  N_7
REMARK    3  A    between atoms: N_7  and  C_8
REMARK    4  A    between atoms: C_8  and  C_9
REMARK    5  A    between atoms: C_13  and  C_14
REMARK                            x       y       z     vdW  Elec       q    Type
REMARK                         _______ _______ _______ _____ _____    ______ ____
ROOT
ATOM      1  C   UNL     1      44.914   3.619  12.356  0.00  0.00    +0.000 C 
ATOM      2  C   UNL     1      43.776   4.287  13.129  0.00  0.00    +0.000 C 
ATOM      3  C   UNL     1      43.579   2.926  12.550  0.00  0.00    +0.000 C 
ENDROOT
BRANCH   1   4
ATOM      4  C   UNL     1      45.210   4.188  10.972  0.00  0.00    +0.000 A 
ATOM      5  C   UNL     1      45.667   5.499  10.788  0.00  0.00    +0.000 A 
ATOM      6  C   UNL     1      46.121   5.932   9.544  0.00  0.00    +0.000 A 
ATOM      7  C   UNL     1      46.083   5.070   8.448  0.00  0.00    +0.000 A 
ATOM      8  C   UNL     1      45.533   3.784   8.559  0.00  0.00    +0.000 A 
ATOM      9  C   UNL     1      45.123   3.367   9.832  0.00  0.00    +0.000 A 
BRANCH   8  10
ATOM     10  C   UNL     1      45.453   2.890   7.323  0.00  0.00    +0.000 C 
ATOM     11  C   UNL     1      45.569   1.395   7.684  0.00  0.00    +0.000 C 
ATOM     12  C   UNL     1      47.012   0.987   7.977  0.00  0.00    +0.000 C 
ATOM     13  N   UNL     1      47.900   1.271   6.847  0.00  0.00    +0.000 NA
ATOM     14  C   UNL     1      47.874   2.691   6.499  0.00  0.00    +0.000 C 
ATOM     15  C   UNL     1      46.458   3.187   6.188  0.00  0.00    +0.000 C 
ATOM     16  H   UNL     1      47.605   0.722   6.042  0.00  0.00    +0.000 HD
ENDBRANCH   8  10
ENDBRANCH   1   4
BRANCH   1  17
ATOM     17  N   UNL     1      46.084   3.278  13.158  0.00  0.00    +0.000 N 
ATOM     18  H   UNL     1      46.325   2.308  13.332  0.00  0.00    +0.000 HD
BRANCH  17  22
ATOM     19  C   UNL     1      48.208   5.591  15.801  0.00  0.00    +0.000 A 
ATOM     20  C   UNL     1      47.621   4.391  16.163  0.00  0.00    +0.000 A 
ATOM     21  N   UNL     1      46.903   3.635  15.293  0.00  0.00    +0.000 NA
ATOM     22  C   UNL     1      46.778   4.104  14.029  0.00  0.00    +0.000 A 
ATOM     23  C   UNL     1      47.369   5.320  13.683  0.00  0.00    +0.000 A 
ATOM     24  N   UNL     1      48.090   6.090  14.546  0.00  0.00    +0.000 NA
BRANCH  19  26
ATOM     25  N   UNL     1      49.625   6.906  17.526  0.00  0.00    +0.000 NA
ATOM     26  C   UNL     1      48.989   6.341  16.741  0.00  0.00    +0.000 C 
ENDBRANCH  19  26
ENDBRANCH  17  22
ENDBRANCH   1  17
TORSDOF 5
ENDMDL
MODEL 4
REMARK VINA RESULT:    -6.057      2.928      5.636
REMARK INTER + INTRA:          -8.682
REMARK INTER:                  -7.924
REMARK INTRA:                  -0.758
REMARK UNBOUND:                -0.855
REMARK  Name = 
REMARK  5 active torsions:
REMARK  status: ('A' for Active; 'I' for Inactive)
REMARK    1  A    between atoms: C_2  and  C_3
REMARK    2  A    between atoms: C_6  and  N_7
REMARK    3  A    between atoms: N_7  and  C_8
REMARK    4  A    between atoms: C_8  and  C_9
REMARK    5  A    between atoms: C_13  and  C_14
REMARK                            x       y       z     vdW  Elec       q    Type
REMARK                         _______ _______ _______ _____ _____    ______ ____
ROOT
ATOM      1  C   UNL     1      48.191   7.817  12.695  0.00  0.00    +0.000 C 
ATOM      2  C   UNL     1      49.049   8.638  11.732  0.00  0.00    +0.000 C 
ATOM      3  C   UNL     1      49.282   7.171  11.864  0.00  0.00    +0.000 C 
ENDROOT
BRANCH   1   4
ATOM      4  C   UNL     1      48.471   8.016  14.181  0.00  0.00    +0.000 A 
ATOM      5  C   UNL     1      48.341   9.264  14.803  0.00  0.00    +0.000 A 
ATOM      6  C   UNL     1      48.405   9.385  16.190  0.00  0.00    +0.000 A 
ATOM      7  C   UNL     1      48.647   8.260  16.978  0.00  0.00    +0.000 A 
ATOM      8  C   UNL     1      48.891   7.008  16.395  0.00  0.00    +0.000 A 
ATOM      9  C   UNL     1      48.780   6.914  15.001  0.00  0.00    +0.000 A 
BRANCH   8  10
ATOM     10  C   UNL     1      49.211   5.810  17.288  0.00  0.00    +0.000 C 
ATOM     11  C   UNL     1      48.729   4.484  16.667  0.00  0.00    +0.000 C 
ATOM     12  C   UNL     1      47.221   4.292  16.825  0.00  0.00    +0.000 C 
ATOM     13  N   UNL     1      46.810   4.335  18.230  0.00  0.00    +0.000 NA
ATOM     14  C   UNL     1      47.191   5.601  18.854  0.00  0.00    +0.000 C 
ATOM     15  C   UNL     1      48.695   5.874  18.741  0.00  0.00    +0.000 C 
ATOM     16  H   UNL     1      47.250   3.566  18.733  0.00  0.00    +0.000 HD
ENDBRANCH   8  10
ENDBRANCH   1   4
BRANCH   1  17
ATOM     17  N   UNL     1      46.781   7.717  12.330  0.00  0.00    +0.000 N 
ATOM     18  H   UNL     1      46.157   8.505  12.464  0.00  0.00    +0.000 HD
BRANCH  17  22
ATOM     19  C   UNL     1      44.524   4.328  11.817  0.00  0.00    +0.000 A 
ATOM     20  C   UNL     1      44.961   4.753  13.059  0.00  0.00    +0.000 A 
ATOM     21  N   UNL     1      45.724   5.864  13.227  0.00  0.00    +0.000 NA
ATOM     22  C   UNL     1      46.049   6.561  12.112  0.00  0.00    +0.000 A 
ATOM     23  C   UNL     1      45.606   6.114  10.866  0.00  0.00    +0.000 A 
ATOM     24  N   UNL     1      44.844   4.999  10.683  0.00  0.00    +0.000 NA
BRANCH  19  26
ATOM     25  N   UNL     1      43.043   2.211  11.620  0.00  0.00    +0.000 NA
ATOM     26  C   UNL     1      43.691   3.168  11.688  0.00  0.00    +0.000 C 
ENDBRANCH  19  26
ENDBRANCH  17  22
ENDBRANCH   1  17
TORSDOF 5
ENDMDL
MODEL 5
REMARK VINA RESULT:    -6.030      3.133      7.737
REMARK INTER + INTRA:          -8.647
REMARK INTER:                  -7.763
REMARK INTRA:                  -0.883
REMARK UNBOUND:                -0.855
REMARK  Name = 
REMARK  5 active torsions:
REMARK  status: ('A' for Active; 'I' for Inactive)
REMARK    1  A    between atoms: C_2  and  C_3
REMARK    2  A    between atoms: C_6  and  N_7
REMARK    3  A    between atoms: N_7  and  C_8
REMARK    4  A    between atoms: C_8  and  C_9
REMARK    5  A    between atoms: C_13  and  C_14
REMARK                            x       y       z     vdW  Elec       q    Type
REMARK                         _______ _______ _______ _____ _____    ______ ____
ROOT
ATOM      1  C   UNL     1      48.887   7.736  12.666  0.00  0.00    +0.000 C 
ATOM      2  C   UNL     1      49.737   7.777  11.395  0.00  0.00    +0.000 C 
ATOM      3  C   UNL     1      49.672   8.975  12.282  0.00  0.00    +0.000 C 
ENDROOT
BRANCH   1   4
ATOM      4  C   UNL     1      47.376   7.777  12.464  0.00  0.00    +0.000 A 
ATOM      5  C   UNL     1      46.622   8.930  12.715  0.00  0.00    +0.000 A 
ATOM      6  C   UNL     1      45.284   9.009  12.335  0.00  0.00    +0.000 A 
ATOM      7  C   UNL     1      44.662   7.914  11.736  0.00  0.00    +0.000 A 
ATOM      8  C   UNL     1      45.346   6.701  11.562  0.00  0.00    +0.000 A 
ATOM      9  C   UNL     1      46.701   6.669  11.918  0.00  0.00    +0.000 A 
BRANCH   8  10
ATOM     10  C   UNL     1      44.614   5.504  10.956  0.00  0.00    +0.000 C 
ATOM     11  C   UNL     1      43.164   5.396  11.468  0.00  0.00    +0.000 C 
ATOM     12  C   UNL     1      43.096   4.816  12.881  0.00  0.00    +0.000 C 
ATOM     13  N   UNL     1      43.727   3.496  12.959  0.00  0.00    +0.000 NA
ATOM     14  C   UNL     1      45.126   3.553  12.540  0.00  0.00    +0.000 C 
ATOM     15  C   UNL     1      45.286   4.124  11.127  0.00  0.00    +0.000 C 
ATOM     16  H   UNL     1      43.222   2.846  12.359  0.00  0.00    +0.000 HD
ENDBRANCH   8  10
ENDBRANCH   1   4
BRANCH   1  17
ATOM     17  N   UNL     1      49.359   6.811  13.691  0.00  0.00    +0.000 N 
ATOM     18  H   UNL     1      49.812   5.941  13.433  0.00  0.00    +0.000 HD
BRANCH  17  22
ATOM     19  C   UNL     1      48.344   6.564  17.661  0.00  0.00    +0.000 A 
ATOM     20  C   UNL     1      48.326   5.469  16.816  0.00  0.00    +0.000 A 
ATOM     21  N   UNL     1      48.643   5.554  15.498  0.00  0.00    +0.000 NA
ATOM     22  C   UNL     1      48.989   6.776  15.027  0.00  0.00    +0.000 A 
ATOM     23  C   UNL     1      48.995   7.872  15.891  0.00  0.00    +0.000 A 
ATOM     24  N   UNL     1      48.675   7.801  17.214  0.00  0.00    +0.000 NA
BRANCH  19  26
ATOM     25  N   UNL     1      47.753   6.345  20.174  0.00  0.00    +0.000 NA
ATOM     26  C   UNL     1      48.036   6.424  19.054  0.00  0.00    +0.000 C 
ENDBRANCH  19  26
ENDBRANCH  17  22
ENDBRANCH   1  17
TORSDOF 5
ENDMDL
MODEL 6
REMARK VINA RESULT:    -5.886      5.220      7.993
REMARK INTER + INTRA:          -8.462
REMARK INTER:                  -8.145
REMARK INTRA:                  -0.317
REMARK UNBOUND:                -0.855
REMARK  Name = 
REMARK  5 active torsions:
REMARK  status: ('A' for Active; 'I' for Inactive)
REMARK    1  A    between atoms: C_2  and  C_3
REMARK    2  A    between atoms: C_6  and  N_7
REMARK    3  A    between atoms: N_7  and  C_8
REMARK    4  A    between atoms: C_8  and  C_9
REMARK    5  A    between atoms: C_13  and  C_14
REMARK                            x       y       z     vdW  Elec       q    Type
REMARK                         _______ _______ _______ _____ _____    ______ ____
ROOT
ATOM      1  C   UNL     1      48.164   4.587  16.930  0.00  0.00    +0.000 C 
ATOM      2  C   UNL     1      47.099   4.791  18.008  0.00  0.00    +0.000 C 
ATOM      3  C   UNL     1      47.198   3.480  17.304  0.00  0.00    +0.000 C 
ENDROOT
BRANCH   1   4
ATOM      4  C   UNL     1      47.924   5.304  15.605  0.00  0.00    +0.000 A 
ATOM      5  C   UNL     1      48.622   6.464  15.248  0.00  0.00    +0.000 A 
ATOM      6  C   UNL     1      48.536   6.986  13.959  0.00  0.00    +0.000 A 
ATOM      7  C   UNL     1      47.709   6.379  13.015  0.00  0.00    +0.000 A 
ATOM      8  C   UNL     1      46.907   5.279  13.356  0.00  0.00    +0.000 A 
ATOM      9  C   UNL     1      47.049   4.756  14.648  0.00  0.00    +0.000 A 
BRANCH   8  10
ATOM     10  C   UNL     1      45.969   4.678  12.311  0.00  0.00    +0.000 C 
ATOM     11  C   UNL     1      45.629   5.685  11.194  0.00  0.00    +0.000 C 
ATOM     12  C   UNL     1      44.588   6.710  11.645  0.00  0.00    +0.000 C 
ATOM     13  N   UNL     1      43.352   6.069  12.099  0.00  0.00    +0.000 NA
ATOM     14  C   UNL     1      43.610   5.144  13.202  0.00  0.00    +0.000 C 
ATOM     15  C   UNL     1      44.646   4.077  12.834  0.00  0.00    +0.000 C 
ATOM     16  H   UNL     1      42.933   5.559  11.323  0.00  0.00    +0.000 HD
ENDBRANCH   8  10
ENDBRANCH   1   4
BRANCH   1  17
ATOM     17  N   UNL     1      49.541   4.607  17.414  0.00  0.00    +0.000 N 
ATOM     18  H   UNL     1      50.036   5.485  17.525  0.00  0.00    +0.000 HD
BRANCH  17  22
ATOM     19  C   UNL     1      52.240   1.526  17.670  0.00  0.00    +0.000 A 
ATOM     20  C   UNL     1      52.536   2.814  18.078  0.00  0.00    +0.000 A 
ATOM     21  N   UNL     1      51.650   3.838  17.976  0.00  0.00    +0.000 NA
ATOM     22  C   UNL     1      50.435   3.549  17.451  0.00  0.00    +0.000 A 
ATOM     23  C   UNL     1      50.155   2.245  17.037  0.00  0.00    +0.000 A 
ATOM     24  N   UNL     1      51.037   1.210  17.131  0.00  0.00    +0.000 NA
BRANCH  19  26
ATOM     25  N   UNL     1      53.992  -0.358  17.979  0.00  0.00    +0.000 NA
ATOM     26  C   UNL     1      53.193   0.466  17.828  0.00  0.00    +0.000 C 
ENDBRANCH  19  26
ENDBRANCH  17  22
ENDBRANCH   1  17
TORSDOF 5
ENDMDL
MODEL 7
REMARK VINA RESULT:    -5.557      3.409      6.065
REMARK INTER + INTRA:          -8.036
REMARK INTER:                  -7.533
REMARK INTRA:                  -0.503
REMARK UNBOUND:                -0.855
REMARK  Name = 
REMARK  5 active torsions:
REMARK  status: ('A' for Active; 'I' for Inactive)
REMARK    1  A    between atoms: C_2  and  C_3
REMARK    2  A    between atoms: C_6  and  N_7
REMARK    3  A    between atoms: N_7  and  C_8
REMARK    4  A    between atoms: C_8  and  C_9
REMARK    5  A    between atoms: C_13  and  C_14
REMARK                            x       y       z     vdW  Elec       q    Type
REMARK                         _______ _______ _______ _____ _____    ______ ____
ROOT
ATOM      1  C   UNL     1      48.321   7.677  13.415  0.00  0.00    +0.000 C 
ATOM      2  C   UNL     1      48.533   9.018  12.712  0.00  0.00    +0.000 C 
ATOM      3  C   UNL     1      48.804   7.747  11.980  0.00  0.00    +0.000 C 
ENDROOT
BRANCH   1   4
ATOM      4  C   UNL     1      49.348   7.307  14.480  0.00  0.00    +0.000 A 
ATOM      5  C   UNL     1      50.676   7.749  14.419  0.00  0.00    +0.000 A 
ATOM      6  C   UNL     1      51.542   7.571  15.496  0.00  0.00    +0.000 A 
ATOM      7  C   UNL     1      51.104   6.904  16.640  0.00  0.00    +0.000 A 
ATOM      8  C   UNL     1      49.818   6.349  16.706  0.00  0.00    +0.000 A 
ATOM      9  C   UNL     1      48.960   6.581  15.622  0.00  0.00    +0.000 A 
BRANCH   8  10
ATOM     10  C   UNL     1      49.394   5.573  17.952  0.00  0.00    +0.000 C 
ATOM     11  C   UNL     1      50.578   4.821  18.593  0.00  0.00    +0.000 C 
ATOM     12  C   UNL     1      50.928   3.545  17.828  0.00  0.00    +0.000 C 
ATOM     13  N   UNL     1      49.784   2.635  17.732  0.00  0.00    +0.000 NA
ATOM     14  C   UNL     1      48.648   3.281  17.076  0.00  0.00    +0.000 C 
ATOM     15  C   UNL     1      48.229   4.574  17.782  0.00  0.00    +0.000 C 
ATOM     16  H   UNL     1      49.510   2.341  18.668  0.00  0.00    +0.000 HD
ENDBRANCH   8  10
ENDBRANCH   1   4
BRANCH   1  17
ATOM     17  N   UNL     1      46.934   7.370  13.748  0.00  0.00    +0.000 N 
ATOM     18  H   UNL     1      46.520   7.718  14.606  0.00  0.00    +0.000 HD
BRANCH  17  22
ATOM     19  C   UNL     1      44.588   4.327  12.304  0.00  0.00    +0.000 A 
ATOM     20  C   UNL     1      45.647   4.108  13.166  0.00  0.00    +0.000 A 
ATOM     21  N   UNL     1      46.435   5.113  13.629  0.00  0.00    +0.000 NA
ATOM     22  C   UNL     1      46.141   6.367  13.211  0.00  0.00    +0.000 A 
ATOM     23  C   UNL     1      45.074   6.569  12.335  0.00  0.00    +0.000 A 
ATOM     24  N   UNL     1      44.278   5.570  11.860  0.00  0.00    +0.000 NA
BRANCH  19  26
ATOM     25  N   UNL     1      43.051   2.392  11.525  0.00  0.00    +0.000 NA
ATOM     26  C   UNL     1      43.759   3.242  11.866  0.00  0.00    +0.000 C 
ENDBRANCH  19  26
ENDBRANCH  17  22
ENDBRANCH   1  17
TORSDOF 5
ENDMDL
MODEL 8
REMARK VINA RESULT:    -5.433      3.992      6.070
REMARK INTER + INTRA:          -7.876
REMARK INTER:                  -7.120
REMARK INTRA:                  -0.755
REMARK UNBOUND:                -0.855
REMARK  Name = 
REMARK  5 active torsions:
REMARK  status: ('A' for Active; 'I' for Inactive)
REMARK    1  A    between atoms: C_2  and  C_3
REMARK    2  A    between atoms: C_6  and  N_7
REMARK    3  A    between atoms: N_7  and  C_8
REMARK    4  A    between atoms: C_8  and  C_9
REMARK    5  A    between atoms: C_13  and  C_14
REMARK                            x       y       z     vdW  Elec       q    Type
REMARK                         _______ _______ _______ _____ _____    ______ ____
ROOT
ATOM      1  C   UNL     1      45.915   4.736  13.513  0.00  0.00    +0.000 C 
ATOM      2  C   UNL     1      44.773   3.897  12.940  0.00  0.00    +0.000 C 
ATOM      3  C   UNL     1      46.186   3.534  12.630  0.00  0.00    +0.000 C 
ENDROOT
BRANCH   1   4
ATOM      4  C   UNL     1      46.110   6.116  12.893  0.00  0.00    +0.000 A 
ATOM      5  C   UNL     1      45.077   7.060  12.833  0.00  0.00    +0.000 A 
ATOM      6  C   UNL     1      45.329   8.375  12.449  0.00  0.00    +0.000 A 
ATOM      7  C   UNL     1      46.615   8.759  12.072  0.00  0.00    +0.000 A 
ATOM      8  C   UNL     1      47.659   7.824  12.011  0.00  0.00    +0.000 A 
ATOM      9  C   UNL     1      47.382   6.520  12.442  0.00  0.00    +0.000 A 
BRANCH   8  10
ATOM     10  C   UNL     1      49.042   8.268  11.536  0.00  0.00    +0.000 C 
ATOM     11  C   UNL     1      50.172   7.530  12.281  0.00  0.00    +0.000 C 
ATOM     12  C   UNL     1      50.394   8.090  13.686  0.00  0.00    +0.000 C 
ATOM     13  N   UNL     1      50.699   9.522  13.660  0.00  0.00    +0.000 NA
ATOM     14  C   UNL     1      49.628  10.280  13.014  0.00  0.00    +0.000 C 
ATOM     15  C   UNL     1      49.339   9.782  11.594  0.00  0.00    +0.000 C 
ATOM     16  H   UNL     1      51.570   9.671  13.152  0.00  0.00    +0.000 HD
ENDBRANCH   8  10
ENDBRANCH   1   4
BRANCH   1  17
ATOM     17  N   UNL     1      46.054   4.675  14.964  0.00  0.00    +0.000 N 
ATOM     18  H   UNL     1      45.342   5.071  15.568  0.00  0.00    +0.000 HD
BRANCH  17  22
ATOM     19  C   UNL     1      49.489   3.810  17.038  0.00  0.00    +0.000 A 
ATOM     20  C   UNL     1      48.498   2.872  16.810  0.00  0.00    +0.000 A 
ATOM     21  N   UNL     1      47.353   3.164  16.141  0.00  0.00    +0.000 NA
ATOM     22  C   UNL     1      47.210   4.432  15.689  0.00  0.00    +0.000 A 
ATOM     23  C   UNL     1      48.217   5.368  15.934  0.00  0.00    +0.000 A 
ATOM     24  N   UNL     1      49.369   5.090  16.608  0.00  0.00    +0.000 NA
BRANCH  19  26
ATOM     25  N   UNL     1      51.699   3.195  18.242  0.00  0.00    +0.000 NA
ATOM     26  C   UNL     1      50.699   3.452  17.719  0.00  0.00    +0.000 C 
ENDBRANCH  19  26
ENDBRANCH  17  22
ENDBRANCH   1  17
TORSDOF 5
ENDMDL
MODEL 9
REMARK VINA RESULT:    -5.375      1.751      6.974
REMARK INTER + INTRA:          -7.801
REMARK INTER:                  -8.177
REMARK INTRA:                   0.376
REMARK UNBOUND:                -0.855
REMARK  Name = 
REMARK  5 active torsions:
REMARK  status: ('A' for Active; 'I' for Inactive)
REMARK    1  A    between atoms: C_2  and  C_3
REMARK    2  A    between atoms: C_6  and  N_7
REMARK    3  A    between atoms: N_7  and  C_8
REMARK    4  A    between atoms: C_8  and  C_9
REMARK    5  A    between atoms: C_13  and  C_14
REMARK                            x       y       z     vdW  Elec       q    Type
REMARK                         _______ _______ _______ _____ _____    ______ ____
ROOT
ATOM      1  C   UNL     1      44.430   3.938  11.714  0.00  0.00    +0.000 C 
ATOM      2  C   UNL     1      42.950   4.276  11.898  0.00  0.00    +0.000 C 
ATOM      3  C   UNL     1      43.382   2.849  11.843  0.00  0.00    +0.000 C 
ENDROOT
BRANCH   1   4
ATOM      4  C   UNL     1      45.007   4.189  10.325  0.00  0.00    +0.000 A 
ATOM      5  C   UNL     1      45.598   5.409   9.973  0.00  0.00    +0.000 A 
ATOM      6  C   UNL     1      46.295   5.550   8.774  0.00  0.00    +0.000 A 
ATOM      7  C   UNL     1      46.374   4.480   7.883  0.00  0.00    +0.000 A 
ATOM      8  C   UNL     1      45.707   3.273   8.142  0.00  0.00    +0.000 A 
ATOM      9  C   UNL     1      45.050   3.152   9.374  0.00  0.00    +0.000 A 
BRANCH   8  10
ATOM     10  C   UNL     1      45.767   2.144   7.115  0.00  0.00    +0.000 C 
ATOM     11  C   UNL     1      46.809   1.073   7.496  0.00  0.00    +0.000 C 
ATOM     12  C   UNL     1      48.236   1.527   7.189  0.00  0.00    +0.000 C 
ATOM     13  N   UNL     1      48.407   1.873   5.776  0.00  0.00    +0.000 NA
ATOM     14  C   UNL     1      47.480   2.930   5.375  0.00  0.00    +0.000 C 
ATOM     15  C   UNL     1      46.019   2.556   5.648  0.00  0.00    +0.000 C 
ATOM     16  H   UNL     1      48.241   1.046   5.205  0.00  0.00    +0.000 HD
ENDBRANCH   8  10
ENDBRANCH   1   4
BRANCH   1  17
ATOM     17  N   UNL     1      45.290   4.317  12.830  0.00  0.00    +0.000 N 
ATOM     18  H   UNL     1      45.215   3.845  13.723  0.00  0.00    +0.000 HD
BRANCH  17  22
ATOM     19  C   UNL     1      47.319   7.849  13.340  0.00  0.00    +0.000 A 
ATOM     20  C   UNL     1      45.959   7.798  13.094  0.00  0.00    +0.000 A 
ATOM     21  N   UNL     1      45.291   6.630  12.907  0.00  0.00    +0.000 NA
ATOM     22  C   UNL     1      46.017   5.489  12.972  0.00  0.00    +0.000 A 
ATOM     23  C   UNL     1      47.390   5.559  13.212  0.00  0.00    +0.000 A 
ATOM     24  N   UNL     1      48.073   6.723  13.398  0.00  0.00    +0.000 NA
BRANCH  19  26
ATOM     25  N   UNL     1      48.532  10.093  13.790  0.00  0.00    +0.000 NA
ATOM     26  C   UNL     1      47.980   9.101  13.567  0.00  0.00    +0.000 C 
ENDBRANCH  19  26
ENDBRANCH  17  22
ENDBRANCH   1  17
TORSDOF 5
ENDMDL
