MODEL 1
REMARK VINA RESULT:    -7.701      0.000      0.000
REMARK INTER + INTRA:         -10.017
REMARK INTER:                  -9.502
REMARK INTRA:                  -0.515
REMARK UNBOUND:                -0.515
REMARK  Name = 
REMARK  4 active torsions:
REMARK  status: ('A' for Active; 'I' for Inactive)
REMARK    1  A    between atoms: C_5  and  N_6
REMARK    2  A    between atoms: N_6  and  C_7
REMARK    3  A    between atoms: C_7  and  C_8
REMARK    4  A    between atoms: C_12  and  C_13
REMARK                            x       y       z     vdW  Elec       q    Type
REMARK                         _______ _______ _______ _____ _____    ______ ____
ROOT
ATOM      1  C   UNL     1      44.305   3.339  10.816  0.00  0.00    +0.000 A 
ATOM      2  C   UNL     1      43.387   2.995  11.783  0.00  0.00    +0.000 A 
ATOM      3  C   UNL     1      43.559   3.573  13.019  0.00  0.00    +0.000 A 
ATOM      4  N   UNL     1      44.546   4.440  13.298  0.00  0.00    +0.000 NA
ATOM      5  C   UNL     1      45.394   4.738  12.295  0.00  0.00    +0.000 A 
ATOM      6  N   UNL     1      45.303   4.223  11.053  0.00  0.00    +0.000 NA
ENDROOT
BRANCH   5   7
ATOM      7  C   UNL     1      46.493   5.680  12.581  0.00  0.00    +0.000 A 
ATOM      8  C   UNL     1      47.163   5.670  13.813  0.00  0.00    +0.000 A 
ATOM      9  C   UNL     1      48.186   6.575  14.042  0.00  0.00    +0.000 A 
ATOM     10  N   UNL     1      48.591   7.488  13.143  0.00  0.00    +0.000 NA
ATOM     11  C   UNL     1      47.940   7.497  11.961  0.00  0.00    +0.000 A 
ATOM     12  C   UNL     1      46.912   6.628  11.642  0.00  0.00    +0.000 A 
ENDBRANCH   5   7
BRANCH   1  13
ATOM     13  C   UNL     1      44.217   2.731   9.432  0.00  0.00    +0.000 C 
BRANCH  13  14
ATOM     14  N   UNL     1      45.363   1.871   9.157  0.00  0.00    +0.000 N 
ATOM     15  H   UNL     1      45.293   0.924   9.520  0.00  0.00    +0.000 HD
BRANCH  14  20
ATOM     16  C   UNL     1      46.883   3.294   6.070  0.00  0.00    +0.000 A 
ATOM     17  C   UNL     1      47.823   2.311   5.834  0.00  0.00    +0.000 A 
ATOM     18  N   UNL     1      47.948   1.203   6.591  0.00  0.00    +0.000 NA
ATOM     19  C   UNL     1      47.091   1.092   7.642  0.00  0.00    +0.000 A 
ATOM     20  C   UNL     1      46.098   2.017   7.983  0.00  0.00    +0.000 A 
ATOM     21  C   UNL     1      46.020   3.143   7.157  0.00  0.00    +0.000 A 
ENDBRANCH  14  20
ENDBRANCH  13  14
ENDBRANCH   1  13
TORSDOF 4
ENDMDL
MODEL 2
REMARK VINA RESULT:    -7.540      1.315      5.987
REMARK INTER + INTRA:          -9.818
REMARK INTER:                  -9.193
REMARK INTRA:                  -0.626
REMARK UNBOUND:                -0.515
REMARK  Name = 
REMARK  4 active torsions:
REMARK  status: ('A' for Active; 'I' for Inactive)
REMARK    1  A    between atoms: C_5  and  N_6
REMARK    2  A    between atoms: N_6  and  C_7
REMARK    3  A    between atoms: C_7  and  C_8
REMARK    4  A    between atoms: C_12  and  C_13
REMARK                            x       y       z     vdW  Elec       q    Type
REMARK                         _______ _______ _______ _____ _____    ______ ____
ROOT
ATOM      1  C   UNL     1      43.823   4.920  11.145  0.00  0.00    +0.000 A 
ATOM      2  C   UNL     1      43.127   3.980  11.873  0.00  0.00    +0.000 A 
ATOM      3  C   UNL     1      43.245   2.676  11.454  0.00  0.00    +0.000 A 
ATOM      4  N   UNL     1      43.999   2.302  10.407  0.00  0.00    +0.000 NA
ATOM      5  C   UNL     1      44.660   3.277   9.756  0.00  0.00    +0.000 A 
ATOM      6  N   UNL     1      44.607   4.581  10.094  0.00  0.00    +0.000 NA
ENDROOT
BRANCH   5   7
ATOM      7  C   UNL     1      45.486   2.891   8.595  0.00  0.00    +0.000 A 
ATOM      8  C   UNL     1      46.002   1.593   8.463  0.00  0.00    +0.000 A 
ATOM      9  C   UNL     1      46.776   1.274   7.361  0.00  0.00    +0.000 A 
ATOM     10  N   UNL     1      47.079   2.146   6.384  0.00  0.00    +0.000 NA
ATOM     11  C   UNL     1      46.585   3.395   6.517  0.00  0.00    +0.000 A 
ATOM     12  C   UNL     1      45.798   3.801   7.580  0.00  0.00    +0.000 A 
ENDBRANCH   5   7
BRANCH   1  13
ATOM     13  C   UNL     1      43.731   6.386  11.511  0.00  0.00    +0.000 C 
BRANCH  13  14
ATOM     14  N   UNL     1      44.531   6.689  12.693  0.00  0.00    +0.000 N 
ATOM     15  H   UNL     1      44.117   6.413  13.580  0.00  0.00    +0.000 HD
BRANCH  14  20
ATOM     16  C   UNL     1      48.082   7.631  12.094  0.00  0.00    +0.000 A 
ATOM     17  C   UNL     1      48.686   6.648  12.853  0.00  0.00    +0.000 A 
ATOM     18  N   UNL     1      48.002   5.682  13.498  0.00  0.00    +0.000 NA
ATOM     19  C   UNL     1      46.648   5.720  13.379  0.00  0.00    +0.000 A 
ATOM     20  C   UNL     1      45.923   6.661  12.640  0.00  0.00    +0.000 A 
ATOM     21  C   UNL     1      46.690   7.636  11.994  0.00  0.00    +0.000 A 
ENDBRANCH  14  20
ENDBRANCH  13  14
ENDBRANCH   1  13
TORSDOF 4
ENDMDL
MODEL 3
REMARK VINA RESULT:    -7.437      1.600      2.213
REMARK INTER + INTRA:          -9.691
REMARK INTER:                  -9.193
REMARK INTRA:                  -0.498
REMARK UNBOUND:                -0.515
REMARK  Name = 
REMARK  4 active torsions:
REMARK  status: ('A' for Active; 'I' for Inactive)
REMARK    1  A    between atoms: C_5  and  N_6
REMARK    2  A    between atoms: N_6  and  C_7
REMARK    3  A    between atoms: C_7  and  C_8
REMARK    4  A    between atoms: C_12  and  C_13
REMARK                            x       y       z     vdW  Elec       q    Type
REMARK                         _______ _______ _______ _____ _____    ______ ____
ROOT
ATOM      1  C   UNL     1      44.874   4.562  11.239  0.00  0.00    +0.000 A 
ATOM      2  C   UNL     1      45.164   3.676  12.253  0.00  0.00    +0.000 A 
ATOM      3  C   UNL     1      46.093   4.091  13.177  0.00  0.00    +0.000 A 
ATOM      4  N   UNL     1      46.692   5.292  13.134  0.00  0.00    +0.000 NA
ATOM      5  C   UNL     1      46.344   6.108  12.121  0.00  0.00    +0.000 A 
ATOM      6  N   UNL     1      45.444   5.788  11.170  0.00  0.00    +0.000 NA
ENDROOT
BRANCH   5   7
ATOM      7  C   UNL     1      46.998   7.429  12.046  0.00  0.00    +0.000 A 
ATOM      8  C   UNL     1      46.277   8.614  12.247  0.00  0.00    +0.000 A 
ATOM      9  C   UNL     1      46.928   9.833  12.163  0.00  0.00    +0.000 A 
ATOM     10  N   UNL     1      48.238   9.963  11.892  0.00  0.00    +0.000 NA
ATOM     11  C   UNL     1      48.927   8.819  11.694  0.00  0.00    +0.000 A 
ATOM     12  C   UNL     1      48.362   7.559  11.765  0.00  0.00    +0.000 A 
ENDBRANCH   5   7
BRANCH   1  13
ATOM     13  C   UNL     1      43.886   4.182  10.156  0.00  0.00    +0.000 C 
BRANCH  13  14
ATOM     14  N   UNL     1      44.457   4.371   8.828  0.00  0.00    +0.000 N 
ATOM     15  H   UNL     1      44.685   5.331   8.585  0.00  0.00    +0.000 HD
BRANCH  14  20
ATOM     16  C   UNL     1      47.101   2.668   6.835  0.00  0.00    +0.000 A 
ATOM     17  C   UNL     1      47.006   1.412   7.400  0.00  0.00    +0.000 A 
ATOM     18  N   UNL     1      46.104   1.089   8.348  0.00  0.00    +0.000 NA
ATOM     19  C   UNL     1      45.269   2.085   8.749  0.00  0.00    +0.000 A 
ATOM     20  C   UNL     1      45.266   3.393   8.253  0.00  0.00    +0.000 A 
ATOM     21  C   UNL     1      46.225   3.663   7.272  0.00  0.00    +0.000 A 
ENDBRANCH  14  20
ENDBRANCH  13  14
ENDBRANCH   1  13
TORSDOF 4
ENDMDL
MODEL 4
REMARK VINA RESULT:    -7.171      1.680      2.377
REMARK INTER + INTRA:          -9.362
REMARK INTER:                  -8.809
REMARK INTRA:                  -0.554
REMARK UNBOUND:                -0.515
REMARK  Name = 
REMARK  4 active torsions:
REMARK  status: ('A' for Active; 'I' for Inactive)
REMARK    1  A    between atoms: C_5  and  N_6
REMARK    2  A    between atoms: N_6  and  C_7
REMARK    3  A    between atoms: C_7  and  C_8
REMARK    4  A    between atoms: C_12  and  C_13
REMARK                            x       y       z     vdW  Elec       q    Type
REMARK                         _______ _______ _______ _____ _____    ______ ____
ROOT
ATOM      1  C   UNL     1      44.826   4.284  11.275  0.00  0.00    +0.000 A 
ATOM      2  C   UNL     1      44.465   5.475  10.685  0.00  0.00    +0.000 A 
ATOM      3  C   UNL     1      44.963   6.617  11.265  0.00  0.00    +0.000 A 
ATOM      4  N   UNL     1      45.770   6.609  12.339  0.00  0.00    +0.000 NA
ATOM      5  C   UNL     1      46.090   5.405  12.848  0.00  0.00    +0.000 A 
ATOM      6  N   UNL     1      45.652   4.233  12.346  0.00  0.00    +0.000 NA
ENDROOT
BRANCH   5   7
ATOM      7  C   UNL     1      46.967   5.371  14.034  0.00  0.00    +0.000 A 
ATOM      8  C   UNL     1      47.917   6.375  14.271  0.00  0.00    +0.000 A 
ATOM      9  C   UNL     1      48.723   6.303  15.394  0.00  0.00    +0.000 A 
ATOM     10  N   UNL     1      48.660   5.308  16.296  0.00  0.00    +0.000 NA
ATOM     11  C   UNL     1      47.749   4.341  16.061  0.00  0.00    +0.000 A 
ATOM     12  C   UNL     1      46.898   4.334  14.971  0.00  0.00    +0.000 A 
ENDBRANCH   5   7
BRANCH   1  13
ATOM     13  C   UNL     1      44.302   2.974  10.725  0.00  0.00    +0.000 C 
BRANCH  13  14
ATOM     14  N   UNL     1      44.173   3.021   9.273  0.00  0.00    +0.000 N 
ATOM     15  H   UNL     1      43.592   3.773   8.913  0.00  0.00    +0.000 HD
BRANCH  14  20
ATOM     16  C   UNL     1      47.098   3.061   6.970  0.00  0.00    +0.000 A 
ATOM     17  C   UNL     1      47.463   1.734   7.081  0.00  0.00    +0.000 A 
ATOM     18  N   UNL     1      46.784   0.834   7.820  0.00  0.00    +0.000 NA
ATOM     19  C   UNL     1      45.693   1.301   8.484  0.00  0.00    +0.000 A 
ATOM     20  C   UNL     1      45.222   2.618   8.450  0.00  0.00    +0.000 A 
ATOM     21  C   UNL     1      45.971   3.501   7.665  0.00  0.00    +0.000 A 
ENDBRANCH  14  20
ENDBRANCH  13  14
ENDBRANCH   1  13
TORSDOF 4
ENDMDL
MODEL 5
REMARK VINA RESULT:    -6.618      1.511      6.268
REMARK INTER + INTRA:          -8.680
REMARK INTER:                  -8.140
REMARK INTRA:                  -0.540
REMARK UNBOUND:                -0.515
REMARK  Name = 
REMARK  4 active torsions:
REMARK  status: ('A' for Active; 'I' for Inactive)
REMARK    1  A    between atoms: C_5  and  N_6
REMARK    2  A    between atoms: N_6  and  C_7
REMARK    3  A    between atoms: C_7  and  C_8
REMARK    4  A    between atoms: C_12  and  C_13
REMARK                            x       y       z     vdW  Elec       q    Type
REMARK                         _______ _______ _______ _____ _____    ______ ____
ROOT
ATOM      1  C   UNL     1      44.627   5.766  12.103  0.00  0.00    +0.000 A 
ATOM      2  C   UNL     1      43.328   5.456  12.439  0.00  0.00    +0.000 A 
ATOM      3  C   UNL     1      42.715   4.492  11.675  0.00  0.00    +0.000 A 
ATOM      4  N   UNL     1      43.323   3.856  10.660  0.00  0.00    +0.000 NA
ATOM      5  C   UNL     1      44.598   4.204  10.403  0.00  0.00    +0.000 A 
ATOM      6  N   UNL     1      45.280   5.137  11.098  0.00  0.00    +0.000 NA
ENDROOT
BRANCH   5   7
ATOM      7  C   UNL     1      45.283   3.528   9.285  0.00  0.00    +0.000 A 
ATOM      8  C   UNL     1      45.866   4.255   8.236  0.00  0.00    +0.000 A 
ATOM      9  C   UNL     1      46.495   3.581   7.204  0.00  0.00    +0.000 A 
ATOM     10  N   UNL     1      46.587   2.242   7.133  0.00  0.00    +0.000 NA
ATOM     11  C   UNL     1      46.021   1.546   8.141  0.00  0.00    +0.000 A 
ATOM     12  C   UNL     1      45.378   2.134   9.215  0.00  0.00    +0.000 A 
ENDBRANCH   5   7
BRANCH   1  13
ATOM     13  C   UNL     1      45.376   6.838  12.867  0.00  0.00    +0.000 C 
BRANCH  13  14
ATOM     14  N   UNL     1      46.575   6.299  13.499  0.00  0.00    +0.000 N 
ATOM     15  H   UNL     1      46.538   5.309  13.728  0.00  0.00    +0.000 HD
BRANCH  14  20
ATOM     16  C   UNL     1      49.426   7.848  11.673  0.00  0.00    +0.000 A 
ATOM     17  C   UNL     1      50.273   8.045  12.746  0.00  0.00    +0.000 A 
ATOM     18  N   UNL     1      49.982   7.659  14.004  0.00  0.00    +0.000 NA
ATOM     19  C   UNL     1      48.776   7.057  14.186  0.00  0.00    +0.000 A 
ATOM     20  C   UNL     1      47.835   6.801  13.182  0.00  0.00    +0.000 A 
ATOM     21  C   UNL     1      48.198   7.225  11.900  0.00  0.00    +0.000 A 
ENDBRANCH  14  20
ENDBRANCH  13  14
ENDBRANCH   1  13
TORSDOF 4
ENDMDL
MODEL 6
REMARK VINA RESULT:    -6.602      1.896      2.933
REMARK INTER + INTRA:          -8.660
REMARK INTER:                  -8.095
REMARK INTRA:                  -0.566
REMARK UNBOUND:                -0.515
REMARK  Name = 
REMARK  4 active torsions:
REMARK  status: ('A' for Active; 'I' for Inactive)
REMARK    1  A    between atoms: C_5  and  N_6
REMARK    2  A    between atoms: N_6  and  C_7
REMARK    3  A    between atoms: C_7  and  C_8
REMARK    4  A    between atoms: C_12  and  C_13
REMARK                            x       y       z     vdW  Elec       q    Type
REMARK                         _______ _______ _______ _____ _____    ______ ____
ROOT
ATOM      1  C   UNL     1      45.554   5.518  12.066  0.00  0.00    +0.000 A 
ATOM      2  C   UNL     1      45.456   4.544  13.035  0.00  0.00    +0.000 A 
ATOM      3  C   UNL     1      46.522   4.430  13.895  0.00  0.00    +0.000 A 
ATOM      4  N   UNL     1      47.609   5.217  13.832  0.00  0.00    +0.000 NA
ATOM      5  C   UNL     1      47.624   6.156  12.867  0.00  0.00    +0.000 A 
ATOM      6  N   UNL     1      46.625   6.342  11.981  0.00  0.00    +0.000 NA
ENDROOT
BRANCH   5   7
ATOM      7  C   UNL     1      48.812   7.025  12.771  0.00  0.00    +0.000 A 
ATOM      8  C   UNL     1      49.568   7.358  13.905  0.00  0.00    +0.000 A 
ATOM      9  C   UNL     1      50.673   8.181  13.771  0.00  0.00    +0.000 A 
ATOM     10  N   UNL     1      51.082   8.699  12.600  0.00  0.00    +0.000 NA
ATOM     11  C   UNL     1      50.349   8.380  11.513  0.00  0.00    +0.000 A 
ATOM     12  C   UNL     1      49.235   7.561  11.550  0.00  0.00    +0.000 A 
ENDBRANCH   5   7
BRANCH   1  13
ATOM     13  C   UNL     1      44.443   5.699  11.053  0.00  0.00    +0.000 C 
BRANCH  13  14
ATOM     14  N   UNL     1      44.068   4.427  10.445  0.00  0.00    +0.000 N 
ATOM     15  H   UNL     1      43.071   4.299  10.287  0.00  0.00    +0.000 HD
BRANCH  14  20
ATOM     16  C   UNL     1      45.811   1.823   8.436  0.00  0.00    +0.000 A 
ATOM     17  C   UNL     1      46.399   2.648   7.497  0.00  0.00    +0.000 A 
ATOM     18  N   UNL     1      46.294   3.991   7.518  0.00  0.00    +0.000 NA
ATOM     19  C   UNL     1      45.553   4.522   8.528  0.00  0.00    +0.000 A 
ATOM     20  C   UNL     1      44.912   3.794   9.536  0.00  0.00    +0.000 A 
ATOM     21  C   UNL     1      45.060   2.405   9.458  0.00  0.00    +0.000 A 
ENDBRANCH  14  20
ENDBRANCH  13  14
ENDBRANCH   1  13
TORSDOF 4
ENDMDL
MODEL 7
REMARK VINA RESULT:    -6.393      2.414      4.570
REMARK INTER + INTRA:          -8.403
REMARK INTER:                  -7.879
REMARK INTRA:                  -0.524
REMARK UNBOUND:                -0.515
REMARK  Name = 
REMARK  4 active torsions:
REMARK  status: ('A' for Active; 'I' for Inactive)
REMARK    1  A    between atoms: C_5  and  N_6
REMARK    2  A    between atoms: N_6  and  C_7
REMARK    3  A    between atoms: C_7  and  C_8
REMARK    4  A    between atoms: C_12  and  C_13
REMARK                            x       y       z     vdW  Elec       q    Type
REMARK                         _______ _______ _______ _____ _____    ______ ____
ROOT
ATOM      1  C   UNL     1      46.593   6.464  12.367  0.00  0.00    +0.000 A 
ATOM      2  C   UNL     1      47.683   7.105  11.821  0.00  0.00    +0.000 A 
ATOM      3  C   UNL     1      48.832   7.103  12.574  0.00  0.00    +0.000 A 
ATOM      4  N   UNL     1      48.928   6.506  13.774  0.00  0.00    +0.000 NA
ATOM      5  C   UNL     1      47.825   5.887  14.234  0.00  0.00    +0.000 A 
ATOM      6  N   UNL     1      46.655   5.836  13.565  0.00  0.00    +0.000 NA
ENDROOT
BRANCH   5   7
ATOM      7  C   UNL     1      47.902   5.234  15.554  0.00  0.00    +0.000 A 
ATOM      8  C   UNL     1      48.706   5.751  16.580  0.00  0.00    +0.000 A 
ATOM      9  C   UNL     1      48.754   5.104  17.804  0.00  0.00    +0.000 A 
ATOM     10  N   UNL     1      48.067   3.983  18.083  0.00  0.00    +0.000 NA
ATOM     11  C   UNL     1      47.299   3.486  17.091  0.00  0.00    +0.000 A 
ATOM     12  C   UNL     1      47.185   4.067  15.841  0.00  0.00    +0.000 A 
ENDBRANCH   5   7
BRANCH   1  13
ATOM     13  C   UNL     1      45.274   6.439  11.626  0.00  0.00    +0.000 C 
BRANCH  13  14
ATOM     14  N   UNL     1      45.459   6.081  10.224  0.00  0.00    +0.000 N 
ATOM     15  H   UNL     1      46.256   6.517   9.766  0.00  0.00    +0.000 HD
BRANCH  14  20
ATOM     16  C   UNL     1      45.348   2.931   8.243  0.00  0.00    +0.000 A 
ATOM     17  C   UNL     1      44.565   2.180   9.096  0.00  0.00    +0.000 A 
ATOM     18  N   UNL     1      44.042   2.660  10.242  0.00  0.00    +0.000 NA
ATOM     19  C   UNL     1      44.333   3.954  10.541  0.00  0.00    +0.000 A 
ATOM     20  C   UNL     1      45.112   4.815   9.759  0.00  0.00    +0.000 A 
ATOM     21  C   UNL     1      45.624   4.255   8.584  0.00  0.00    +0.000 A 
ENDBRANCH  14  20
ENDBRANCH  13  14
ENDBRANCH   1  13
TORSDOF 4
ENDMDL
MODEL 8
REMARK VINA RESULT:    -6.219      4.054      7.893
REMARK INTER + INTRA:          -8.188
REMARK INTER:                  -7.752
REMARK INTRA:                  -0.436
REMARK UNBOUND:                -0.515
REMARK  Name = 
REMARK  4 active torsions:
REMARK  status: ('A' for Active; 'I' for Inactive)
REMARK    1  A    between atoms: C_5  and  N_6
REMARK    2  A    between atoms: N_6  and  C_7
REMARK    3  A    between atoms: C_7  and  C_8
REMARK    4  A    between atoms: C_12  and  C_13
REMARK                            x       y       z     vdW  Elec       q    Type
REMARK                         _______ _______ _______ _____ _____    ______ ____
ROOT
ATOM      1  C   UNL     1      47.502   4.710  15.615  0.00  0.00    +0.000 A 
ATOM      2  C   UNL     1      48.277   5.800  15.286  0.00  0.00    +0.000 A 
ATOM      3  C   UNL     1      47.944   6.456  14.125  0.00  0.00    +0.000 A 
ATOM      4  N   UNL     1      46.918   6.091  13.338  0.00  0.00    +0.000 NA
ATOM      5  C   UNL     1      46.199   5.025  13.735  0.00  0.00    +0.000 A 
ATOM      6  N   UNL     1      46.449   4.321  14.858  0.00  0.00    +0.000 NA
ENDROOT
BRANCH   5   7
ATOM      7  C   UNL     1      45.073   4.598  12.882  0.00  0.00    +0.000 A 
ATOM      8  C   UNL     1      45.141   3.427  12.114  0.00  0.00    +0.000 A 
ATOM      9  C   UNL     1      44.064   3.065  11.322  0.00  0.00    +0.000 A 
ATOM     10  N   UNL     1      42.929   3.779  11.235  0.00  0.00    +0.000 NA
ATOM     11  C   UNL     1      42.870   4.908  11.972  0.00  0.00    +0.000 A 
ATOM     12  C   UNL     1      43.893   5.343  12.794  0.00  0.00    +0.000 A 
ENDBRANCH   5   7
BRANCH   1  13
ATOM     13  C   UNL     1      47.811   3.905  16.860  0.00  0.00    +0.000 C 
BRANCH  13  14
ATOM     14  N   UNL     1      49.078   4.314  17.456  0.00  0.00    +0.000 N 
ATOM     15  H   UNL     1      49.000   4.926  18.265  0.00  0.00    +0.000 HD
BRANCH  14  20
ATOM     16  C   UNL     1      52.466   2.882  18.030  0.00  0.00    +0.000 A 
ATOM     17  C   UNL     1      52.210   1.586  17.627  0.00  0.00    +0.000 A 
ATOM     18  N   UNL     1      51.021   1.178  17.141  0.00  0.00    +0.000 NA
ATOM     19  C   UNL     1      50.044   2.122  17.069  0.00  0.00    +0.000 A 
ATOM     20  C   UNL     1      50.180   3.463  17.444  0.00  0.00    +0.000 A 
ATOM     21  C   UNL     1      51.438   3.822  17.940  0.00  0.00    +0.000 A 
ENDBRANCH  14  20
ENDBRANCH  13  14
ENDBRANCH   1  13
TORSDOF 4
ENDMDL
MODEL 9
REMARK VINA RESULT:    -6.216      2.579      7.236
REMARK INTER + INTRA:          -8.184
REMARK INTER:                  -7.704
REMARK INTRA:                  -0.480
REMARK UNBOUND:                -0.515
REMARK  Name = 
REMARK  4 active torsions:
REMARK  status: ('A' for Active; 'I' for Inactive)
REMARK    1  A    between atoms: C_5  and  N_6
REMARK    2  A    between atoms: N_6  and  C_7
REMARK    3  A    between atoms: C_7  and  C_8
REMARK    4  A    between atoms: C_12  and  C_13
REMARK                            x       y       z     vdW  Elec       q    Type
REMARK                         _______ _______ _______ _____ _____    ______ ____
ROOT
ATOM      1  C   UNL     1      47.150   6.921  13.049  0.00  0.00    +0.000 A 
ATOM      2  C   UNL     1      46.424   8.089  13.130  0.00  0.00    +0.000 A 
ATOM      3  C   UNL     1      45.320   8.177  12.315  0.00  0.00    +0.000 A 
ATOM      4  N   UNL     1      44.933   7.194  11.486  0.00  0.00    +0.000 NA
ATOM      5  C   UNL     1      45.686   6.078  11.475  0.00  0.00    +0.000 A 
ATOM      6  N   UNL     1      46.783   5.900  12.239  0.00  0.00    +0.000 NA
ENDROOT
BRANCH   5   7
ATOM      7  C   UNL     1      45.287   4.989  10.563  0.00  0.00    +0.000 A 
ATOM      8  C   UNL     1      44.568   3.876  11.023  0.00  0.00    +0.000 A 
ATOM      9  C   UNL     1      44.217   2.874  10.135  0.00  0.00    +0.000 A 
ATOM     10  N   UNL     1      44.530   2.891   8.828  0.00  0.00    +0.000 NA
ATOM     11  C   UNL     1      45.227   3.961   8.391  0.00  0.00    +0.000 A 
ATOM     12  C   UNL     1      45.614   5.011   9.203  0.00  0.00    +0.000 A 
ENDBRANCH   5   7
BRANCH   1  13
ATOM     13  C   UNL     1      48.399   6.743  13.885  0.00  0.00    +0.000 C 
BRANCH  13  14
ATOM     14  N   UNL     1      48.079   6.659  15.306  0.00  0.00    +0.000 N 
ATOM     15  H   UNL     1      47.339   7.281  15.622  0.00  0.00    +0.000 HD
BRANCH  14  20
ATOM     16  C   UNL     1      49.077   4.056  17.774  0.00  0.00    +0.000 A 
ATOM     17  C   UNL     1      48.117   3.110  17.472  0.00  0.00    +0.000 A 
ATOM     18  N   UNL     1      47.208   3.260  16.488  0.00  0.00    +0.000 NA
ATOM     19  C   UNL     1      47.268   4.423  15.785  0.00  0.00    +0.000 A 
ATOM     20  C   UNL     1      48.191   5.453  15.994  0.00  0.00    +0.000 A 
ATOM     21  C   UNL     1      49.106   5.236  17.029  0.00  0.00    +0.000 A 
ENDBRANCH  14  20
ENDBRANCH  13  14
ENDBRANCH   1  13
TORSDOF 4
ENDMDL
