MODEL 1
REMARK VINA RESULT:    -6.894      0.000      0.000
REMARK INTER + INTRA:         -11.501
REMARK INTER:                  -9.716
REMARK INTRA:                  -1.786
REMARK UNBOUND:                -1.786
REMARK  Name = 
REMARK  8 active torsions:
REMARK  status: ('A' for Active; 'I' for Inactive)
REMARK    1  A    between atoms: C_1  and  O_2
REMARK    2  A    between atoms: O_2  and  C_3
REMARK    3  A    between atoms: C_10  and  C_11
REMARK    4  A    between atoms: N_13  and  C_14
REMARK    5  A    between atoms: C_14  and  C_15
REMARK    6  A    between atoms: C_18  and  N_19
REMARK    7  A    between atoms: N_19  and  C_20
REMARK    8  A    between atoms: C_20  and  C_21
REMARK                            x       y       z     vdW  Elec       q    Type
REMARK                         _______ _______ _______ _____ _____    ______ ____
ROOT
ATOM      1  C   UNL     1      48.119   8.715  14.536  0.00  0.00    +0.000 C 
ENDROOT
BRANCH   1   2
ATOM      2  C   UNL     1      47.368   8.153  13.358  0.00  0.00    +0.000 A 
ATOM      3  C   UNL     1      46.020   8.464  13.147  0.00  0.00    +0.000 A 
ATOM      4  C   UNL     1      45.290   7.861  12.109  0.00  0.00    +0.000 A 
ATOM      5  C   UNL     1      45.901   6.971  11.220  0.00  0.00    +0.000 A 
ATOM      6  C   UNL     1      47.257   6.675  11.440  0.00  0.00    +0.000 A 
ATOM      7  C   UNL     1      47.984   7.255  12.485  0.00  0.00    +0.000 A 
BRANCH   5   8
ATOM      8  N   UNL     1      45.097   6.316  10.244  0.00  0.00    +0.000 N 
ATOM      9  H   UNL     1      44.188   6.777  10.231  0.00  0.00    +0.000 HD
BRANCH   8  10
ATOM     10  C   UNL     1      44.965   4.873  10.474  0.00  0.00    +0.000 C 
BRANCH  10  11
ATOM     11  C   UNL     1      43.525   4.327  10.550  0.00  0.00    +0.000 C 
ATOM     12  C   UNL     1      42.588   5.109  11.484  0.00  0.00    +0.000 C 
ATOM     13  C   UNL     1      43.099   5.094  12.924  0.00  0.00    +0.000 C 
ATOM     14  C   UNL     1      43.440   3.677  13.405  0.00  0.00    +0.000 C 
ATOM     15  N   UNL     1      44.218   2.891  12.446  0.00  0.00    +0.000 NA
ATOM     16  C   UNL     1      43.618   2.888  11.105  0.00  0.00    +0.000 C 
ATOM     17  H   UNL     1      44.329   1.935  12.784  0.00  0.00    +0.000 HD
ENDBRANCH  10  11
ENDBRANCH   8  10
ENDBRANCH   5   8
ENDBRANCH   1   2
BRANCH   1  20
ATOM     18  C   UNL     1      49.399   6.962  15.701  0.00  0.00    +0.000 C 
ATOM     19  O   UNL     1      50.359   7.114  14.949  0.00  0.00    +0.000 OA
ATOM     20  N   UNL     1      48.265   7.713  15.572  0.00  0.00    +0.000 N 
ATOM     21  H   UNL     1      47.450   7.505  16.132  0.00  0.00    +0.000 HD
BRANCH  18  29
ATOM     22  C   UNL     1      47.397   4.283  16.517  0.00  0.00    +0.000 A 
ATOM     23  N   UNL     1      46.802   3.195  17.055  0.00  0.00    +0.000 NA
ATOM     24  C   UNL     1      47.338   2.653  18.150  0.00  0.00    +0.000 A 
ATOM     25  N   UNL     1      48.431   3.069  18.793  0.00  0.00    +0.000 NA
ATOM     26  C   UNL     1      48.989   4.157  18.223  0.00  0.00    +0.000 A 
ATOM     27  S   UNL     1      50.381   4.830  18.920  0.00  0.00    +0.000 S 
ATOM     28  C   UNL     1      50.450   6.036  17.723  0.00  0.00    +0.000 A 
ATOM     29  C   UNL     1      49.438   5.950  16.777  0.00  0.00    +0.000 A 
ATOM     30  C   UNL     1      48.559   4.825  17.083  0.00  0.00    +0.000 A 
BRANCH  22  32
ATOM     31  C   UNL     1      47.110   4.018  14.224  0.00  0.00    +0.000 C 
ATOM     32  O   UNL     1      46.834   4.815  15.377  0.00  0.00    +0.000 OA
ENDBRANCH  22  32
ENDBRANCH  18  29
ENDBRANCH   1  20
TORSDOF 7
ENDMDL
MODEL 2
REMARK VINA RESULT:    -6.624      4.040      8.892
REMARK INTER + INTRA:         -11.120
REMARK INTER:                 -10.142
REMARK INTRA:                  -0.978
REMARK UNBOUND:                -1.786
REMARK  Name = 
REMARK  8 active torsions:
REMARK  status: ('A' for Active; 'I' for Inactive)
REMARK    1  A    between atoms: C_1  and  O_2
REMARK    2  A    between atoms: O_2  and  C_3
REMARK    3  A    between atoms: C_10  and  C_11
REMARK    4  A    between atoms: N_13  and  C_14
REMARK    5  A    between atoms: C_14  and  C_15
REMARK    6  A    between atoms: C_18  and  N_19
REMARK    7  A    between atoms: N_19  and  C_20
REMARK    8  A    between atoms: C_20  and  C_21
REMARK                            x       y       z     vdW  Elec       q    Type
REMARK                         _______ _______ _______ _____ _____    ______ ____
ROOT
ATOM      1  C   UNL     1      47.312   3.338  16.819  0.00  0.00    +0.000 C 
ENDROOT
BRANCH   1   2
ATOM      2  C   UNL     1      48.796   3.417  17.067  0.00  0.00    +0.000 A 
ATOM      3  C   UNL     1      49.593   2.267  17.046  0.00  0.00    +0.000 A 
ATOM      4  C   UNL     1      50.957   2.324  17.378  0.00  0.00    +0.000 A 
ATOM      5  C   UNL     1      51.574   3.540  17.685  0.00  0.00    +0.000 A 
ATOM      6  C   UNL     1      50.763   4.687  17.693  0.00  0.00    +0.000 A 
ATOM      7  C   UNL     1      49.399   4.635  17.386  0.00  0.00    +0.000 A 
BRANCH   5   8
ATOM      8  N   UNL     1      52.935   3.532  18.104  0.00  0.00    +0.000 N 
ATOM      9  H   UNL     1      53.497   3.910  17.341  0.00  0.00    +0.000 HD
BRANCH   8  10
ATOM     10  C   UNL     1      53.409   2.206  18.514  0.00  0.00    +0.000 C 
BRANCH  10  11
ATOM     11  C   UNL     1      54.868   1.865  18.153  0.00  0.00    +0.000 C 
ATOM     12  C   UNL     1      55.051   1.179  16.790  0.00  0.00    +0.000 C 
ATOM     13  C   UNL     1      54.303  -0.153  16.734  0.00  0.00    +0.000 C 
ATOM     14  C   UNL     1      54.612  -1.045  17.943  0.00  0.00    +0.000 C 
ATOM     15  N   UNL     1      54.571  -0.346  19.228  0.00  0.00    +0.000 NA
ATOM     16  C   UNL     1      55.380   0.879  19.227  0.00  0.00    +0.000 C 
ATOM     17  H   UNL     1      54.876  -0.969  19.976  0.00  0.00    +0.000 HD
ENDBRANCH  10  11
ENDBRANCH   8  10
ENDBRANCH   5   8
ENDBRANCH   1   2
BRANCH   1  20
ATOM     18  C   UNL     1      46.919   4.232  14.558  0.00  0.00    +0.000 C 
ATOM     19  O   UNL     1      47.292   3.182  14.040  0.00  0.00    +0.000 OA
ATOM     20  N   UNL     1      46.891   4.388  15.914  0.00  0.00    +0.000 N 
ATOM     21  H   UNL     1      46.679   5.290  16.320  0.00  0.00    +0.000 HD
BRANCH  18  29
ATOM     22  C   UNL     1      44.145   4.842  12.612  0.00  0.00    +0.000 A 
ATOM     23  N   UNL     1      43.187   5.337  11.799  0.00  0.00    +0.000 NA
ATOM     24  C   UNL     1      43.365   6.549  11.270  0.00  0.00    +0.000 A 
ATOM     25  N   UNL     1      44.408   7.358  11.463  0.00  0.00    +0.000 NA
ATOM     26  C   UNL     1      45.340   6.822  12.279  0.00  0.00    +0.000 A 
ATOM     27  S   UNL     1      46.743   7.710  12.622  0.00  0.00    +0.000 S 
ATOM     28  C   UNL     1      47.336   6.469  13.623  0.00  0.00    +0.000 A 
ATOM     29  C   UNL     1      46.489   5.373  13.723  0.00  0.00    +0.000 A 
ATOM     30  C   UNL     1      45.295   5.586  12.911  0.00  0.00    +0.000 A 
BRANCH  22  32
ATOM     31  C   UNL     1      43.454   2.662  12.188  0.00  0.00    +0.000 C 
ATOM     32  O   UNL     1      43.931   3.595  13.159  0.00  0.00    +0.000 OA
ENDBRANCH  22  32
ENDBRANCH  18  29
ENDBRANCH   1  20
TORSDOF 7
ENDMDL
MODEL 3
REMARK VINA RESULT:    -6.617      2.322      3.165
REMARK INTER + INTRA:         -11.110
REMARK INTER:                  -9.834
REMARK INTRA:                  -1.276
REMARK UNBOUND:                -1.786
REMARK  Name = 
REMARK  8 active torsions:
REMARK  status: ('A' for Active; 'I' for Inactive)
REMARK    1  A    between atoms: C_1  and  O_2
REMARK    2  A    between atoms: O_2  and  C_3
REMARK    3  A    between atoms: C_10  and  C_11
REMARK    4  A    between atoms: N_13  and  C_14
REMARK    5  A    between atoms: C_14  and  C_15
REMARK    6  A    between atoms: C_18  and  N_19
REMARK    7  A    between atoms: N_19  and  C_20
REMARK    8  A    between atoms: C_20  and  C_21
REMARK                            x       y       z     vdW  Elec       q    Type
REMARK                         _______ _______ _______ _____ _____    ______ ____
ROOT
ATOM      1  C   UNL     1      48.703   7.410  15.528  0.00  0.00    +0.000 C 
ENDROOT
BRANCH   1   2
ATOM      2  C   UNL     1      47.950   6.848  14.351  0.00  0.00    +0.000 A 
ATOM      3  C   UNL     1      47.617   7.654  13.256  0.00  0.00    +0.000 A 
ATOM      4  C   UNL     1      46.827   7.160  12.206  0.00  0.00    +0.000 A 
ATOM      5  C   UNL     1      46.392   5.831  12.193  0.00  0.00    +0.000 A 
ATOM      6  C   UNL     1      46.741   5.031  13.295  0.00  0.00    +0.000 A 
ATOM      7  C   UNL     1      47.510   5.523  14.356  0.00  0.00    +0.000 A 
BRANCH   5   8
ATOM      8  N   UNL     1      45.517   5.404  11.154  0.00  0.00    +0.000 N 
ATOM      9  H   UNL     1      44.654   5.943  11.235  0.00  0.00    +0.000 HD
BRANCH   8  10
ATOM     10  C   UNL     1      45.253   3.962  11.173  0.00  0.00    +0.000 C 
BRANCH  10  11
ATOM     11  C   UNL     1      44.188   3.453  10.181  0.00  0.00    +0.000 C 
ATOM     12  C   UNL     1      44.515   2.107   9.517  0.00  0.00    +0.000 C 
ATOM     13  C   UNL     1      45.809   2.188   8.708  0.00  0.00    +0.000 C 
ATOM     14  C   UNL     1      45.825   3.389   7.754  0.00  0.00    +0.000 C 
ATOM     15  N   UNL     1      45.377   4.642   8.363  0.00  0.00    +0.000 NA
ATOM     16  C   UNL     1      44.087   4.502   9.051  0.00  0.00    +0.000 C 
ATOM     17  H   UNL     1      45.321   5.376   7.656  0.00  0.00    +0.000 HD
ENDBRANCH  10  11
ENDBRANCH   8  10
ENDBRANCH   5   8
ENDBRANCH   1   2
BRANCH   1  20
ATOM     18  C   UNL     1      49.805   6.104  17.302  0.00  0.00    +0.000 C 
ATOM     19  O   UNL     1      49.042   6.552  18.155  0.00  0.00    +0.000 OA
ATOM     20  N   UNL     1      49.702   6.467  15.990  0.00  0.00    +0.000 N 
ATOM     21  H   UNL     1      50.400   6.169  15.322  0.00  0.00    +0.000 HD
BRANCH  18  29
ATOM     22  C   UNL     1      50.161   2.693  16.997  0.00  0.00    +0.000 A 
ATOM     23  N   UNL     1      50.560   1.402  17.002  0.00  0.00    +0.000 NA
ATOM     24  C   UNL     1      51.747   1.105  17.534  0.00  0.00    +0.000 A 
ATOM     25  N   UNL     1      52.617   1.962  18.070  0.00  0.00    +0.000 NA
ATOM     26  C   UNL     1      52.177   3.236  18.045  0.00  0.00    +0.000 A 
ATOM     27  S   UNL     1      53.154   4.458  18.701  0.00  0.00    +0.000 S 
ATOM     28  C   UNL     1      52.004   5.648  18.309  0.00  0.00    +0.000 A 
ATOM     29  C   UNL     1      50.873   5.152  17.673  0.00  0.00    +0.000 A 
ATOM     30  C   UNL     1      50.979   3.704  17.521  0.00  0.00    +0.000 A 
BRANCH  22  32
ATOM     31  C   UNL     1      47.878   2.911  17.382  0.00  0.00    +0.000 C 
ATOM     32  O   UNL     1      48.938   2.977  16.428  0.00  0.00    +0.000 OA
ENDBRANCH  22  32
ENDBRANCH  18  29
ENDBRANCH   1  20
TORSDOF 7
ENDMDL
MODEL 4
REMARK VINA RESULT:    -6.439      2.871      3.691
REMARK INTER + INTRA:         -10.860
REMARK INTER:                  -9.777
REMARK INTRA:                  -1.083
REMARK UNBOUND:                -1.786
REMARK  Name = 
REMARK  8 active torsions:
REMARK  status: ('A' for Active; 'I' for Inactive)
REMARK    1  A    between atoms: C_1  and  O_2
REMARK    2  A    between atoms: O_2  and  C_3
REMARK    3  A    between atoms: C_10  and  C_11
REMARK    4  A    between atoms: N_13  and  C_14
REMARK    5  A    between atoms: C_14  and  C_15
REMARK    6  A    between atoms: C_18  and  N_19
REMARK    7  A    between atoms: N_19  and  C_20
REMARK    8  A    between atoms: C_20  and  C_21
REMARK                            x       y       z     vdW  Elec       q    Type
REMARK                         _______ _______ _______ _____ _____    ______ ____
ROOT
ATOM      1  C   UNL     1      47.726   8.783  13.811  0.00  0.00    +0.000 C 
ENDROOT
BRANCH   1   2
ATOM      2  C   UNL     1      46.993   7.553  13.343  0.00  0.00    +0.000 A 
ATOM      3  C   UNL     1      45.756   7.654  12.695  0.00  0.00    +0.000 A 
ATOM      4  C   UNL     1      45.023   6.507  12.350  0.00  0.00    +0.000 A 
ATOM      5  C   UNL     1      45.530   5.227  12.593  0.00  0.00    +0.000 A 
ATOM      6  C   UNL     1      46.776   5.141  13.236  0.00  0.00    +0.000 A 
ATOM      7  C   UNL     1      47.502   6.280  13.603  0.00  0.00    +0.000 A 
BRANCH   5   8
ATOM      8  N   UNL     1      44.708   4.098  12.310  0.00  0.00    +0.000 N 
ATOM      9  H   UNL     1      44.635   3.546  13.164  0.00  0.00    +0.000 HD
BRANCH   8  10
ATOM     10  C   UNL     1      45.199   3.290  11.188  0.00  0.00    +0.000 C 
BRANCH  10  11
ATOM     11  C   UNL     1      44.215   3.082  10.020  0.00  0.00    +0.000 C 
ATOM     12  C   UNL     1      44.641   2.013   9.001  0.00  0.00    +0.000 C 
ATOM     13  C   UNL     1      45.974   2.374   8.344  0.00  0.00    +0.000 C 
ATOM     14  C   UNL     1      45.986   3.810   7.804  0.00  0.00    +0.000 C 
ATOM     15  N   UNL     1      45.447   4.803   8.734  0.00  0.00    +0.000 NA
ATOM     16  C   UNL     1      44.129   4.424   9.259  0.00  0.00    +0.000 C 
ATOM     17  H   UNL     1      45.397   5.716   8.282  0.00  0.00    +0.000 HD
ENDBRANCH  10  11
ENDBRANCH   8  10
ENDBRANCH   5   8
ENDBRANCH   1   2
BRANCH   1  20
ATOM     18  C   UNL     1      48.449   8.794  16.166  0.00  0.00    +0.000 C 
ATOM     19  O   UNL     1      49.574   8.405  15.859  0.00  0.00    +0.000 OA
ATOM     20  N   UNL     1      47.487   9.012  15.221  0.00  0.00    +0.000 N 
ATOM     21  H   UNL     1      46.540   9.232  15.500  0.00  0.00    +0.000 HD
BRANCH  18  29
ATOM     22  C   UNL     1      47.963   6.734  18.881  0.00  0.00    +0.000 A 
ATOM     23  N   UNL     1      47.722   6.176  20.087  0.00  0.00    +0.000 NA
ATOM     24  C   UNL     1      47.406   6.976  21.107  0.00  0.00    +0.000 A 
ATOM     25  N   UNL     1      47.304   8.306  21.075  0.00  0.00    +0.000 NA
ATOM     26  C   UNL     1      47.550   8.818  19.852  0.00  0.00    +0.000 A 
ATOM     27  S   UNL     1      47.450  10.496  19.627  0.00  0.00    +0.000 S 
ATOM     28  C   UNL     1      47.866  10.344  17.985  0.00  0.00    +0.000 A 
ATOM     29  C   UNL     1      48.095   9.036  17.580  0.00  0.00    +0.000 A 
ATOM     30  C   UNL     1      47.899   8.123  18.702  0.00  0.00    +0.000 A 
BRANCH  22  32
ATOM     31  C   UNL     1      47.416   4.772  17.757  0.00  0.00    +0.000 C 
ATOM     32  O   UNL     1      48.303   5.888  17.847  0.00  0.00    +0.000 OA
ENDBRANCH  22  32
ENDBRANCH  18  29
ENDBRANCH   1  20
TORSDOF 7
ENDMDL
MODEL 5
REMARK VINA RESULT:    -6.402      2.020      3.032
REMARK INTER + INTRA:         -10.807
REMARK INTER:                  -9.474
REMARK INTRA:                  -1.334
REMARK UNBOUND:                -1.786
REMARK  Name = 
REMARK  8 active torsions:
REMARK  status: ('A' for Active; 'I' for Inactive)
REMARK    1  A    between atoms: C_1  and  O_2
REMARK    2  A    between atoms: O_2  and  C_3
REMARK    3  A    between atoms: C_10  and  C_11
REMARK    4  A    between atoms: N_13  and  C_14
REMARK    5  A    between atoms: C_14  and  C_15
REMARK    6  A    between atoms: C_18  and  N_19
REMARK    7  A    between atoms: N_19  and  C_20
REMARK    8  A    between atoms: C_20  and  C_21
REMARK                            x       y       z     vdW  Elec       q    Type
REMARK                         _______ _______ _______ _____ _____    ______ ____
ROOT
ATOM      1  C   UNL     1      48.805   7.140  13.775  0.00  0.00    +0.000 C 
ENDROOT
BRANCH   1   2
ATOM      2  C   UNL     1      47.616   6.439  13.171  0.00  0.00    +0.000 A 
ATOM      3  C   UNL     1      47.037   5.330  13.798  0.00  0.00    +0.000 A 
ATOM      4  C   UNL     1      45.996   4.613  13.187  0.00  0.00    +0.000 A 
ATOM      5  C   UNL     1      45.467   5.016  11.957  0.00  0.00    +0.000 A 
ATOM      6  C   UNL     1      46.052   6.137  11.343  0.00  0.00    +0.000 A 
ATOM      7  C   UNL     1      47.105   6.843  11.936  0.00  0.00    +0.000 A 
BRANCH   5   8
ATOM      8  N   UNL     1      44.477   4.203  11.336  0.00  0.00    +0.000 N 
ATOM      9  H   UNL     1      43.815   3.916  12.057  0.00  0.00    +0.000 HD
BRANCH   8  10
ATOM     10  C   UNL     1      45.035   3.046  10.628  0.00  0.00    +0.000 C 
BRANCH  10  11
ATOM     11  C   UNL     1      44.360   2.675   9.293  0.00  0.00    +0.000 C 
ATOM     12  C   UNL     1      45.103   1.614   8.468  0.00  0.00    +0.000 C 
ATOM     13  C   UNL     1      46.506   2.088   8.088  0.00  0.00    +0.000 C 
ATOM     14  C   UNL     1      46.497   3.490   7.464  0.00  0.00    +0.000 C 
ATOM     15  N   UNL     1      45.671   4.460   8.185  0.00  0.00    +0.000 NA
ATOM     16  C   UNL     1      44.313   3.962   8.439  0.00  0.00    +0.000 C 
ATOM     17  H   UNL     1      45.633   5.339   7.669  0.00  0.00    +0.000 HD
ENDBRANCH  10  11
ENDBRANCH   8  10
ENDBRANCH   5   8
ENDBRANCH   1   2
BRANCH   1  20
ATOM     18  C   UNL     1      49.957   7.061  15.951  0.00  0.00    +0.000 C 
ATOM     19  O   UNL     1      51.044   7.280  15.423  0.00  0.00    +0.000 OA
ATOM     20  N   UNL     1      48.808   6.985  15.216  0.00  0.00    +0.000 N 
ATOM     21  H   UNL     1      47.941   6.704  15.653  0.00  0.00    +0.000 HD
BRANCH  18  29
ATOM     22  C   UNL     1      48.859   4.468  17.933  0.00  0.00    +0.000 A 
ATOM     23  N   UNL     1      48.502   3.629  18.929  0.00  0.00    +0.000 NA
ATOM     24  C   UNL     1      48.639   4.043  20.190  0.00  0.00    +0.000 A 
ATOM     25  N   UNL     1      49.111   5.224  20.595  0.00  0.00    +0.000 NA
ATOM     26  C   UNL     1      49.452   6.029  19.568  0.00  0.00    +0.000 A 
ATOM     27  S   UNL     1      50.058   7.577  19.900  0.00  0.00    +0.000 S 
ATOM     28  C   UNL     1      50.237   7.911  18.243  0.00  0.00    +0.000 A 
ATOM     29  C   UNL     1      49.854   6.866  17.412  0.00  0.00    +0.000 A 
ATOM     30  C   UNL     1      49.379   5.740  18.211  0.00  0.00    +0.000 A 
BRANCH  22  32
ATOM     31  C   UNL     1      48.623   2.588  16.583  0.00  0.00    +0.000 C 
ATOM     32  O   UNL     1      48.723   4.012  16.639  0.00  0.00    +0.000 OA
ENDBRANCH  22  32
ENDBRANCH  18  29
ENDBRANCH   1  20
TORSDOF 7
ENDMDL
MODEL 6
REMARK VINA RESULT:    -6.252      2.591      4.448
REMARK INTER + INTRA:         -10.597
REMARK INTER:                  -9.314
REMARK INTRA:                  -1.283
REMARK UNBOUND:                -1.786
REMARK  Name = 
REMARK  8 active torsions:
REMARK  status: ('A' for Active; 'I' for Inactive)
REMARK    1  A    between atoms: C_1  and  O_2
REMARK    2  A    between atoms: O_2  and  C_3
REMARK    3  A    between atoms: C_10  and  C_11
REMARK    4  A    between atoms: N_13  and  C_14
REMARK    5  A    between atoms: C_14  and  C_15
REMARK    6  A    between atoms: C_18  and  N_19
REMARK    7  A    between atoms: N_19  and  C_20
REMARK    8  A    between atoms: C_20  and  C_21
REMARK                            x       y       z     vdW  Elec       q    Type
REMARK                         _______ _______ _______ _____ _____    ______ ____
ROOT
ATOM      1  C   UNL     1      47.052   4.232  15.007  0.00  0.00    +0.000 C 
ENDROOT
BRANCH   1   2
ATOM      2  C   UNL     1      46.504   4.620  13.658  0.00  0.00    +0.000 A 
ATOM      3  C   UNL     1      45.707   3.735  12.922  0.00  0.00    +0.000 A 
ATOM      4  C   UNL     1      45.281   4.053  11.623  0.00  0.00    +0.000 A 
ATOM      5  C   UNL     1      45.592   5.287  11.043  0.00  0.00    +0.000 A 
ATOM      6  C   UNL     1      46.385   6.168  11.797  0.00  0.00    +0.000 A 
ATOM      7  C   UNL     1      46.832   5.849  13.084  0.00  0.00    +0.000 A 
BRANCH   5   8
ATOM      8  N   UNL     1      45.216   5.525   9.691  0.00  0.00    +0.000 N 
ATOM      9  H   UNL     1      44.216   5.340   9.610  0.00  0.00    +0.000 HD
BRANCH   8  10
ATOM     10  C   UNL     1      45.987   4.733   8.726  0.00  0.00    +0.000 C 
BRANCH  10  11
ATOM     11  C   UNL     1      45.167   3.900   7.721  0.00  0.00    +0.000 C 
ATOM     12  C   UNL     1      44.525   2.633   8.308  0.00  0.00    +0.000 C 
ATOM     13  C   UNL     1      45.584   1.675   8.853  0.00  0.00    +0.000 C 
ATOM     14  C   UNL     1      46.705   1.410   7.840  0.00  0.00    +0.000 C 
ATOM     15  N   UNL     1      47.216   2.615   7.184  0.00  0.00    +0.000 NA
ATOM     16  C   UNL     1      46.143   3.441   6.615  0.00  0.00    +0.000 C 
ATOM     17  H   UNL     1      47.888   2.362   6.460  0.00  0.00    +0.000 HD
ENDBRANCH  10  11
ENDBRANCH   8  10
ENDBRANCH   5   8
ENDBRANCH   1   2
BRANCH   1  20
ATOM     18  C   UNL     1      48.576   5.364  16.577  0.00  0.00    +0.000 C 
ATOM     19  O   UNL     1      49.213   4.329  16.760  0.00  0.00    +0.000 OA
ATOM     20  N   UNL     1      47.508   5.404  15.727  0.00  0.00    +0.000 N 
ATOM     21  H   UNL     1      46.935   6.235  15.666  0.00  0.00    +0.000 HD
BRANCH  18  29
ATOM     22  C   UNL     1      49.326   8.555  15.523  0.00  0.00    +0.000 A 
ATOM     23  N   UNL     1      49.651   9.860  15.395  0.00  0.00    +0.000 NA
ATOM     24  C   UNL     1      49.921  10.560  16.498  0.00  0.00    +0.000 A 
ATOM     25  N   UNL     1      49.898  10.110  17.754  0.00  0.00    +0.000 NA
ATOM     26  C   UNL     1      49.572   8.804  17.833  0.00  0.00    +0.000 A 
ATOM     27  S   UNL     1      49.510   8.061  19.357  0.00  0.00    +0.000 S 
ATOM     28  C   UNL     1      49.064   6.574  18.662  0.00  0.00    +0.000 A 
ATOM     29  C   UNL     1      48.945   6.610  17.280  0.00  0.00    +0.000 A 
ATOM     30  C   UNL     1      49.256   7.949  16.785  0.00  0.00    +0.000 A 
BRANCH  22  32
ATOM     31  C   UNL     1      50.098   7.938  13.417  0.00  0.00    +0.000 C 
ATOM     32  O   UNL     1      49.037   7.857  14.370  0.00  0.00    +0.000 OA
ENDBRANCH  22  32
ENDBRANCH  18  29
ENDBRANCH   1  20
TORSDOF 7
ENDMDL
MODEL 7
REMARK VINA RESULT:    -6.234      2.168      2.620
REMARK INTER + INTRA:         -10.570
REMARK INTER:                  -9.241
REMARK INTRA:                  -1.329
REMARK UNBOUND:                -1.786
REMARK  Name = 
REMARK  8 active torsions:
REMARK  status: ('A' for Active; 'I' for Inactive)
REMARK    1  A    between atoms: C_1  and  O_2
REMARK    2  A    between atoms: O_2  and  C_3
REMARK    3  A    between atoms: C_10  and  C_11
REMARK    4  A    between atoms: N_13  and  C_14
REMARK    5  A    between atoms: C_14  and  C_15
REMARK    6  A    between atoms: C_18  and  N_19
REMARK    7  A    between atoms: N_19  and  C_20
REMARK    8  A    between atoms: C_20  and  C_21
REMARK                            x       y       z     vdW  Elec       q    Type
REMARK                         _______ _______ _______ _____ _____    ______ ____
ROOT
ATOM      1  C   UNL     1      49.623   7.834  15.403  0.00  0.00    +0.000 C 
ENDROOT
BRANCH   1   2
ATOM      2  C   UNL     1      48.776   7.318  14.269  0.00  0.00    +0.000 A 
ATOM      3  C   UNL     1      48.682   8.021  13.062  0.00  0.00    +0.000 A 
ATOM      4  C   UNL     1      47.814   7.597  12.043  0.00  0.00    +0.000 A 
ATOM      5  C   UNL     1      47.057   6.429  12.179  0.00  0.00    +0.000 A 
ATOM      6  C   UNL     1      47.169   5.730  13.392  0.00  0.00    +0.000 A 
ATOM      7  C   UNL     1      48.015   6.158  14.421  0.00  0.00    +0.000 A 
BRANCH   5   8
ATOM      8  N   UNL     1      46.124   6.093  11.157  0.00  0.00    +0.000 N 
ATOM      9  H   UNL     1      46.463   6.495  10.283  0.00  0.00    +0.000 HD
BRANCH   8  10
ATOM     10  C   UNL     1      44.756   6.529  11.453  0.00  0.00    +0.000 C 
BRANCH  10  11
ATOM     11  C   UNL     1      43.624   5.671  10.855  0.00  0.00    +0.000 C 
ATOM     12  C   UNL     1      42.457   5.385  11.812  0.00  0.00    +0.000 C 
ATOM     13  C   UNL     1      42.928   4.621  13.049  0.00  0.00    +0.000 C 
ATOM     14  C   UNL     1      43.771   3.391  12.688  0.00  0.00    +0.000 C 
ATOM     15  N   UNL     1      44.792   3.644  11.670  0.00  0.00    +0.000 NA
ATOM     16  C   UNL     1      44.245   4.307  10.479  0.00  0.00    +0.000 C 
ATOM     17  H   UNL     1      45.250   2.771  11.408  0.00  0.00    +0.000 HD
ENDBRANCH  10  11
ENDBRANCH   8  10
ENDBRANCH   5   8
ENDBRANCH   1   2
BRANCH   1  20
ATOM     18  C   UNL     1      50.321   6.178  17.088  0.00  0.00    +0.000 C 
ATOM     19  O   UNL     1      49.371   6.463  17.813  0.00  0.00    +0.000 OA
ATOM     20  N   UNL     1      50.513   6.797  15.886  0.00  0.00    +0.000 N 
ATOM     21  H   UNL     1      51.353   6.623  15.351  0.00  0.00    +0.000 HD
BRANCH  18  29
ATOM     22  C   UNL     1      50.305   2.735  17.056  0.00  0.00    +0.000 A 
ATOM     23  N   UNL     1      50.567   1.413  17.156  0.00  0.00    +0.000 NA
ATOM     24  C   UNL     1      51.739   1.033  17.667  0.00  0.00    +0.000 A 
ATOM     25  N   UNL     1      52.717   1.831  18.098  0.00  0.00    +0.000 NA
ATOM     26  C   UNL     1      52.412   3.140  17.982  0.00  0.00    +0.000 A 
ATOM     27  S   UNL     1      53.539   4.298  18.498  0.00  0.00    +0.000 S 
ATOM     28  C   UNL     1      52.503   5.569  18.049  0.00  0.00    +0.000 A 
ATOM     29  C   UNL     1      51.300   5.149  17.498  0.00  0.00    +0.000 A 
ATOM     30  C   UNL     1      51.247   3.691  17.464  0.00  0.00    +0.000 A 
BRANCH  22  32
ATOM     31  C   UNL     1      48.033   3.019  17.462  0.00  0.00    +0.000 C 
ATOM     32  O   UNL     1      49.094   3.103  16.511  0.00  0.00    +0.000 OA
ENDBRANCH  22  32
ENDBRANCH  18  29
ENDBRANCH   1  20
TORSDOF 7
ENDMDL
MODEL 8
REMARK VINA RESULT:    -6.066      2.995      4.333
REMARK INTER + INTRA:         -10.334
REMARK INTER:                  -9.330
REMARK INTRA:                  -1.004
REMARK UNBOUND:                -1.786
REMARK  Name = 
REMARK  8 active torsions:
REMARK  status: ('A' for Active; 'I' for Inactive)
REMARK    1  A    between atoms: C_1  and  O_2
REMARK    2  A    between atoms: O_2  and  C_3
REMARK    3  A    between atoms: C_10  and  C_11
REMARK    4  A    between atoms: N_13  and  C_14
REMARK    5  A    between atoms: C_14  and  C_15
REMARK    6  A    between atoms: C_18  and  N_19
REMARK    7  A    between atoms: N_19  and  C_20
REMARK    8  A    between atoms: C_20  and  C_21
REMARK                            x       y       z     vdW  Elec       q    Type
REMARK                         _______ _______ _______ _____ _____    ______ ____
ROOT
ATOM      1  C   UNL     1      47.128   4.388  15.173  0.00  0.00    +0.000 C 
ENDROOT
BRANCH   1   2
ATOM      2  C   UNL     1      46.560   4.745  13.825  0.00  0.00    +0.000 A 
ATOM      3  C   UNL     1      45.765   3.839  13.114  0.00  0.00    +0.000 A 
ATOM      4  C   UNL     1      45.320   4.130  11.814  0.00  0.00    +0.000 A 
ATOM      5  C   UNL     1      45.610   5.357  11.209  0.00  0.00    +0.000 A 
ATOM      6  C   UNL     1      46.402   6.260  11.938  0.00  0.00    +0.000 A 
ATOM      7  C   UNL     1      46.867   5.968  13.225  0.00  0.00    +0.000 A 
BRANCH   5   8
ATOM      8  N   UNL     1      45.216   5.566   9.857  0.00  0.00    +0.000 N 
ATOM      9  H   UNL     1      44.212   5.396   9.797  0.00  0.00    +0.000 HD
BRANCH   8  10
ATOM     10  C   UNL     1      45.958   4.739   8.900  0.00  0.00    +0.000 C 
BRANCH  10  11
ATOM     11  C   UNL     1      45.111   3.961   7.874  0.00  0.00    +0.000 C 
ATOM     12  C   UNL     1      44.407   2.714   8.431  0.00  0.00    +0.000 C 
ATOM     13  C   UNL     1      45.417   1.700   8.967  0.00  0.00    +0.000 C 
ATOM     14  C   UNL     1      46.535   1.403   7.959  0.00  0.00    +0.000 C 
ATOM     15  N   UNL     1      47.105   2.596   7.330  0.00  0.00    +0.000 NA
ATOM     16  C   UNL     1      46.076   3.480   6.767  0.00  0.00    +0.000 C 
ATOM     17  H   UNL     1      47.772   2.326   6.606  0.00  0.00    +0.000 HD
ENDBRANCH  10  11
ENDBRANCH   8  10
ENDBRANCH   5   8
ENDBRANCH   1   2
BRANCH   1  20
ATOM     18  C   UNL     1      48.775   5.611  16.537  0.00  0.00    +0.000 C 
ATOM     19  O   UNL     1      49.519   4.634  16.578  0.00  0.00    +0.000 OA
ATOM     20  N   UNL     1      47.588   5.576  15.862  0.00  0.00    +0.000 N 
ATOM     21  H   UNL     1      46.944   6.353  15.925  0.00  0.00    +0.000 HD
BRANCH  18  29
ATOM     22  C   UNL     1      49.498   6.402  19.809  0.00  0.00    +0.000 A 
ATOM     23  N   UNL     1      49.819   6.982  20.986  0.00  0.00    +0.000 NA
ATOM     24  C   UNL     1      50.066   8.293  21.004  0.00  0.00    +0.000 A 
ATOM     25  N   UNL     1      50.040   9.123  19.960  0.00  0.00    +0.000 NA
ATOM     26  C   UNL     1      49.713   8.503  18.808  0.00  0.00    +0.000 A 
ATOM     27  S   UNL     1      49.619   9.412  17.380  0.00  0.00    +0.000 S 
ATOM     28  C   UNL     1      49.207   8.032  16.476  0.00  0.00    +0.000 A 
ATOM     29  C   UNL     1      49.141   6.866  17.226  0.00  0.00    +0.000 A 
ATOM     30  C   UNL     1      49.440   7.153  18.626  0.00  0.00    +0.000 A 
BRANCH  22  32
ATOM     31  C   UNL     1      48.723   4.600  21.059  0.00  0.00    +0.000 C 
ATOM     32  O   UNL     1      49.263   5.044  19.813  0.00  0.00    +0.000 OA
ENDBRANCH  22  32
ENDBRANCH  18  29
ENDBRANCH   1  20
TORSDOF 7
ENDMDL
MODEL 9
REMARK VINA RESULT:    -6.005      2.293      2.770
REMARK INTER + INTRA:         -10.248
REMARK INTER:                  -8.824
REMARK INTRA:                  -1.424
REMARK UNBOUND:                -1.786
REMARK  Name = 
REMARK  8 active torsions:
REMARK  status: ('A' for Active; 'I' for Inactive)
REMARK    1  A    between atoms: C_1  and  O_2
REMARK    2  A    between atoms: O_2  and  C_3
REMARK    3  A    between atoms: C_10  and  C_11
REMARK    4  A    between atoms: N_13  and  C_14
REMARK    5  A    between atoms: C_14  and  C_15
REMARK    6  A    between atoms: C_18  and  N_19
REMARK    7  A    between atoms: N_19  and  C_20
REMARK    8  A    between atoms: C_20  and  C_21
REMARK                            x       y       z     vdW  Elec       q    Type
REMARK                         _______ _______ _______ _____ _____    ______ ____
ROOT
ATOM      1  C   UNL     1      47.901   9.397  14.283  0.00  0.00    +0.000 C 
ENDROOT
BRANCH   1   2
ATOM      2  C   UNL     1      47.151   8.521  13.314  0.00  0.00    +0.000 A 
ATOM      3  C   UNL     1      47.732   7.358  12.795  0.00  0.00    +0.000 A 
ATOM      4  C   UNL     1      47.076   6.595  11.815  0.00  0.00    +0.000 A 
ATOM      5  C   UNL     1      45.799   6.943  11.365  0.00  0.00    +0.000 A 
ATOM      6  C   UNL     1      45.225   8.109  11.901  0.00  0.00    +0.000 A 
ATOM      7  C   UNL     1      45.882   8.885  12.862  0.00  0.00    +0.000 A 
BRANCH   5   8
ATOM      8  N   UNL     1      45.217   6.192  10.304  0.00  0.00    +0.000 N 
ATOM      9  H   UNL     1      44.329   6.633  10.063  0.00  0.00    +0.000 HD
BRANCH   8  10
ATOM     10  C   UNL     1      45.039   4.772  10.627  0.00  0.00    +0.000 C 
BRANCH  10  11
ATOM     11  C   UNL     1      43.587   4.257  10.651  0.00  0.00    +0.000 C 
ATOM     12  C   UNL     1      42.620   5.093  11.504  0.00  0.00    +0.000 C 
ATOM     13  C   UNL     1      43.058   5.124  12.969  0.00  0.00    +0.000 C 
ATOM     14  C   UNL     1      43.344   3.721  13.520  0.00  0.00    +0.000 C 
ATOM     15  N   UNL     1      44.152   2.883  12.632  0.00  0.00    +0.000 NA
ATOM     16  C   UNL     1      43.621   2.839  11.264  0.00  0.00    +0.000 C 
ATOM     17  H   UNL     1      44.226   1.939  13.012  0.00  0.00    +0.000 HD
ENDBRANCH  10  11
ENDBRANCH   8  10
ENDBRANCH   5   8
ENDBRANCH   1   2
BRANCH   1  20
ATOM     18  C   UNL     1      48.282   9.559  16.711  0.00  0.00    +0.000 C 
ATOM     19  O   UNL     1      49.052  10.505  16.563  0.00  0.00    +0.000 OA
ATOM     20  N   UNL     1      47.669   8.964  15.645  0.00  0.00    +0.000 N 
ATOM     21  H   UNL     1      47.120   8.125  15.777  0.00  0.00    +0.000 HD
BRANCH  18  29
ATOM     22  C   UNL     1      48.350   6.402  18.084  0.00  0.00    +0.000 A 
ATOM     23  N   UNL     1      48.294   5.302  18.865  0.00  0.00    +0.000 NA
ATOM     24  C   UNL     1      47.919   5.443  20.138  0.00  0.00    +0.000 A 
ATOM     25  N   UNL     1      47.590   6.582  20.750  0.00  0.00    +0.000 NA
ATOM     26  C   UNL     1      47.657   7.652  19.932  0.00  0.00    +0.000 A 
ATOM     27  S   UNL     1      47.256   9.183  20.543  0.00  0.00    +0.000 S 
ATOM     28  C   UNL     1      47.573   9.914  19.040  0.00  0.00    +0.000 A 
ATOM     29  C   UNL     1      47.993   9.026  18.059  0.00  0.00    +0.000 A 
ATOM     30  C   UNL     1      48.037   7.669  18.596  0.00  0.00    +0.000 A 
BRANCH  22  32
ATOM     31  C   UNL     1      50.176   6.277  16.649  0.00  0.00    +0.000 C 
ATOM     32  O   UNL     1      48.755   6.232  16.777  0.00  0.00    +0.000 OA
ENDBRANCH  22  32
ENDBRANCH  18  29
ENDBRANCH   1  20
TORSDOF 7
ENDMDL
