MODEL 1
REMARK VINA RESULT:    -6.289      0.000      0.000
REMARK INTER + INTRA:          -9.756
REMARK INTER:                  -8.494
REMARK INTRA:                  -1.261
REMARK UNBOUND:                -1.261
REMARK  Name = 
REMARK  9 active torsions:
REMARK  status: ('A' for Active; 'I' for Inactive)
REMARK    1  A    between atoms: C_1  and  C_2
REMARK    2  A    between atoms: C_2  and  N_3
REMARK    3  A    between atoms: C_4  and  C_6
REMARK    4  A    between atoms: C_9  and  O_10
REMARK    5  A    between atoms: O_10  and  C_11
REMARK    6  A    between atoms: C_11  and  C_12
REMARK    7  A    between atoms: C_12  and  C_13
REMARK    8  A    between atoms: C_12  and  C_14
REMARK    9  A    between atoms: C_12  and  C_15
REMARK                            x       y       z     vdW  Elec       q    Type
REMARK                         _______ _______ _______ _____ _____    ______ ____
ROOT
ATOM      1  C   UNL     1      48.113   7.946  12.194  0.00  0.00    +0.000 A 
ATOM      2  C   UNL     1      46.839   8.516  12.111  0.00  0.00    +0.000 A 
ATOM      3  C   UNL     1      45.703   7.762  12.430  0.00  0.00    +0.000 A 
ATOM      4  C   UNL     1      45.834   6.430  12.832  0.00  0.00    +0.000 A 
ATOM      5  C   UNL     1      47.108   5.860  12.909  0.00  0.00    +0.000 A 
ATOM      6  C   UNL     1      48.243   6.610  12.588  0.00  0.00    +0.000 A 
ENDROOT
BRANCH   1   8
ATOM      7  N   UNL     1      50.540   8.033  11.929  0.00  0.00    +0.000 N 
ATOM      8  C   UNL     1      49.334   8.696  11.808  0.00  0.00    +0.000 C 
ATOM      9  O   UNL     1      49.237   9.846  11.398  0.00  0.00    +0.000 OA
ATOM     10  H   UNL     1      50.551   7.040  12.122  0.00  0.00    +0.000 HD
BRANCH   7  12
ATOM     11  C   UNL     1      52.251   8.298  10.185  0.00  0.00    +0.000 C 
ATOM     12  C   UNL     1      51.784   8.680  11.577  0.00  0.00    +0.000 C 
ENDBRANCH   7  12
ENDBRANCH   1   8
BRANCH   4  13
ATOM     13  O   UNL     1      44.806   5.591  13.158  0.00  0.00    +0.000 OA
BRANCH  13  14
ATOM     14  C   UNL     1      44.932   4.211  12.790  0.00  0.00    +0.000 C 
BRANCH  14  15
ATOM     15  C   UNL     1      43.994   3.885  11.588  0.00  0.00    +0.000 C 
ATOM     16  C   UNL     1      43.296   2.523  11.820  0.00  0.00    +0.000 C 
ATOM     17  C   UNL     1      42.875   4.954  11.543  0.00  0.00    +0.000 C 
BRANCH  15  18
ATOM     18  C   UNL     1      44.807   3.794  10.279  0.00  0.00    +0.000 A 
ATOM     19  C   UNL     1      44.951   2.558   9.618  0.00  0.00    +0.000 A 
ATOM     20  C   UNL     1      45.573   2.466   8.369  0.00  0.00    +0.000 A 
ATOM     21  C   UNL     1      46.073   3.607   7.754  0.00  0.00    +0.000 A 
ATOM     22  C   UNL     1      45.983   4.833   8.404  0.00  0.00    +0.000 A 
ATOM     23  C   UNL     1      45.365   4.924   9.656  0.00  0.00    +0.000 A 
ENDBRANCH  15  18
ENDBRANCH  14  15
ENDBRANCH  13  14
ENDBRANCH   4  13
TORSDOF 6
ENDMDL
MODEL 2
REMARK VINA RESULT:    -5.973      2.719      3.892
REMARK INTER + INTRA:          -9.329
REMARK INTER:                  -8.664
REMARK INTRA:                  -0.665
REMARK UNBOUND:                -1.261
REMARK  Name = 
REMARK  9 active torsions:
REMARK  status: ('A' for Active; 'I' for Inactive)
REMARK    1  A    between atoms: C_1  and  C_2
REMARK    2  A    between atoms: C_2  and  N_3
REMARK    3  A    between atoms: C_4  and  C_6
REMARK    4  A    between atoms: C_9  and  O_10
REMARK    5  A    between atoms: O_10  and  C_11
REMARK    6  A    between atoms: C_11  and  C_12
REMARK    7  A    between atoms: C_12  and  C_13
REMARK    8  A    between atoms: C_12  and  C_14
REMARK    9  A    between atoms: C_12  and  C_15
REMARK                            x       y       z     vdW  Elec       q    Type
REMARK                         _______ _______ _______ _____ _____    ______ ____
ROOT
ATOM      1  C   UNL     1      47.884   6.395  13.965  0.00  0.00    +0.000 A 
ATOM      2  C   UNL     1      48.133   7.136  12.804  0.00  0.00    +0.000 A 
ATOM      3  C   UNL     1      47.330   6.965  11.670  0.00  0.00    +0.000 A 
ATOM      4  C   UNL     1      46.274   6.049  11.687  0.00  0.00    +0.000 A 
ATOM      5  C   UNL     1      46.031   5.307  12.845  0.00  0.00    +0.000 A 
ATOM      6  C   UNL     1      46.832   5.473  13.978  0.00  0.00    +0.000 A 
ENDROOT
BRANCH   1   8
ATOM      7  N   UNL     1      48.164   6.225  16.385  0.00  0.00    +0.000 N 
ATOM      8  C   UNL     1      48.749   6.507  15.166  0.00  0.00    +0.000 C 
ATOM      9  O   UNL     1      49.924   6.830  15.042  0.00  0.00    +0.000 OA
ATOM     10  H   UNL     1      47.241   5.814  16.417  0.00  0.00    +0.000 HD
BRANCH   7  12
ATOM     11  C   UNL     1      48.342   7.321  18.577  0.00  0.00    +0.000 C 
ATOM     12  C   UNL     1      48.925   6.306  17.612  0.00  0.00    +0.000 C 
ENDBRANCH   7  12
ENDBRANCH   1   8
BRANCH   4  13
ATOM     13  O   UNL     1      45.431   5.787  10.645  0.00  0.00    +0.000 OA
BRANCH  13  14
ATOM     14  C   UNL     1      45.985   5.152   9.484  0.00  0.00    +0.000 C 
BRANCH  14  15
ATOM     15  C   UNL     1      45.190   3.855   9.146  0.00  0.00    +0.000 C 
ATOM     16  C   UNL     1      45.044   2.981  10.416  0.00  0.00    +0.000 C 
ATOM     17  C   UNL     1      43.758   4.261   8.722  0.00  0.00    +0.000 C 
BRANCH  15  18
ATOM     18  C   UNL     1      45.935   3.029   8.075  0.00  0.00    +0.000 A 
ATOM     19  C   UNL     1      46.406   3.651   6.902  0.00  0.00    +0.000 A 
ATOM     20  C   UNL     1      47.191   2.960   5.974  0.00  0.00    +0.000 A 
ATOM     21  C   UNL     1      47.516   1.627   6.193  0.00  0.00    +0.000 A 
ATOM     22  C   UNL     1      47.027   0.976   7.320  0.00  0.00    +0.000 A 
ATOM     23  C   UNL     1      46.238   1.668   8.246  0.00  0.00    +0.000 A 
ENDBRANCH  15  18
ENDBRANCH  14  15
ENDBRANCH  13  14
ENDBRANCH   4  13
TORSDOF 6
ENDMDL
MODEL 3
REMARK VINA RESULT:    -5.939      3.633      4.632
REMARK INTER + INTRA:          -9.283
REMARK INTER:                  -8.458
REMARK INTRA:                  -0.825
REMARK UNBOUND:                -1.261
REMARK  Name = 
REMARK  9 active torsions:
REMARK  status: ('A' for Active; 'I' for Inactive)
REMARK    1  A    between atoms: C_1  and  C_2
REMARK    2  A    between atoms: C_2  and  N_3
REMARK    3  A    between atoms: C_4  and  C_6
REMARK    4  A    between atoms: C_9  and  O_10
REMARK    5  A    between atoms: O_10  and  C_11
REMARK    6  A    between atoms: C_11  and  C_12
REMARK    7  A    between atoms: C_12  and  C_13
REMARK    8  A    between atoms: C_12  and  C_14
REMARK    9  A    between atoms: C_12  and  C_15
REMARK                            x       y       z     vdW  Elec       q    Type
REMARK                         _______ _______ _______ _____ _____    ______ ____
ROOT
ATOM      1  C   UNL     1      48.257   5.546  16.193  0.00  0.00    +0.000 A 
ATOM      2  C   UNL     1      48.376   6.449  15.131  0.00  0.00    +0.000 A 
ATOM      3  C   UNL     1      47.754   6.185  13.905  0.00  0.00    +0.000 A 
ATOM      4  C   UNL     1      47.010   5.015  13.731  0.00  0.00    +0.000 A 
ATOM      5  C   UNL     1      46.896   4.112  14.791  0.00  0.00    +0.000 A 
ATOM      6  C   UNL     1      47.519   4.371  16.016  0.00  0.00    +0.000 A 
ENDROOT
BRANCH   1   8
ATOM      7  N   UNL     1      49.082   4.667  18.317  0.00  0.00    +0.000 N 
ATOM      8  C   UNL     1      48.950   5.763  17.487  0.00  0.00    +0.000 C 
ATOM      9  O   UNL     1      49.379   6.875  17.769  0.00  0.00    +0.000 OA
ATOM     10  H   UNL     1      48.852   3.744  17.973  0.00  0.00    +0.000 HD
BRANCH   7  12
ATOM     11  C   UNL     1      48.755   4.758  20.752  0.00  0.00    +0.000 C 
ATOM     12  C   UNL     1      49.742   4.778  19.599  0.00  0.00    +0.000 C 
ENDBRANCH   7  12
ENDBRANCH   1   8
BRANCH   4  13
ATOM     13  O   UNL     1      46.367   4.642  12.584  0.00  0.00    +0.000 OA
BRANCH  13  14
ATOM     14  C   UNL     1      45.290   5.471  12.126  0.00  0.00    +0.000 C 
BRANCH  14  15
ATOM     15  C   UNL     1      44.167   4.596  11.492  0.00  0.00    +0.000 C 
ATOM     16  C   UNL     1      43.735   3.493  12.487  0.00  0.00    +0.000 C 
ATOM     17  C   UNL     1      42.927   5.493  11.259  0.00  0.00    +0.000 C 
BRANCH  15  18
ATOM     18  C   UNL     1      44.678   3.913  10.205  0.00  0.00    +0.000 A 
ATOM     19  C   UNL     1      45.323   4.671   9.208  0.00  0.00    +0.000 A 
ATOM     20  C   UNL     1      45.906   4.063   8.092  0.00  0.00    +0.000 A 
ATOM     21  C   UNL     1      45.850   2.684   7.941  0.00  0.00    +0.000 A 
ATOM     22  C   UNL     1      45.181   1.916   8.888  0.00  0.00    +0.000 A 
ATOM     23  C   UNL     1      44.594   2.525  10.002  0.00  0.00    +0.000 A 
ENDBRANCH  15  18
ENDBRANCH  14  15
ENDBRANCH  13  14
ENDBRANCH   4  13
TORSDOF 6
ENDMDL
MODEL 4
REMARK VINA RESULT:    -5.887      2.647      3.506
REMARK INTER + INTRA:          -9.213
REMARK INTER:                  -8.689
REMARK INTRA:                  -0.524
REMARK UNBOUND:                -1.261
REMARK  Name = 
REMARK  9 active torsions:
REMARK  status: ('A' for Active; 'I' for Inactive)
REMARK    1  A    between atoms: C_1  and  C_2
REMARK    2  A    between atoms: C_2  and  N_3
REMARK    3  A    between atoms: C_4  and  C_6
REMARK    4  A    between atoms: C_9  and  O_10
REMARK    5  A    between atoms: O_10  and  C_11
REMARK    6  A    between atoms: C_11  and  C_12
REMARK    7  A    between atoms: C_12  and  C_13
REMARK    8  A    between atoms: C_12  and  C_14
REMARK    9  A    between atoms: C_12  and  C_15
REMARK                            x       y       z     vdW  Elec       q    Type
REMARK                         _______ _______ _______ _____ _____    ______ ____
ROOT
ATOM      1  C   UNL     1      47.931   8.127  14.365  0.00  0.00    +0.000 A 
ATOM      2  C   UNL     1      48.239   6.766  14.265  0.00  0.00    +0.000 A 
ATOM      3  C   UNL     1      47.547   5.949  13.362  0.00  0.00    +0.000 A 
ATOM      4  C   UNL     1      46.541   6.487  12.555  0.00  0.00    +0.000 A 
ATOM      5  C   UNL     1      46.231   7.846  12.661  0.00  0.00    +0.000 A 
ATOM      6  C   UNL     1      46.918   8.663  13.564  0.00  0.00    +0.000 A 
ENDROOT
BRANCH   1   8
ATOM      7  N   UNL     1      47.854   9.409  16.443  0.00  0.00    +0.000 N 
ATOM      8  C   UNL     1      48.602   9.010  15.352  0.00  0.00    +0.000 C 
ATOM      9  O   UNL     1      49.767   9.343  15.177  0.00  0.00    +0.000 OA
ATOM     10  H   UNL     1      46.954   8.983  16.620  0.00  0.00    +0.000 HD
BRANCH   7  12
ATOM     11  C   UNL     1      47.394  10.666  18.504  0.00  0.00    +0.000 C 
ATOM     12  C   UNL     1      48.420  10.270  17.458  0.00  0.00    +0.000 C 
ENDBRANCH   7  12
ENDBRANCH   1   8
BRANCH   4  13
ATOM     13  O   UNL     1      45.791   5.794  11.647  0.00  0.00    +0.000 OA
BRANCH  13  14
ATOM     14  C   UNL     1      45.278   4.516  12.047  0.00  0.00    +0.000 C 
BRANCH  14  15
ATOM     15  C   UNL     1      44.203   4.024  11.031  0.00  0.00    +0.000 C 
ATOM     16  C   UNL     1      43.391   2.859  11.648  0.00  0.00    +0.000 C 
ATOM     17  C   UNL     1      43.203   5.180  10.785  0.00  0.00    +0.000 C 
BRANCH  15  18
ATOM     18  C   UNL     1      44.876   3.512   9.739  0.00  0.00    +0.000 A 
ATOM     19  C   UNL     1      45.371   4.426   8.788  0.00  0.00    +0.000 A 
ATOM     20  C   UNL     1      46.094   3.996   7.671  0.00  0.00    +0.000 A 
ATOM     21  C   UNL     1      46.333   2.642   7.474  0.00  0.00    +0.000 A 
ATOM     22  C   UNL     1      45.818   1.716   8.374  0.00  0.00    +0.000 A 
ATOM     23  C   UNL     1      45.090   2.146   9.489  0.00  0.00    +0.000 A 
ENDBRANCH  15  18
ENDBRANCH  14  15
ENDBRANCH  13  14
ENDBRANCH   4  13
TORSDOF 6
ENDMDL
MODEL 5
REMARK VINA RESULT:    -5.500      3.224      3.974
REMARK INTER + INTRA:          -8.690
REMARK INTER:                  -8.039
REMARK INTRA:                  -0.651
REMARK UNBOUND:                -1.261
REMARK  Name = 
REMARK  9 active torsions:
REMARK  status: ('A' for Active; 'I' for Inactive)
REMARK    1  A    between atoms: C_1  and  C_2
REMARK    2  A    between atoms: C_2  and  N_3
REMARK    3  A    between atoms: C_4  and  C_6
REMARK    4  A    between atoms: C_9  and  O_10
REMARK    5  A    between atoms: O_10  and  C_11
REMARK    6  A    between atoms: C_11  and  C_12
REMARK    7  A    between atoms: C_12  and  C_13
REMARK    8  A    between atoms: C_12  and  C_14
REMARK    9  A    between atoms: C_12  and  C_15
REMARK                            x       y       z     vdW  Elec       q    Type
REMARK                         _______ _______ _______ _____ _____    ______ ____
ROOT
ATOM      1  C   UNL     1      48.368   5.605  15.984  0.00  0.00    +0.000 A 
ATOM      2  C   UNL     1      47.495   4.529  15.792  0.00  0.00    +0.000 A 
ATOM      3  C   UNL     1      46.791   4.395  14.589  0.00  0.00    +0.000 A 
ATOM      4  C   UNL     1      46.953   5.338  13.570  0.00  0.00    +0.000 A 
ATOM      5  C   UNL     1      47.822   6.416  13.767  0.00  0.00    +0.000 A 
ATOM      6  C   UNL     1      48.523   6.554  14.968  0.00  0.00    +0.000 A 
ENDROOT
BRANCH   1   8
ATOM      7  N   UNL     1      50.181   6.652  17.241  0.00  0.00    +0.000 N 
ATOM      8  C   UNL     1      49.085   5.811  17.267  0.00  0.00    +0.000 C 
ATOM      9  O   UNL     1      48.691   5.252  18.282  0.00  0.00    +0.000 OA
ATOM     10  H   UNL     1      50.370   7.209  16.418  0.00  0.00    +0.000 HD
BRANCH   7  12
ATOM     11  C   UNL     1      52.437   6.761  18.210  0.00  0.00    +0.000 C 
ATOM     12  C   UNL     1      50.945   6.916  18.440  0.00  0.00    +0.000 C 
ENDBRANCH   7  12
ENDBRANCH   1   8
BRANCH   4  13
ATOM     13  O   UNL     1      46.317   5.323  12.361  0.00  0.00    +0.000 OA
BRANCH  13  14
ATOM     14  C   UNL     1      45.018   5.925  12.286  0.00  0.00    +0.000 C 
BRANCH  14  15
ATOM     15  C   UNL     1      43.983   4.907  11.719  0.00  0.00    +0.000 C 
ATOM     16  C   UNL     1      43.634   3.855  12.799  0.00  0.00    +0.000 C 
ATOM     17  C   UNL     1      42.673   5.671  11.406  0.00  0.00    +0.000 C 
BRANCH  15  18
ATOM     18  C   UNL     1      44.567   4.169  10.496  0.00  0.00    +0.000 A 
ATOM     19  C   UNL     1      44.350   2.786  10.332  0.00  0.00    +0.000 A 
ATOM     20  C   UNL     1      44.758   2.115   9.176  0.00  0.00    +0.000 A 
ATOM     21  C   UNL     1      45.401   2.808   8.157  0.00  0.00    +0.000 A 
ATOM     22  C   UNL     1      45.666   4.165   8.311  0.00  0.00    +0.000 A 
ATOM     23  C   UNL     1      45.262   4.835   9.471  0.00  0.00    +0.000 A 
ENDBRANCH  15  18
ENDBRANCH  14  15
ENDBRANCH  13  14
ENDBRANCH   4  13
TORSDOF 6
ENDMDL
MODEL 6
REMARK VINA RESULT:    -5.422      4.783      7.768
REMARK INTER + INTRA:          -8.585
REMARK INTER:                  -7.763
REMARK INTRA:                  -0.822
REMARK UNBOUND:                -1.261
REMARK  Name = 
REMARK  9 active torsions:
REMARK  status: ('A' for Active; 'I' for Inactive)
REMARK    1  A    between atoms: C_1  and  C_2
REMARK    2  A    between atoms: C_2  and  N_3
REMARK    3  A    between atoms: C_4  and  C_6
REMARK    4  A    between atoms: C_9  and  O_10
REMARK    5  A    between atoms: O_10  and  C_11
REMARK    6  A    between atoms: C_11  and  C_12
REMARK    7  A    between atoms: C_12  and  C_13
REMARK    8  A    between atoms: C_12  and  C_14
REMARK    9  A    between atoms: C_12  and  C_15
REMARK                            x       y       z     vdW  Elec       q    Type
REMARK                         _______ _______ _______ _____ _____    ______ ____
ROOT
ATOM      1  C   UNL     1      46.116   5.285  12.513  0.00  0.00    +0.000 A 
ATOM      2  C   UNL     1      46.888   6.452  12.482  0.00  0.00    +0.000 A 
ATOM      3  C   UNL     1      47.800   6.723  13.509  0.00  0.00    +0.000 A 
ATOM      4  C   UNL     1      47.944   5.833  14.577  0.00  0.00    +0.000 A 
ATOM      5  C   UNL     1      47.168   4.671  14.608  0.00  0.00    +0.000 A 
ATOM      6  C   UNL     1      46.254   4.398  13.585  0.00  0.00    +0.000 A 
ENDROOT
BRANCH   1   8
ATOM      7  N   UNL     1      45.123   3.730  10.913  0.00  0.00    +0.000 N 
ATOM      8  C   UNL     1      45.099   4.993  11.473  0.00  0.00    +0.000 C 
ATOM      9  O   UNL     1      44.286   5.853  11.156  0.00  0.00    +0.000 OA
ATOM     10  H   UNL     1      45.709   3.011  11.317  0.00  0.00    +0.000 HD
BRANCH   7  12
ATOM     11  C   UNL     1      44.638   2.139   9.104  0.00  0.00    +0.000 C 
ATOM     12  C   UNL     1      44.172   3.350   9.892  0.00  0.00    +0.000 C 
ENDBRANCH   7  12
ENDBRANCH   1   8
BRANCH   4  13
ATOM     13  O   UNL     1      48.788   5.991  15.639  0.00  0.00    +0.000 OA
BRANCH  13  14
ATOM     14  C   UNL     1      48.368   5.467  16.906  0.00  0.00    +0.000 C 
BRANCH  14  15
ATOM     15  C   UNL     1      49.561   5.455  17.909  0.00  0.00    +0.000 C 
ATOM     16  C   UNL     1      50.555   6.589  17.557  0.00  0.00    +0.000 C 
ATOM     17  C   UNL     1      49.010   5.771  19.321  0.00  0.00    +0.000 C 
BRANCH  15  18
ATOM     18  C   UNL     1      50.315   4.111  17.833  0.00  0.00    +0.000 A 
ATOM     19  C   UNL     1      49.676   2.967  17.314  0.00  0.00    +0.000 A 
ATOM     20  C   UNL     1      50.370   1.769  17.117  0.00  0.00    +0.000 A 
ATOM     21  C   UNL     1      51.718   1.683  17.441  0.00  0.00    +0.000 A 
ATOM     22  C   UNL     1      52.363   2.784  17.996  0.00  0.00    +0.000 A 
ATOM     23  C   UNL     1      51.667   3.980  18.197  0.00  0.00    +0.000 A 
ENDBRANCH  15  18
ENDBRANCH  14  15
ENDBRANCH  13  14
ENDBRANCH   4  13
TORSDOF 6
ENDMDL
MODEL 7
REMARK VINA RESULT:    -5.404      4.420      5.197
REMARK INTER + INTRA:          -8.560
REMARK INTER:                  -7.793
REMARK INTRA:                  -0.767
REMARK UNBOUND:                -1.261
REMARK  Name = 
REMARK  9 active torsions:
REMARK  status: ('A' for Active; 'I' for Inactive)
REMARK    1  A    between atoms: C_1  and  C_2
REMARK    2  A    between atoms: C_2  and  N_3
REMARK    3  A    between atoms: C_4  and  C_6
REMARK    4  A    between atoms: C_9  and  O_10
REMARK    5  A    between atoms: O_10  and  C_11
REMARK    6  A    between atoms: C_11  and  C_12
REMARK    7  A    between atoms: C_12  and  C_13
REMARK    8  A    between atoms: C_12  and  C_14
REMARK    9  A    between atoms: C_12  and  C_15
REMARK                            x       y       z     vdW  Elec       q    Type
REMARK                         _______ _______ _______ _____ _____    ______ ____
ROOT
ATOM      1  C   UNL     1      49.329   4.916  17.188  0.00  0.00    +0.000 A 
ATOM      2  C   UNL     1      48.717   3.658  17.219  0.00  0.00    +0.000 A 
ATOM      3  C   UNL     1      47.652   3.368  16.358  0.00  0.00    +0.000 A 
ATOM      4  C   UNL     1      47.188   4.335  15.462  0.00  0.00    +0.000 A 
ATOM      5  C   UNL     1      47.798   5.593  15.437  0.00  0.00    +0.000 A 
ATOM      6  C   UNL     1      48.860   5.886  16.297  0.00  0.00    +0.000 A 
ENDROOT
BRANCH   1   8
ATOM      7  N   UNL     1      50.630   4.433  19.198  0.00  0.00    +0.000 N 
ATOM      8  C   UNL     1      50.422   5.278  18.125  0.00  0.00    +0.000 C 
ATOM      9  O   UNL     1      51.091   6.282  17.921  0.00  0.00    +0.000 OA
ATOM     10  H   UNL     1      50.157   3.539  19.235  0.00  0.00    +0.000 HD
BRANCH   7  12
ATOM     11  C   UNL     1      52.943   3.931  19.861  0.00  0.00    +0.000 C 
ATOM     12  C   UNL     1      51.671   4.701  20.166  0.00  0.00    +0.000 C 
ENDBRANCH   7  12
ENDBRANCH   1   8
BRANCH   4  13
ATOM     13  O   UNL     1      46.155   4.177  14.583  0.00  0.00    +0.000 OA
BRANCH  13  14
ATOM     14  C   UNL     1      46.405   4.474  13.202  0.00  0.00    +0.000 C 
BRANCH  14  15
ATOM     15  C   UNL     1      45.089   4.923  12.499  0.00  0.00    +0.000 C 
ATOM     16  C   UNL     1      43.867   4.336  13.245  0.00  0.00    +0.000 C 
ATOM     17  C   UNL     1      44.979   6.463  12.614  0.00  0.00    +0.000 C 
BRANCH  15  18
ATOM     18  C   UNL     1      45.055   4.415  11.042  0.00  0.00    +0.000 A 
ATOM     19  C   UNL     1      45.575   5.210  10.001  0.00  0.00    +0.000 A 
ATOM     20  C   UNL     1      45.673   4.727   8.693  0.00  0.00    +0.000 A 
ATOM     21  C   UNL     1      45.245   3.441   8.391  0.00  0.00    +0.000 A 
ATOM     22  C   UNL     1      44.687   2.650   9.390  0.00  0.00    +0.000 A 
ATOM     23  C   UNL     1      44.586   3.136  10.698  0.00  0.00    +0.000 A 
ENDBRANCH  15  18
ENDBRANCH  14  15
ENDBRANCH  13  14
ENDBRANCH   4  13
TORSDOF 6
ENDMDL
MODEL 8
REMARK VINA RESULT:    -5.232      3.855      7.246
REMARK INTER + INTRA:          -8.329
REMARK INTER:                  -7.331
REMARK INTRA:                  -0.998
REMARK UNBOUND:                -1.261
REMARK  Name = 
REMARK  9 active torsions:
REMARK  status: ('A' for Active; 'I' for Inactive)
REMARK    1  A    between atoms: C_1  and  C_2
REMARK    2  A    between atoms: C_2  and  N_3
REMARK    3  A    between atoms: C_4  and  C_6
REMARK    4  A    between atoms: C_9  and  O_10
REMARK    5  A    between atoms: O_10  and  C_11
REMARK    6  A    between atoms: C_11  and  C_12
REMARK    7  A    between atoms: C_12  and  C_13
REMARK    8  A    between atoms: C_12  and  C_14
REMARK    9  A    between atoms: C_12  and  C_15
REMARK                            x       y       z     vdW  Elec       q    Type
REMARK                         _______ _______ _______ _____ _____    ______ ____
ROOT
ATOM      1  C   UNL     1      46.002   5.366  11.799  0.00  0.00    +0.000 A 
ATOM      2  C   UNL     1      46.410   6.664  11.472  0.00  0.00    +0.000 A 
ATOM      3  C   UNL     1      47.158   7.420  12.382  0.00  0.00    +0.000 A 
ATOM      4  C   UNL     1      47.502   6.886  13.627  0.00  0.00    +0.000 A 
ATOM      5  C   UNL     1      47.089   5.591  13.954  0.00  0.00    +0.000 A 
ATOM      6  C   UNL     1      46.339   4.834  13.048  0.00  0.00    +0.000 A 
ENDROOT
BRANCH   1   8
ATOM      7  N   UNL     1      45.245   4.846   9.536  0.00  0.00    +0.000 N 
ATOM      8  C   UNL     1      45.159   4.556  10.884  0.00  0.00    +0.000 C 
ATOM      9  O   UNL     1      44.439   3.676  11.338  0.00  0.00    +0.000 OA
ATOM     10  H   UNL     1      45.966   5.470   9.200  0.00  0.00    +0.000 HD
BRANCH   7  12
ATOM     11  C   UNL     1      45.339   3.333   7.601  0.00  0.00    +0.000 C 
ATOM     12  C   UNL     1      44.463   4.112   8.566  0.00  0.00    +0.000 C 
ENDBRANCH   7  12
ENDBRANCH   1   8
BRANCH   4  13
ATOM     13  O   UNL     1      48.216   7.526  14.600  0.00  0.00    +0.000 OA
BRANCH  13  14
ATOM     14  C   UNL     1      49.485   6.968  14.969  0.00  0.00    +0.000 C 
BRANCH  14  15
ATOM     15  C   UNL     1      49.617   6.907  16.520  0.00  0.00    +0.000 C 
ATOM     16  C   UNL     1      51.072   7.232  16.937  0.00  0.00    +0.000 C 
ATOM     17  C   UNL     1      48.725   8.017  17.127  0.00  0.00    +0.000 C 
BRANCH  15  18
ATOM     18  C   UNL     1      49.272   5.494  17.037  0.00  0.00    +0.000 A 
ATOM     19  C   UNL     1      47.926   5.111  17.207  0.00  0.00    +0.000 A 
ATOM     20  C   UNL     1      47.578   3.802  17.553  0.00  0.00    +0.000 A 
ATOM     21  C   UNL     1      48.567   2.846  17.745  0.00  0.00    +0.000 A 
ATOM     22  C   UNL     1      49.905   3.207  17.626  0.00  0.00    +0.000 A 
ATOM     23  C   UNL     1      50.253   4.519  17.285  0.00  0.00    +0.000 A 
ENDBRANCH  15  18
ENDBRANCH  14  15
ENDBRANCH  13  14
ENDBRANCH   4  13
TORSDOF 6
ENDMDL
MODEL 9
REMARK VINA RESULT:    -5.192      2.799      7.158
REMARK INTER + INTRA:          -8.275
REMARK INTER:                  -7.314
REMARK INTRA:                  -0.961
REMARK UNBOUND:                -1.261
REMARK  Name = 
REMARK  9 active torsions:
REMARK  status: ('A' for Active; 'I' for Inactive)
REMARK    1  A    between atoms: C_1  and  C_2
REMARK    2  A    between atoms: C_2  and  N_3
REMARK    3  A    between atoms: C_4  and  C_6
REMARK    4  A    between atoms: C_9  and  O_10
REMARK    5  A    between atoms: O_10  and  C_11
REMARK    6  A    between atoms: C_11  and  C_12
REMARK    7  A    between atoms: C_12  and  C_13
REMARK    8  A    between atoms: C_12  and  C_14
REMARK    9  A    between atoms: C_12  and  C_15
REMARK                            x       y       z     vdW  Elec       q    Type
REMARK                         _______ _______ _______ _____ _____    ______ ____
ROOT
ATOM      1  C   UNL     1      44.677   4.772  11.481  0.00  0.00    +0.000 A 
ATOM      2  C   UNL     1      45.366   4.680  12.695  0.00  0.00    +0.000 A 
ATOM      3  C   UNL     1      45.805   5.839  13.348  0.00  0.00    +0.000 A 
ATOM      4  C   UNL     1      45.559   7.097  12.791  0.00  0.00    +0.000 A 
ATOM      5  C   UNL     1      44.875   7.185  11.576  0.00  0.00    +0.000 A 
ATOM      6  C   UNL     1      44.438   6.031  10.919  0.00  0.00    +0.000 A 
ENDROOT
BRANCH   1   8
ATOM      7  N   UNL     1      44.943   3.269   9.574  0.00  0.00    +0.000 N 
ATOM      8  C   UNL     1      44.248   3.565  10.731  0.00  0.00    +0.000 C 
ATOM      9  O   UNL     1      43.323   2.882  11.153  0.00  0.00    +0.000 OA
ATOM     10  H   UNL     1      45.793   3.771   9.355  0.00  0.00    +0.000 HD
BRANCH   7  12
ATOM     11  C   UNL     1      45.822   1.290   8.412  0.00  0.00    +0.000 C 
ATOM     12  C   UNL     1      44.600   2.113   8.775  0.00  0.00    +0.000 C 
ENDBRANCH   7  12
ENDBRANCH   1   8
BRANCH   4  13
ATOM     13  O   UNL     1      45.944   8.294  13.325  0.00  0.00    +0.000 OA
BRANCH  13  14
ATOM     14  C   UNL     1      46.771   9.145  12.521  0.00  0.00    +0.000 C 
BRANCH  14  15
ATOM     15  C   UNL     1      48.277   8.871  12.817  0.00  0.00    +0.000 C 
ATOM     16  C   UNL     1      48.802   7.756  11.881  0.00  0.00    +0.000 C 
ATOM     17  C   UNL     1      49.078  10.151  12.474  0.00  0.00    +0.000 C 
BRANCH  15  18
ATOM     18  C   UNL     1      48.464   8.405  14.276  0.00  0.00    +0.000 A 
ATOM     19  C   UNL     1      48.937   7.106  14.550  0.00  0.00    +0.000 A 
ATOM     20  C   UNL     1      49.234   6.698  15.854  0.00  0.00    +0.000 A 
ATOM     21  C   UNL     1      49.058   7.575  16.916  0.00  0.00    +0.000 A 
ATOM     22  C   UNL     1      48.551   8.848  16.679  0.00  0.00    +0.000 A 
ATOM     23  C   UNL     1      48.249   9.255  15.375  0.00  0.00    +0.000 A 
ENDBRANCH  15  18
ENDBRANCH  14  15
ENDBRANCH  13  14
ENDBRANCH   4  13
TORSDOF 6
ENDMDL
