MODEL 1
REMARK VINA RESULT:    -8.505      0.000      0.000
REMARK INTER + INTRA:         -13.026
REMARK INTER:                 -11.986
REMARK INTRA:                  -1.041
REMARK UNBOUND:                -1.041
REMARK  Name = 
REMARK  7 active torsions:
REMARK  status: ('A' for Active; 'I' for Inactive)
REMARK    1  A    between atoms: C_2  and  C_3
REMARK    2  A    between atoms: C_6  and  N_7
REMARK    3  A    between atoms: N_7  and  C_8
REMARK    4  A    between atoms: C_8  and  C_9
REMARK    5  A    between atoms: C_9  and  C_12
REMARK    6  A    between atoms: C_16  and  O_17
REMARK    7  A    between atoms: O_17  and  C_18
REMARK                            x       y       z     vdW  Elec       q    Type
REMARK                         _______ _______ _______ _____ _____    ______ ____
ROOT
ATOM      1  C   UNL     1      44.027   4.861  12.467  0.00  0.00    +0.000 C 
ATOM      2  F   UNL     1      43.134   5.478  13.297  0.00  0.00    +0.000 F 
ATOM      3  F   UNL     1      43.904   3.525  12.746  0.00  0.00    +0.000 F 
ENDROOT
BRANCH   1   4
ATOM      4  C   UNL     1      45.439   5.363  12.697  0.00  0.00    +0.000 A 
ATOM      5  C   UNL     1      46.041   6.249  11.794  0.00  0.00    +0.000 A 
ATOM      6  C   UNL     1      47.330   6.735  12.032  0.00  0.00    +0.000 A 
ATOM      7  C   UNL     1      48.037   6.339  13.171  0.00  0.00    +0.000 A 
ATOM      8  C   UNL     1      47.455   5.443  14.065  0.00  0.00    +0.000 A 
ATOM      9  C   UNL     1      46.166   4.961  13.828  0.00  0.00    +0.000 A 
BRANCH   8  10
ATOM     10  O   UNL     1      48.028   5.006  15.231  0.00  0.00    +0.000 OA
BRANCH  10  11
ATOM     11  C   UNL     1      47.260   4.190  16.145  0.00  0.00    +0.000 C 
ATOM     12  C   UNL     1      47.212   4.614  17.628  0.00  0.00    +0.000 C 
ATOM     13  N   UNL     1      47.539   3.235  18.036  0.00  0.00    +0.000 NA
ATOM     14  C   UNL     1      48.011   2.945  16.670  0.00  0.00    +0.000 C 
ATOM     15  H   UNL     1      46.730   2.680  18.314  0.00  0.00    +0.000 HD
ENDBRANCH  10  11
ENDBRANCH   8  10
ENDBRANCH   1   4
BRANCH   1  16
ATOM     16  C   UNL     1      43.579   5.080  10.998  0.00  0.00    +0.000 C 
BRANCH  16  17
ATOM     17  N   UNL     1      43.545   3.829  10.217  0.00  0.00    +0.000 N 
ATOM     18  H   UNL     1      43.081   3.054  10.692  0.00  0.00    +0.000 HD
BRANCH  17  22
ATOM     19  C   UNL     1      46.583   2.515   7.603  0.00  0.00    +0.000 A 
ATOM     20  C   UNL     1      46.285   3.878   7.685  0.00  0.00    +0.000 A 
ATOM     21  C   UNL     1      45.296   4.332   8.565  0.00  0.00    +0.000 A 
ATOM     22  C   UNL     1      44.604   3.446   9.400  0.00  0.00    +0.000 A 
ATOM     23  C   UNL     1      44.908   2.083   9.294  0.00  0.00    +0.000 A 
ATOM     24  C   UNL     1      45.888   1.617   8.410  0.00  0.00    +0.000 A 
BRANCH  19  26
ATOM     25  N   UNL     1      48.386   1.672   5.940  0.00  0.00    +0.000 NA
ATOM     26  C   UNL     1      47.580   2.053   6.684  0.00  0.00    +0.000 C 
ENDBRANCH  19  26
ENDBRANCH  17  22
ENDBRANCH  16  17
ENDBRANCH   1  16
TORSDOF 7
ENDMDL
MODEL 2
REMARK VINA RESULT:    -7.259      1.773      2.255
REMARK INTER + INTRA:         -11.271
REMARK INTER:                 -10.895
REMARK INTRA:                  -0.375
REMARK UNBOUND:                -1.041
REMARK  Name = 
REMARK  7 active torsions:
REMARK  status: ('A' for Active; 'I' for Inactive)
REMARK    1  A    between atoms: C_2  and  C_3
REMARK    2  A    between atoms: C_6  and  N_7
REMARK    3  A    between atoms: N_7  and  C_8
REMARK    4  A    between atoms: C_8  and  C_9
REMARK    5  A    between atoms: C_9  and  C_12
REMARK    6  A    between atoms: C_16  and  O_17
REMARK    7  A    between atoms: O_17  and  C_18
REMARK                            x       y       z     vdW  Elec       q    Type
REMARK                         _______ _______ _______ _____ _____    ______ ____
ROOT
ATOM      1  C   UNL     1      44.124   3.983  12.547  0.00  0.00    +0.000 C 
ATOM      2  F   UNL     1      43.303   3.824  13.627  0.00  0.00    +0.000 F 
ATOM      3  F   UNL     1      44.857   2.826  12.487  0.00  0.00    +0.000 F 
ENDROOT
BRANCH   1   4
ATOM      4  C   UNL     1      45.005   5.208  12.690  0.00  0.00    +0.000 A 
ATOM      5  C   UNL     1      44.541   6.474  12.310  0.00  0.00    +0.000 A 
ATOM      6  C   UNL     1      45.346   7.603  12.480  0.00  0.00    +0.000 A 
ATOM      7  C   UNL     1      46.627   7.484  13.025  0.00  0.00    +0.000 A 
ATOM      8  C   UNL     1      47.106   6.228  13.389  0.00  0.00    +0.000 A 
ATOM      9  C   UNL     1      46.299   5.100  13.223  0.00  0.00    +0.000 A 
BRANCH   8  10
ATOM     10  O   UNL     1      48.326   5.983  13.964  0.00  0.00    +0.000 OA
BRANCH  10  11
ATOM     11  C   UNL     1      48.825   6.870  14.992  0.00  0.00    +0.000 C 
ATOM     12  C   UNL     1      50.251   7.437  14.828  0.00  0.00    +0.000 C 
ATOM     13  N   UNL     1      50.565   7.056  16.219  0.00  0.00    +0.000 NA
ATOM     14  C   UNL     1      49.405   6.147  16.229  0.00  0.00    +0.000 C 
ATOM     15  H   UNL     1      50.489   7.823  16.887  0.00  0.00    +0.000 HD
ENDBRANCH  10  11
ENDBRANCH   8  10
ENDBRANCH   1   4
BRANCH   1  16
ATOM     16  C   UNL     1      43.254   4.057  11.264  0.00  0.00    +0.000 C 
BRANCH  16  17
ATOM     17  N   UNL     1      43.941   4.725  10.143  0.00  0.00    +0.000 N 
ATOM     18  H   UNL     1      43.398   5.472   9.706  0.00  0.00    +0.000 HD
BRANCH  17  22
ATOM     19  C   UNL     1      46.631   2.709   7.595  0.00  0.00    +0.000 A 
ATOM     20  C   UNL     1      45.747   1.972   8.388  0.00  0.00    +0.000 A 
ATOM     21  C   UNL     1      44.833   2.628   9.221  0.00  0.00    +0.000 A 
ATOM     22  C   UNL     1      44.759   4.025   9.262  0.00  0.00    +0.000 A 
ATOM     23  C   UNL     1      45.662   4.746   8.470  0.00  0.00    +0.000 A 
ATOM     24  C   UNL     1      46.587   4.102   7.641  0.00  0.00    +0.000 A 
BRANCH  19  26
ATOM     25  N   UNL     1      48.351   1.492   6.083  0.00  0.00    +0.000 NA
ATOM     26  C   UNL     1      47.581   2.035   6.762  0.00  0.00    +0.000 C 
ENDBRANCH  19  26
ENDBRANCH  17  22
ENDBRANCH  16  17
ENDBRANCH   1  16
TORSDOF 7
ENDMDL
MODEL 3
REMARK VINA RESULT:    -7.035      2.273      3.291
REMARK INTER + INTRA:         -10.955
REMARK INTER:                 -10.278
REMARK INTRA:                  -0.677
REMARK UNBOUND:                -1.041
REMARK  Name = 
REMARK  7 active torsions:
REMARK  status: ('A' for Active; 'I' for Inactive)
REMARK    1  A    between atoms: C_2  and  C_3
REMARK    2  A    between atoms: C_6  and  N_7
REMARK    3  A    between atoms: N_7  and  C_8
REMARK    4  A    between atoms: C_8  and  C_9
REMARK    5  A    between atoms: C_9  and  C_12
REMARK    6  A    between atoms: C_16  and  O_17
REMARK    7  A    between atoms: O_17  and  C_18
REMARK                            x       y       z     vdW  Elec       q    Type
REMARK                         _______ _______ _______ _____ _____    ______ ____
ROOT
ATOM      1  C   UNL     1      44.097   5.529  12.176  0.00  0.00    +0.000 C 
ATOM      2  F   UNL     1      44.004   6.334  11.076  0.00  0.00    +0.000 F 
ATOM      3  F   UNL     1      43.000   5.841  12.936  0.00  0.00    +0.000 F 
ENDROOT
BRANCH   1   4
ATOM      4  C   UNL     1      45.393   5.758  12.928  0.00  0.00    +0.000 A 
ATOM      5  C   UNL     1      45.976   4.731  13.683  0.00  0.00    +0.000 A 
ATOM      6  C   UNL     1      47.190   4.940  14.343  0.00  0.00    +0.000 A 
ATOM      7  C   UNL     1      47.835   6.177  14.264  0.00  0.00    +0.000 A 
ATOM      8  C   UNL     1      47.256   7.210  13.531  0.00  0.00    +0.000 A 
ATOM      9  C   UNL     1      46.044   7.000  12.869  0.00  0.00    +0.000 A 
BRANCH   8  10
ATOM     10  O   UNL     1      47.804   8.453  13.348  0.00  0.00    +0.000 OA
BRANCH  10  11
ATOM     11  C   UNL     1      48.848   8.638  12.365  0.00  0.00    +0.000 C 
ATOM     12  C   UNL     1      49.196   7.448  11.446  0.00  0.00    +0.000 C 
ATOM     13  N   UNL     1      50.630   7.640  11.737  0.00  0.00    +0.000 NA
ATOM     14  C   UNL     1      50.279   8.451  12.916  0.00  0.00    +0.000 C 
ATOM     15  H   UNL     1      51.134   8.160  11.019  0.00  0.00    +0.000 HD
ENDBRANCH  10  11
ENDBRANCH   8  10
ENDBRANCH   1   4
BRANCH   1  16
ATOM     16  C   UNL     1      43.955   4.050  11.727  0.00  0.00    +0.000 C 
BRANCH  16  17
ATOM     17  N   UNL     1      43.735   3.911  10.274  0.00  0.00    +0.000 N 
ATOM     18  H   UNL     1      42.809   3.563  10.025  0.00  0.00    +0.000 HD
BRANCH  17  22
ATOM     19  C   UNL     1      46.628   2.522   7.537  0.00  0.00    +0.000 A 
ATOM     20  C   UNL     1      46.377   3.893   7.640  0.00  0.00    +0.000 A 
ATOM     21  C   UNL     1      45.438   4.371   8.560  0.00  0.00    +0.000 A 
ATOM     22  C   UNL     1      44.749   3.501   9.415  0.00  0.00    +0.000 A 
ATOM     23  C   UNL     1      45.005   2.130   9.288  0.00  0.00    +0.000 A 
ATOM     24  C   UNL     1      45.935   1.640   8.364  0.00  0.00    +0.000 A 
BRANCH  19  26
ATOM     25  N   UNL     1      48.342   1.638   5.804  0.00  0.00    +0.000 NA
ATOM     26  C   UNL     1      47.573   2.036   6.577  0.00  0.00    +0.000 C 
ENDBRANCH  19  26
ENDBRANCH  17  22
ENDBRANCH  16  17
ENDBRANCH   1  16
TORSDOF 7
ENDMDL
MODEL 4
REMARK VINA RESULT:    -6.992      2.858      3.422
REMARK INTER + INTRA:         -10.894
REMARK INTER:                 -10.163
REMARK INTRA:                  -0.731
REMARK UNBOUND:                -1.041
REMARK  Name = 
REMARK  7 active torsions:
REMARK  status: ('A' for Active; 'I' for Inactive)
REMARK    1  A    between atoms: C_2  and  C_3
REMARK    2  A    between atoms: C_6  and  N_7
REMARK    3  A    between atoms: N_7  and  C_8
REMARK    4  A    between atoms: C_8  and  C_9
REMARK    5  A    between atoms: C_9  and  C_12
REMARK    6  A    between atoms: C_16  and  O_17
REMARK    7  A    between atoms: O_17  and  C_18
REMARK                            x       y       z     vdW  Elec       q    Type
REMARK                         _______ _______ _______ _____ _____    ______ ____
ROOT
ATOM      1  C   UNL     1      43.724   5.875  11.996  0.00  0.00    +0.000 C 
ATOM      2  F   UNL     1      42.642   5.968  11.166  0.00  0.00    +0.000 F 
ATOM      3  F   UNL     1      43.202   5.556  13.222  0.00  0.00    +0.000 F 
ENDROOT
BRANCH   1   4
ATOM      4  C   UNL     1      44.512   7.170  12.032  0.00  0.00    +0.000 A 
ATOM      5  C   UNL     1      44.080   8.293  11.314  0.00  0.00    +0.000 A 
ATOM      6  C   UNL     1      44.792   9.493  11.382  0.00  0.00    +0.000 A 
ATOM      7  C   UNL     1      45.948   9.587  12.163  0.00  0.00    +0.000 A 
ATOM      8  C   UNL     1      46.396   8.472  12.866  0.00  0.00    +0.000 A 
ATOM      9  C   UNL     1      45.681   7.274  12.801  0.00  0.00    +0.000 A 
BRANCH   8  10
ATOM     10  O   UNL     1      47.490   8.445  13.691  0.00  0.00    +0.000 OA
BRANCH  10  11
ATOM     11  C   UNL     1      48.814   8.598  13.131  0.00  0.00    +0.000 C 
ATOM     12  C   UNL     1      49.165   7.781  11.869  0.00  0.00    +0.000 C 
ATOM     13  N   UNL     1      50.425   7.343  12.500  0.00  0.00    +0.000 NA
ATOM     14  C   UNL     1      49.899   7.738  13.819  0.00  0.00    +0.000 C 
ATOM     15  H   UNL     1      51.244   7.878  12.209  0.00  0.00    +0.000 HD
ENDBRANCH  10  11
ENDBRANCH   8  10
ENDBRANCH   1   4
BRANCH   1  16
ATOM     16  C   UNL     1      44.607   4.686  11.534  0.00  0.00    +0.000 C 
BRANCH  16  17
ATOM     17  N   UNL     1      44.038   3.964  10.380  0.00  0.00    +0.000 N 
ATOM     18  H   UNL     1      43.222   3.393  10.606  0.00  0.00    +0.000 HD
BRANCH  17  22
ATOM     19  C   UNL     1      46.684   2.494   7.442  0.00  0.00    +0.000 A 
ATOM     20  C   UNL     1      46.034   1.599   8.296  0.00  0.00    +0.000 A 
ATOM     21  C   UNL     1      45.135   2.070   9.259  0.00  0.00    +0.000 A 
ATOM     22  C   UNL     1      44.843   3.434   9.377  0.00  0.00    +0.000 A 
ATOM     23  C   UNL     1      45.515   4.317   8.521  0.00  0.00    +0.000 A 
ATOM     24  C   UNL     1      46.424   3.858   7.561  0.00  0.00    +0.000 A 
BRANCH  19  26
ATOM     25  N   UNL     1      48.386   1.618   5.692  0.00  0.00    +0.000 NA
ATOM     26  C   UNL     1      47.621   2.010   6.474  0.00  0.00    +0.000 C 
ENDBRANCH  19  26
ENDBRANCH  17  22
ENDBRANCH  16  17
ENDBRANCH   1  16
TORSDOF 7
ENDMDL
MODEL 5
REMARK VINA RESULT:    -6.941      2.578      7.959
REMARK INTER + INTRA:         -10.822
REMARK INTER:                 -10.258
REMARK INTRA:                  -0.564
REMARK UNBOUND:                -1.041
REMARK  Name = 
REMARK  7 active torsions:
REMARK  status: ('A' for Active; 'I' for Inactive)
REMARK    1  A    between atoms: C_2  and  C_3
REMARK    2  A    between atoms: C_6  and  N_7
REMARK    3  A    between atoms: N_7  and  C_8
REMARK    4  A    between atoms: C_8  and  C_9
REMARK    5  A    between atoms: C_9  and  C_12
REMARK    6  A    between atoms: C_16  and  O_17
REMARK    7  A    between atoms: O_17  and  C_18
REMARK                            x       y       z     vdW  Elec       q    Type
REMARK                         _______ _______ _______ _____ _____    ______ ____
ROOT
ATOM      1  C   UNL     1      45.245   6.093  11.288  0.00  0.00    +0.000 C 
ATOM      2  F   UNL     1      44.167   6.927  11.186  0.00  0.00    +0.000 F 
ATOM      3  F   UNL     1      46.317   6.852  10.897  0.00  0.00    +0.000 F 
ENDROOT
BRANCH   1   4
ATOM      4  C   UNL     1      45.077   4.858  10.425  0.00  0.00    +0.000 A 
ATOM      5  C   UNL     1      44.347   3.754  10.886  0.00  0.00    +0.000 A 
ATOM      6  C   UNL     1      44.167   2.634  10.069  0.00  0.00    +0.000 A 
ATOM      7  C   UNL     1      44.717   2.598   8.785  0.00  0.00    +0.000 A 
ATOM      8  C   UNL     1      45.460   3.682   8.324  0.00  0.00    +0.000 A 
ATOM      9  C   UNL     1      45.637   4.803   9.139  0.00  0.00    +0.000 A 
BRANCH   8  10
ATOM     10  O   UNL     1      46.020   3.783   7.077  0.00  0.00    +0.000 OA
BRANCH  10  11
ATOM     11  C   UNL     1      46.533   2.600   6.424  0.00  0.00    +0.000 C 
ATOM     12  C   UNL     1      47.796   1.937   7.015  0.00  0.00    +0.000 C 
ATOM     13  N   UNL     1      48.403   1.888   5.671  0.00  0.00    +0.000 NA
ATOM     14  C   UNL     1      47.429   2.889   5.198  0.00  0.00    +0.000 C 
ATOM     15  H   UNL     1      48.316   0.983   5.208  0.00  0.00    +0.000 HD
ENDBRANCH  10  11
ENDBRANCH   8  10
ENDBRANCH   1   4
BRANCH   1  16
ATOM     16  C   UNL     1      45.449   5.719  12.780  0.00  0.00    +0.000 C 
BRANCH  16  17
ATOM     17  N   UNL     1      46.832   5.305  13.083  0.00  0.00    +0.000 N 
ATOM     18  H   UNL     1      47.150   4.493  12.551  0.00  0.00    +0.000 HD
BRANCH  17  22
ATOM     19  C   UNL     1      48.536   5.312  16.941  0.00  0.00    +0.000 A 
ATOM     20  C   UNL     1      48.878   6.318  16.033  0.00  0.00    +0.000 A 
ATOM     21  C   UNL     1      48.303   6.343  14.758  0.00  0.00    +0.000 A 
ATOM     22  C   UNL     1      47.357   5.386  14.368  0.00  0.00    +0.000 A 
ATOM     23  C   UNL     1      47.038   4.378  15.286  0.00  0.00    +0.000 A 
ATOM     24  C   UNL     1      47.615   4.338  16.561  0.00  0.00    +0.000 A 
BRANCH  19  26
ATOM     25  N   UNL     1      49.644   5.250  19.285  0.00  0.00    +0.000 NA
ATOM     26  C   UNL     1      49.145   5.277  18.237  0.00  0.00    +0.000 C 
ENDBRANCH  19  26
ENDBRANCH  17  22
ENDBRANCH  16  17
ENDBRANCH   1  16
TORSDOF 7
ENDMDL
MODEL 6
REMARK VINA RESULT:    -6.867      3.225      7.112
REMARK INTER + INTRA:         -10.718
REMARK INTER:                 -10.066
REMARK INTRA:                  -0.652
REMARK UNBOUND:                -1.041
REMARK  Name = 
REMARK  7 active torsions:
REMARK  status: ('A' for Active; 'I' for Inactive)
REMARK    1  A    between atoms: C_2  and  C_3
REMARK    2  A    between atoms: C_6  and  N_7
REMARK    3  A    between atoms: N_7  and  C_8
REMARK    4  A    between atoms: C_8  and  C_9
REMARK    5  A    between atoms: C_9  and  C_12
REMARK    6  A    between atoms: C_16  and  O_17
REMARK    7  A    between atoms: O_17  and  C_18
REMARK                            x       y       z     vdW  Elec       q    Type
REMARK                         _______ _______ _______ _____ _____    ______ ____
ROOT
ATOM      1  C   UNL     1      44.431   6.157  11.294  0.00  0.00    +0.000 C 
ATOM      2  F   UNL     1      43.118   6.522  11.394  0.00  0.00    +0.000 F 
ATOM      3  F   UNL     1      45.049   7.220  10.689  0.00  0.00    +0.000 F 
ENDROOT
BRANCH   1   4
ATOM      4  C   UNL     1      44.596   4.876  10.499  0.00  0.00    +0.000 A 
ATOM      5  C   UNL     1      44.018   3.679  10.941  0.00  0.00    +0.000 A 
ATOM      6  C   UNL     1      44.143   2.511  10.184  0.00  0.00    +0.000 A 
ATOM      7  C   UNL     1      44.852   2.520   8.980  0.00  0.00    +0.000 A 
ATOM      8  C   UNL     1      45.446   3.701   8.540  0.00  0.00    +0.000 A 
ATOM      9  C   UNL     1      45.317   4.869   9.296  0.00  0.00    +0.000 A 
BRANCH   8  10
ATOM     10  O   UNL     1      46.135   3.849   7.364  0.00  0.00    +0.000 OA
BRANCH  10  11
ATOM     11  C   UNL     1      46.533   2.679   6.615  0.00  0.00    +0.000 C 
ATOM     12  C   UNL     1      47.843   1.971   7.020  0.00  0.00    +0.000 C 
ATOM     13  N   UNL     1      48.274   1.956   5.609  0.00  0.00    +0.000 NA
ATOM     14  C   UNL     1      47.274   2.991   5.295  0.00  0.00    +0.000 C 
ATOM     15  H   UNL     1      48.108   1.069   5.132  0.00  0.00    +0.000 HD
ENDBRANCH  10  11
ENDBRANCH   8  10
ENDBRANCH   1   4
BRANCH   1  16
ATOM     16  C   UNL     1      45.021   6.018  12.723  0.00  0.00    +0.000 C 
BRANCH  16  17
ATOM     17  N   UNL     1      45.660   7.259  13.202  0.00  0.00    +0.000 N 
ATOM     18  H   UNL     1      45.019   8.049  13.292  0.00  0.00    +0.000 HD
BRANCH  17  22
ATOM     19  C   UNL     1      49.556   8.155  11.859  0.00  0.00    +0.000 A 
ATOM     20  C   UNL     1      48.593   9.167  11.907  0.00  0.00    +0.000 A 
ATOM     21  C   UNL     1      47.303   8.890  12.373  0.00  0.00    +0.000 A 
ATOM     22  C   UNL     1      46.951   7.612  12.825  0.00  0.00    +0.000 A 
ATOM     23  C   UNL     1      47.926   6.609  12.756  0.00  0.00    +0.000 A 
ATOM     24  C   UNL     1      49.217   6.871  12.282  0.00  0.00    +0.000 A 
BRANCH  19  26
ATOM     25  N   UNL     1      51.935   8.664  10.959  0.00  0.00    +0.000 NA
ATOM     26  C   UNL     1      50.868   8.437  11.359  0.00  0.00    +0.000 C 
ENDBRANCH  19  26
ENDBRANCH  17  22
ENDBRANCH  16  17
ENDBRANCH   1  16
TORSDOF 7
ENDMDL
MODEL 7
REMARK VINA RESULT:    -5.889      2.550      7.884
REMARK INTER + INTRA:          -9.340
REMARK INTER:                  -8.700
REMARK INTRA:                  -0.640
REMARK UNBOUND:                -1.041
REMARK  Name = 
REMARK  7 active torsions:
REMARK  status: ('A' for Active; 'I' for Inactive)
REMARK    1  A    between atoms: C_2  and  C_3
REMARK    2  A    between atoms: C_6  and  N_7
REMARK    3  A    between atoms: N_7  and  C_8
REMARK    4  A    between atoms: C_8  and  C_9
REMARK    5  A    between atoms: C_9  and  C_12
REMARK    6  A    between atoms: C_16  and  O_17
REMARK    7  A    between atoms: O_17  and  C_18
REMARK                            x       y       z     vdW  Elec       q    Type
REMARK                         _______ _______ _______ _____ _____    ______ ____
ROOT
ATOM      1  C   UNL     1      46.493   6.718  12.512  0.00  0.00    +0.000 C 
ATOM      2  F   UNL     1      46.154   7.732  13.364  0.00  0.00    +0.000 F 
ATOM      3  F   UNL     1      47.082   7.338  11.441  0.00  0.00    +0.000 F 
ENDROOT
BRANCH   1   4
ATOM      4  C   UNL     1      45.281   5.905  12.103  0.00  0.00    +0.000 A 
ATOM      5  C   UNL     1      44.135   5.871  12.908  0.00  0.00    +0.000 A 
ATOM      6  C   UNL     1      43.009   5.148  12.505  0.00  0.00    +0.000 A 
ATOM      7  C   UNL     1      43.013   4.444  11.298  0.00  0.00    +0.000 A 
ATOM      8  C   UNL     1      44.154   4.456  10.499  0.00  0.00    +0.000 A 
ATOM      9  C   UNL     1      45.278   5.182  10.900  0.00  0.00    +0.000 A 
BRANCH   8  10
ATOM     10  O   UNL     1      44.273   3.838   9.281  0.00  0.00    +0.000 OA
BRANCH  10  11
ATOM     11  C   UNL     1      45.566   3.364   8.841  0.00  0.00    +0.000 C 
ATOM     12  C   UNL     1      45.878   3.411   7.330  0.00  0.00    +0.000 C 
ATOM     13  N   UNL     1      46.348   2.013   7.382  0.00  0.00    +0.000 NA
ATOM     14  C   UNL     1      45.657   1.831   8.670  0.00  0.00    +0.000 C 
ATOM     15  H   UNL     1      47.362   1.917   7.444  0.00  0.00    +0.000 HD
ENDBRANCH  10  11
ENDBRANCH   8  10
ENDBRANCH   1   4
BRANCH   1  16
ATOM     16  C   UNL     1      47.568   5.831  13.194  0.00  0.00    +0.000 C 
BRANCH  16  17
ATOM     17  N   UNL     1      47.013   4.978  14.263  0.00  0.00    +0.000 N 
ATOM     18  H   UNL     1      46.003   4.843  14.206  0.00  0.00    +0.000 HD
BRANCH  17  22
ATOM     19  C   UNL     1      48.633   4.843  18.155  0.00  0.00    +0.000 A 
ATOM     20  C   UNL     1      49.006   5.873  17.288  0.00  0.00    +0.000 A 
ATOM     21  C   UNL     1      48.459   5.945  16.002  0.00  0.00    +0.000 A 
ATOM     22  C   UNL     1      47.511   5.013  15.561  0.00  0.00    +0.000 A 
ATOM     23  C   UNL     1      47.161   3.980  16.440  0.00  0.00    +0.000 A 
ATOM     24  C   UNL     1      47.709   3.892  17.725  0.00  0.00    +0.000 A 
BRANCH  19  26
ATOM     25  N   UNL     1      49.687   4.696  20.520  0.00  0.00    +0.000 NA
ATOM     26  C   UNL     1      49.213   4.759  19.462  0.00  0.00    +0.000 C 
ENDBRANCH  19  26
ENDBRANCH  17  22
ENDBRANCH  16  17
ENDBRANCH   1  16
TORSDOF 7
ENDMDL
MODEL 8
REMARK VINA RESULT:    -5.840      3.387      7.480
REMARK INTER + INTRA:          -9.270
REMARK INTER:                  -8.596
REMARK INTRA:                  -0.674
REMARK UNBOUND:                -1.041
REMARK  Name = 
REMARK  7 active torsions:
REMARK  status: ('A' for Active; 'I' for Inactive)
REMARK    1  A    between atoms: C_2  and  C_3
REMARK    2  A    between atoms: C_6  and  N_7
REMARK    3  A    between atoms: N_7  and  C_8
REMARK    4  A    between atoms: C_8  and  C_9
REMARK    5  A    between atoms: C_9  and  C_12
REMARK    6  A    between atoms: C_16  and  O_17
REMARK    7  A    between atoms: O_17  and  C_18
REMARK                            x       y       z     vdW  Elec       q    Type
REMARK                         _______ _______ _______ _____ _____    ______ ____
ROOT
ATOM      1  C   UNL     1      47.884   6.718  14.222  0.00  0.00    +0.000 C 
ATOM      2  F   UNL     1      48.112   7.731  15.111  0.00  0.00    +0.000 F 
ATOM      3  F   UNL     1      49.084   6.525  13.590  0.00  0.00    +0.000 F 
ENDROOT
BRANCH   1   4
ATOM      4  C   UNL     1      46.778   7.070  13.247  0.00  0.00    +0.000 A 
ATOM      5  C   UNL     1      46.333   8.392  13.113  0.00  0.00    +0.000 A 
ATOM      6  C   UNL     1      45.339   8.713  12.185  0.00  0.00    +0.000 A 
ATOM      7  C   UNL     1      44.771   7.720  11.383  0.00  0.00    +0.000 A 
ATOM      8  C   UNL     1      45.192   6.400  11.521  0.00  0.00    +0.000 A 
ATOM      9  C   UNL     1      46.189   6.080  12.446  0.00  0.00    +0.000 A 
BRANCH   8  10
ATOM     10  O   UNL     1      44.741   5.343  10.773  0.00  0.00    +0.000 OA
BRANCH  10  11
ATOM     11  C   UNL     1      44.563   4.050  11.393  0.00  0.00    +0.000 C 
ATOM     12  C   UNL     1      43.966   2.913  10.538  0.00  0.00    +0.000 C 
ATOM     13  N   UNL     1      43.012   2.598  11.619  0.00  0.00    +0.000 NA
ATOM     14  C   UNL     1      43.267   3.916  12.225  0.00  0.00    +0.000 C 
ATOM     15  H   UNL     1      43.294   1.815  12.208  0.00  0.00    +0.000 HD
ENDBRANCH  10  11
ENDBRANCH   8  10
ENDBRANCH   1   4
BRANCH   1  16
ATOM     16  C   UNL     1      47.553   5.425  15.013  0.00  0.00    +0.000 C 
BRANCH  16  17
ATOM     17  N   UNL     1      48.097   5.436  16.384  0.00  0.00    +0.000 N 
ATOM     18  H   UNL     1      48.258   6.372  16.761  0.00  0.00    +0.000 HD
BRANCH  17  22
ATOM     19  C   UNL     1      50.869   2.443  17.455  0.00  0.00    +0.000 A 
ATOM     20  C   UNL     1      51.219   3.789  17.592  0.00  0.00    +0.000 A 
ATOM     21  C   UNL     1      50.301   4.793  17.264  0.00  0.00    +0.000 A 
ATOM     22  C   UNL     1      49.010   4.482  16.819  0.00  0.00    +0.000 A 
ATOM     23  C   UNL     1      48.683   3.128  16.675  0.00  0.00    +0.000 A 
ATOM     24  C   UNL     1      49.596   2.115  16.991  0.00  0.00    +0.000 A 
BRANCH  19  26
ATOM     25  N   UNL     1      52.585   0.583  18.023  0.00  0.00    +0.000 NA
ATOM     26  C   UNL     1      51.819   1.418  17.769  0.00  0.00    +0.000 C 
ENDBRANCH  19  26
ENDBRANCH  17  22
ENDBRANCH  16  17
ENDBRANCH   1  16
TORSDOF 7
ENDMDL
MODEL 9
REMARK VINA RESULT:    -5.750      3.331      5.051
REMARK INTER + INTRA:          -9.143
REMARK INTER:                  -8.297
REMARK INTRA:                  -0.847
REMARK UNBOUND:                -1.041
REMARK  Name = 
REMARK  7 active torsions:
REMARK  status: ('A' for Active; 'I' for Inactive)
REMARK    1  A    between atoms: C_2  and  C_3
REMARK    2  A    between atoms: C_6  and  N_7
REMARK    3  A    between atoms: N_7  and  C_8
REMARK    4  A    between atoms: C_8  and  C_9
REMARK    5  A    between atoms: C_9  and  C_12
REMARK    6  A    between atoms: C_16  and  O_17
REMARK    7  A    between atoms: O_17  and  C_18
REMARK                            x       y       z     vdW  Elec       q    Type
REMARK                         _______ _______ _______ _____ _____    ______ ____
ROOT
ATOM      1  C   UNL     1      48.677   8.310  14.436  0.00  0.00    +0.000 C 
ATOM      2  F   UNL     1      49.599   9.306  14.274  0.00  0.00    +0.000 F 
ATOM      3  F   UNL     1      47.461   8.931  14.318  0.00  0.00    +0.000 F 
ENDROOT
BRANCH   1   4
ATOM      4  C   UNL     1      48.834   7.618  15.776  0.00  0.00    +0.000 A 
ATOM      5  C   UNL     1      48.550   8.294  16.970  0.00  0.00    +0.000 A 
ATOM      6  C   UNL     1      48.661   7.638  18.199  0.00  0.00    +0.000 A 
ATOM      7  C   UNL     1      49.064   6.300  18.253  0.00  0.00    +0.000 A 
ATOM      8  C   UNL     1      49.367   5.624  17.073  0.00  0.00    +0.000 A 
ATOM      9  C   UNL     1      49.251   6.280  15.846  0.00  0.00    +0.000 A 
BRANCH   8  10
ATOM     10  O   UNL     1      49.737   4.307  16.990  0.00  0.00    +0.000 OA
BRANCH  10  11
ATOM     11  C   UNL     1      48.722   3.278  16.964  0.00  0.00    +0.000 C 
ATOM     12  C   UNL     1      47.307   3.668  16.488  0.00  0.00    +0.000 C 
ATOM     13  N   UNL     1      46.723   3.003  17.669  0.00  0.00    +0.000 NA
ATOM     14  C   UNL     1      48.041   3.023  18.328  0.00  0.00    +0.000 C 
ATOM     15  H   UNL     1      46.372   2.063  17.486  0.00  0.00    +0.000 HD
ENDBRANCH  10  11
ENDBRANCH   8  10
ENDBRANCH   1   4
BRANCH   1  16
ATOM     16  C   UNL     1      48.813   7.307  13.260  0.00  0.00    +0.000 C 
BRANCH  16  17
ATOM     17  N   UNL     1      47.705   7.408  12.291  0.00  0.00    +0.000 N 
ATOM     18  H   UNL     1      47.273   8.333  12.246  0.00  0.00    +0.000 HD
BRANCH  17  22
ATOM     19  C   UNL     1      44.890   4.298  11.851  0.00  0.00    +0.000 A 
ATOM     20  C   UNL     1      45.050   5.234  10.827  0.00  0.00    +0.000 A 
ATOM     21  C   UNL     1      45.996   6.258  10.948  0.00  0.00    +0.000 A 
ATOM     22  C   UNL     1      46.822   6.356  12.075  0.00  0.00    +0.000 A 
ATOM     23  C   UNL     1      46.638   5.416  13.097  0.00  0.00    +0.000 A 
ATOM     24  C   UNL     1      45.687   4.394  12.991  0.00  0.00    +0.000 A 
BRANCH  19  26
ATOM     25  N   UNL     1      43.107   2.426  11.643  0.00  0.00    +0.000 NA
ATOM     26  C   UNL     1      43.904   3.266  11.734  0.00  0.00    +0.000 C 
ENDBRANCH  19  26
ENDBRANCH  17  22
ENDBRANCH  16  17
ENDBRANCH   1  16
TORSDOF 7
ENDMDL
