MODEL 1
REMARK VINA RESULT:    -7.474      0.000      0.000
REMARK INTER + INTRA:         -10.067
REMARK INTER:                  -9.440
REMARK INTRA:                  -0.627
REMARK UNBOUND:                -0.627
REMARK  Name = 
REMARK  5 active torsions:
REMARK  status: ('A' for Active; 'I' for Inactive)
REMARK    1  A    between atoms: N_1  and  C_2
REMARK    2  A    between atoms: C_2  and  C_3
REMARK    3  A    between atoms: C_3  and  C_4
REMARK    4  A    between atoms: C_8  and  C_9
REMARK    5  A    between atoms: C_9  and  N_10
REMARK                            x       y       z     vdW  Elec       q    Type
REMARK                         _______ _______ _______ _____ _____    ______ ____
ROOT
ATOM      1  C   UNL     1      46.034   3.316   7.870  0.00  0.00    +0.000 A 
ATOM      2  C   UNL     1      45.755   1.970   8.130  0.00  0.00    +0.000 A 
ATOM      3  C   UNL     1      44.843   1.621   9.125  0.00  0.00    +0.000 A 
ATOM      4  C   UNL     1      44.237   2.613   9.900  0.00  0.00    +0.000 A 
ATOM      5  C   UNL     1      44.543   3.964   9.695  0.00  0.00    +0.000 A 
ATOM      6  C   UNL     1      45.421   4.307   8.653  0.00  0.00    +0.000 A 
ENDROOT
BRANCH   1   7
ATOM      7  C   UNL     1      47.042   3.703   6.814  0.00  0.00    +0.000 C 
BRANCH   7   8
ATOM      8  C   UNL     1      47.114   2.648   5.704  0.00  0.00    +0.000 C 
BRANCH   8   9
ATOM      9  N   UNL     1      48.408   1.972   5.699  0.00  0.00    +0.000 NA
ATOM     10  H   UNL     1      49.146   2.659   5.548  0.00  0.00    +0.000 HD
ATOM     11  H   UNL     1      48.456   1.324   4.913  0.00  0.00    +0.000 HD
ENDBRANCH   8   9
ENDBRANCH   7   8
ENDBRANCH   1   7
BRANCH   5  12
ATOM     12  C   UNL     1      44.030   5.028  10.631  0.00  0.00    +0.000 C 
BRANCH  12  13
ATOM     13  N   UNL     1      45.075   5.728  11.369  0.00  0.00    +0.000 N 
ATOM     14  C   UNL     1      45.268   7.089  11.308  0.00  0.00    +0.000 A 
ATOM     15  C   UNL     1      46.191   7.433  12.269  0.00  0.00    +0.000 A 
ATOM     16  C   UNL     1      46.568   6.247  12.953  0.00  0.00    +0.000 A 
ATOM     17  C   UNL     1      47.431   5.977  14.024  0.00  0.00    +0.000 A 
ATOM     18  N   UNL     1      47.583   4.715  14.492  0.00  0.00    +0.000 NA
ATOM     19  C   UNL     1      46.892   3.718  13.899  0.00  0.00    +0.000 A 
ATOM     20  C   UNL     1      46.016   3.879  12.835  0.00  0.00    +0.000 A 
ATOM     21  C   UNL     1      45.864   5.187  12.368  0.00  0.00    +0.000 A 
ENDBRANCH  12  13
ENDBRANCH   5  12
TORSDOF 5
ENDMDL
MODEL 2
REMARK VINA RESULT:    -7.220      1.675      6.106
REMARK INTER + INTRA:          -9.746
REMARK INTER:                  -9.254
REMARK INTRA:                  -0.492
REMARK UNBOUND:                -0.627
REMARK  Name = 
REMARK  5 active torsions:
REMARK  status: ('A' for Active; 'I' for Inactive)
REMARK    1  A    between atoms: N_1  and  C_2
REMARK    2  A    between atoms: C_2  and  C_3
REMARK    3  A    between atoms: C_3  and  C_4
REMARK    4  A    between atoms: C_8  and  C_9
REMARK    5  A    between atoms: C_9  and  N_10
REMARK                            x       y       z     vdW  Elec       q    Type
REMARK                         _______ _______ _______ _____ _____    ______ ____
ROOT
ATOM      1  C   UNL     1      45.676   4.408  12.982  0.00  0.00    +0.000 A 
ATOM      2  C   UNL     1      44.600   5.214  13.371  0.00  0.00    +0.000 A 
ATOM      3  C   UNL     1      43.370   5.102  12.726  0.00  0.00    +0.000 A 
ATOM      4  C   UNL     1      43.216   4.216  11.656  0.00  0.00    +0.000 A 
ATOM      5  C   UNL     1      44.294   3.439  11.214  0.00  0.00    +0.000 A 
ATOM      6  C   UNL     1      45.514   3.520  11.907  0.00  0.00    +0.000 A 
ENDROOT
BRANCH   1   7
ATOM      7  C   UNL     1      47.021   4.542  13.655  0.00  0.00    +0.000 C 
BRANCH   7   8
ATOM      8  C   UNL     1      46.955   4.090  15.119  0.00  0.00    +0.000 C 
BRANCH   8   9
ATOM      9  N   UNL     1      47.885   2.995  15.378  0.00  0.00    +0.000 NA
ATOM     10  H   UNL     1      47.399   2.254  15.883  0.00  0.00    +0.000 HD
ATOM     11  H   UNL     1      48.633   3.315  15.992  0.00  0.00    +0.000 HD
ENDBRANCH   8   9
ENDBRANCH   7   8
ENDBRANCH   1   7
BRANCH   5  12
ATOM     12  C   UNL     1      44.191   2.610   9.960  0.00  0.00    +0.000 C 
BRANCH  12  13
ATOM     13  N   UNL     1      45.074   3.043   8.884  0.00  0.00    +0.000 N 
ATOM     14  C   UNL     1      45.310   4.363   8.576  0.00  0.00    +0.000 A 
ATOM     15  C   UNL     1      46.333   4.414   7.658  0.00  0.00    +0.000 A 
ATOM     16  C   UNL     1      46.751   3.080   7.401  0.00  0.00    +0.000 A 
ATOM     17  C   UNL     1      47.749   2.515   6.597  0.00  0.00    +0.000 A 
ATOM     18  N   UNL     1      47.936   1.174   6.564  0.00  0.00    +0.000 NA
ATOM     19  C   UNL     1      47.135   0.390   7.316  0.00  0.00    +0.000 A 
ATOM     20  C   UNL     1      46.121   0.849   8.144  0.00  0.00    +0.000 A 
ATOM     21  C   UNL     1      45.944   2.235   8.173  0.00  0.00    +0.000 A 
ENDBRANCH  12  13
ENDBRANCH   5  12
TORSDOF 5
ENDMDL
MODEL 3
REMARK VINA RESULT:    -7.217      1.151      1.909
REMARK INTER + INTRA:          -9.743
REMARK INTER:                  -9.155
REMARK INTRA:                  -0.588
REMARK UNBOUND:                -0.627
REMARK  Name = 
REMARK  5 active torsions:
REMARK  status: ('A' for Active; 'I' for Inactive)
REMARK    1  A    between atoms: N_1  and  C_2
REMARK    2  A    between atoms: C_2  and  C_3
REMARK    3  A    between atoms: C_3  and  C_4
REMARK    4  A    between atoms: C_8  and  C_9
REMARK    5  A    between atoms: C_9  and  N_10
REMARK                            x       y       z     vdW  Elec       q    Type
REMARK                         _______ _______ _______ _____ _____    ______ ____
ROOT
ATOM      1  C   UNL     1      45.984   3.287   7.968  0.00  0.00    +0.000 A 
ATOM      2  C   UNL     1      45.483   2.018   8.278  0.00  0.00    +0.000 A 
ATOM      3  C   UNL     1      44.562   1.860   9.313  0.00  0.00    +0.000 A 
ATOM      4  C   UNL     1      44.170   2.962  10.077  0.00  0.00    +0.000 A 
ATOM      5  C   UNL     1      44.701   4.233   9.821  0.00  0.00    +0.000 A 
ATOM      6  C   UNL     1      45.585   4.389   8.740  0.00  0.00    +0.000 A 
ENDROOT
BRANCH   1   7
ATOM      7  C   UNL     1      47.003   3.464   6.868  0.00  0.00    +0.000 C 
BRANCH   7   8
ATOM      8  C   UNL     1      47.953   2.263   6.794  0.00  0.00    +0.000 C 
BRANCH   8   9
ATOM      9  N   UNL     1      48.435   2.052   5.432  0.00  0.00    +0.000 NA
ATOM     10  H   UNL     1      49.066   1.251   5.420  0.00  0.00    +0.000 HD
ATOM     11  H   UNL     1      48.988   2.855   5.133  0.00  0.00    +0.000 HD
ENDBRANCH   8   9
ENDBRANCH   7   8
ENDBRANCH   1   7
BRANCH   5  12
ATOM     12  C   UNL     1      44.420   5.393  10.741  0.00  0.00    +0.000 C 
BRANCH  12  13
ATOM     13  N   UNL     1      45.239   5.411  11.947  0.00  0.00    +0.000 N 
ATOM     14  C   UNL     1      45.034   4.574  13.019  0.00  0.00    +0.000 A 
ATOM     15  C   UNL     1      46.096   4.717  13.882  0.00  0.00    +0.000 A 
ATOM     16  C   UNL     1      46.991   5.664  13.316  0.00  0.00    +0.000 A 
ATOM     17  C   UNL     1      48.230   6.184  13.711  0.00  0.00    +0.000 A 
ATOM     18  N   UNL     1      48.883   7.085  12.939  0.00  0.00    +0.000 NA
ATOM     19  C   UNL     1      48.310   7.481  11.783  0.00  0.00    +0.000 A 
ATOM     20  C   UNL     1      47.089   7.028  11.302  0.00  0.00    +0.000 A 
ATOM     21  C   UNL     1      46.432   6.094  12.106  0.00  0.00    +0.000 A 
ENDBRANCH  12  13
ENDBRANCH   5  12
TORSDOF 5
ENDMDL
MODEL 4
REMARK VINA RESULT:    -6.268      1.506      2.516
REMARK INTER + INTRA:          -8.544
REMARK INTER:                  -7.893
REMARK INTRA:                  -0.651
REMARK UNBOUND:                -0.627
REMARK  Name = 
REMARK  5 active torsions:
REMARK  status: ('A' for Active; 'I' for Inactive)
REMARK    1  A    between atoms: N_1  and  C_2
REMARK    2  A    between atoms: C_2  and  C_3
REMARK    3  A    between atoms: C_3  and  C_4
REMARK    4  A    between atoms: C_8  and  C_9
REMARK    5  A    between atoms: C_9  and  N_10
REMARK                            x       y       z     vdW  Elec       q    Type
REMARK                         _______ _______ _______ _____ _____    ______ ____
ROOT
ATOM      1  C   UNL     1      45.577   3.831   8.612  0.00  0.00    +0.000 A 
ATOM      2  C   UNL     1      45.158   2.508   8.787  0.00  0.00    +0.000 A 
ATOM      3  C   UNL     1      44.308   2.175   9.841  0.00  0.00    +0.000 A 
ATOM      4  C   UNL     1      43.908   3.152  10.756  0.00  0.00    +0.000 A 
ATOM      5  C   UNL     1      44.360   4.472  10.632  0.00  0.00    +0.000 A 
ATOM      6  C   UNL     1      45.170   4.808   9.534  0.00  0.00    +0.000 A 
ENDROOT
BRANCH   1   7
ATOM      7  C   UNL     1      46.519   4.197   7.490  0.00  0.00    +0.000 C 
BRANCH   7   8
ATOM      8  C   UNL     1      46.857   2.975   6.629  0.00  0.00    +0.000 C 
BRANCH   8   9
ATOM      9  N   UNL     1      48.296   2.865   6.405  0.00  0.00    +0.000 NA
ATOM     10  H   UNL     1      48.606   1.931   6.671  0.00  0.00    +0.000 HD
ATOM     11  H   UNL     1      48.791   3.515   7.015  0.00  0.00    +0.000 HD
ENDBRANCH   8   9
ENDBRANCH   7   8
ENDBRANCH   1   7
BRANCH   5  12
ATOM     12  C   UNL     1      44.076   5.495  11.702  0.00  0.00    +0.000 C 
BRANCH  12  13
ATOM     13  N   UNL     1      45.250   5.905  12.462  0.00  0.00    +0.000 N 
ATOM     14  C   UNL     1      46.100   5.022  13.087  0.00  0.00    +0.000 A 
ATOM     15  C   UNL     1      47.196   5.725  13.530  0.00  0.00    +0.000 A 
ATOM     16  C   UNL     1      47.023   7.083  13.153  0.00  0.00    +0.000 A 
ATOM     17  C   UNL     1      47.803   8.237  13.299  0.00  0.00    +0.000 A 
ATOM     18  N   UNL     1      47.381   9.427  12.809  0.00  0.00    +0.000 NA
ATOM     19  C   UNL     1      46.186   9.481  12.183  0.00  0.00    +0.000 A 
ATOM     20  C   UNL     1      45.340   8.400  11.987  0.00  0.00    +0.000 A 
ATOM     21  C   UNL     1      45.792   7.178  12.492  0.00  0.00    +0.000 A 
ENDBRANCH  12  13
ENDBRANCH   5  12
TORSDOF 5
ENDMDL
MODEL 5
REMARK VINA RESULT:    -5.969      1.281      6.494
REMARK INTER + INTRA:          -8.166
REMARK INTER:                  -7.932
REMARK INTRA:                  -0.235
REMARK UNBOUND:                -0.627
REMARK  Name = 
REMARK  5 active torsions:
REMARK  status: ('A' for Active; 'I' for Inactive)
REMARK    1  A    between atoms: N_1  and  C_2
REMARK    2  A    between atoms: C_2  and  C_3
REMARK    3  A    between atoms: C_3  and  C_4
REMARK    4  A    between atoms: C_8  and  C_9
REMARK    5  A    between atoms: C_9  and  N_10
REMARK                            x       y       z     vdW  Elec       q    Type
REMARK                         _______ _______ _______ _____ _____    ______ ____
ROOT
ATOM      1  C   UNL     1      46.022   4.935  12.855  0.00  0.00    +0.000 A 
ATOM      2  C   UNL     1      45.806   6.279  13.175  0.00  0.00    +0.000 A 
ATOM      3  C   UNL     1      45.248   7.144  12.235  0.00  0.00    +0.000 A 
ATOM      4  C   UNL     1      44.944   6.684  10.951  0.00  0.00    +0.000 A 
ATOM      5  C   UNL     1      45.203   5.355  10.591  0.00  0.00    +0.000 A 
ATOM      6  C   UNL     1      45.713   4.479  11.563  0.00  0.00    +0.000 A 
ENDROOT
BRANCH   1   7
ATOM      7  C   UNL     1      46.651   3.996  13.856  0.00  0.00    +0.000 C 
BRANCH   7   8
ATOM      8  C   UNL     1      47.179   4.760  15.076  0.00  0.00    +0.000 C 
BRANCH   8   9
ATOM      9  N   UNL     1      46.790   4.106  16.321  0.00  0.00    +0.000 NA
ATOM     10  H   UNL     1      46.188   3.310  16.109  0.00  0.00    +0.000 HD
ATOM     11  H   UNL     1      46.230   4.744  16.886  0.00  0.00    +0.000 HD
ENDBRANCH   8   9
ENDBRANCH   7   8
ENDBRANCH   1   7
BRANCH   5  12
ATOM     12  C   UNL     1      45.040   4.891   9.166  0.00  0.00    +0.000 C 
BRANCH  12  13
ATOM     13  N   UNL     1      45.321   3.476   8.964  0.00  0.00    +0.000 N 
ATOM     14  C   UNL     1      44.531   2.464   9.457  0.00  0.00    +0.000 A 
ATOM     15  C   UNL     1      44.967   1.277   8.915  0.00  0.00    +0.000 A 
ATOM     16  C   UNL     1      46.053   1.569   8.048  0.00  0.00    +0.000 A 
ATOM     17  C   UNL     1      46.865   0.789   7.214  0.00  0.00    +0.000 A 
ATOM     18  N   UNL     1      47.840   1.358   6.465  0.00  0.00    +0.000 NA
ATOM     19  C   UNL     1      48.020   2.693   6.545  0.00  0.00    +0.000 A 
ATOM     20  C   UNL     1      47.272   3.553   7.337  0.00  0.00    +0.000 A 
ATOM     21  C   UNL     1      46.266   2.952   8.098  0.00  0.00    +0.000 A 
ENDBRANCH  12  13
ENDBRANCH   5  12
TORSDOF 5
ENDMDL
MODEL 6
REMARK VINA RESULT:    -5.856      2.337      3.538
REMARK INTER + INTRA:          -8.024
REMARK INTER:                  -7.428
REMARK INTRA:                  -0.596
REMARK UNBOUND:                -0.627
REMARK  Name = 
REMARK  5 active torsions:
REMARK  status: ('A' for Active; 'I' for Inactive)
REMARK    1  A    between atoms: N_1  and  C_2
REMARK    2  A    between atoms: C_2  and  C_3
REMARK    3  A    between atoms: C_3  and  C_4
REMARK    4  A    between atoms: C_8  and  C_9
REMARK    5  A    between atoms: C_9  and  N_10
REMARK                            x       y       z     vdW  Elec       q    Type
REMARK                         _______ _______ _______ _____ _____    ______ ____
ROOT
ATOM      1  C   UNL     1      44.609   4.045   9.952  0.00  0.00    +0.000 A 
ATOM      2  C   UNL     1      43.810   3.106  10.613  0.00  0.00    +0.000 A 
ATOM      3  C   UNL     1      43.771   3.074  12.006  0.00  0.00    +0.000 A 
ATOM      4  C   UNL     1      44.566   3.949  12.751  0.00  0.00    +0.000 A 
ATOM      5  C   UNL     1      45.415   4.860  12.110  0.00  0.00    +0.000 A 
ATOM      6  C   UNL     1      45.404   4.922  10.706  0.00  0.00    +0.000 A 
ENDROOT
BRANCH   1   7
ATOM      7  C   UNL     1      44.679   4.070   8.443  0.00  0.00    +0.000 C 
BRANCH   7   8
ATOM      8  C   UNL     1      45.954   3.385   7.937  0.00  0.00    +0.000 C 
BRANCH   8   9
ATOM      9  N   UNL     1      46.684   4.244   7.010  0.00  0.00    +0.000 NA
ATOM     10  H   UNL     1      47.652   4.328   7.321  0.00  0.00    +0.000 HD
ATOM     11  H   UNL     1      46.295   5.186   7.032  0.00  0.00    +0.000 HD
ENDBRANCH   8   9
ENDBRANCH   7   8
ENDBRANCH   1   7
BRANCH   5  12
ATOM     12  C   UNL     1      46.400   5.689  12.894  0.00  0.00    +0.000 C 
BRANCH  12  13
ATOM     13  N   UNL     1      46.394   7.106  12.553  0.00  0.00    +0.000 N 
ATOM     14  C   UNL     1      45.316   7.935  12.762  0.00  0.00    +0.000 A 
ATOM     15  C   UNL     1      45.718   9.228  12.521  0.00  0.00    +0.000 A 
ATOM     16  C   UNL     1      47.092   9.196  12.164  0.00  0.00    +0.000 A 
ATOM     17  C   UNL     1      48.034  10.182  11.843  0.00  0.00    +0.000 A 
ATOM     18  N   UNL     1      49.316   9.851  11.555  0.00  0.00    +0.000 NA
ATOM     19  C   UNL     1      49.667   8.548  11.576  0.00  0.00    +0.000 A 
ATOM     20  C   UNL     1      48.813   7.497  11.881  0.00  0.00    +0.000 A 
ATOM     21  C   UNL     1      47.496   7.855  12.182  0.00  0.00    +0.000 A 
ENDBRANCH  12  13
ENDBRANCH   5  12
TORSDOF 5
ENDMDL
MODEL 7
REMARK VINA RESULT:    -5.842      3.492      6.758
REMARK INTER + INTRA:          -8.006
REMARK INTER:                  -7.390
REMARK INTRA:                  -0.616
REMARK UNBOUND:                -0.627
REMARK  Name = 
REMARK  5 active torsions:
REMARK  status: ('A' for Active; 'I' for Inactive)
REMARK    1  A    between atoms: N_1  and  C_2
REMARK    2  A    between atoms: C_2  and  C_3
REMARK    3  A    between atoms: C_3  and  C_4
REMARK    4  A    between atoms: C_8  and  C_9
REMARK    5  A    between atoms: C_9  and  N_10
REMARK                            x       y       z     vdW  Elec       q    Type
REMARK                         _______ _______ _______ _____ _____    ______ ____
ROOT
ATOM      1  C   UNL     1      47.866   4.693  16.298  0.00  0.00    +0.000 A 
ATOM      2  C   UNL     1      48.567   5.744  16.898  0.00  0.00    +0.000 A 
ATOM      3  C   UNL     1      48.847   6.904  16.177  0.00  0.00    +0.000 A 
ATOM      4  C   UNL     1      48.467   7.004  14.835  0.00  0.00    +0.000 A 
ATOM      5  C   UNL     1      47.813   5.942  14.198  0.00  0.00    +0.000 A 
ATOM      6  C   UNL     1      47.488   4.801  14.951  0.00  0.00    +0.000 A 
ENDROOT
BRANCH   1   7
ATOM      7  C   UNL     1      47.584   3.421  17.062  0.00  0.00    +0.000 C 
BRANCH   7   8
ATOM      8  C   UNL     1      48.864   2.603  17.268  0.00  0.00    +0.000 C 
BRANCH   8   9
ATOM      9  N   UNL     1      49.210   1.849  16.067  0.00  0.00    +0.000 NA
ATOM     10  H   UNL     1      48.356   1.507  15.628  0.00  0.00    +0.000 HD
ATOM     11  H   UNL     1      49.751   1.023  16.322  0.00  0.00    +0.000 HD
ENDBRANCH   8   9
ENDBRANCH   7   8
ENDBRANCH   1   7
BRANCH   5  12
ATOM     12  C   UNL     1      47.552   5.968  12.714  0.00  0.00    +0.000 C 
BRANCH  12  13
ATOM     13  N   UNL     1      46.161   6.217  12.357  0.00  0.00    +0.000 N 
ATOM     14  C   UNL     1      45.666   7.461  12.040  0.00  0.00    +0.000 A 
ATOM     15  C   UNL     1      44.386   7.303  11.562  0.00  0.00    +0.000 A 
ATOM     16  C   UNL     1      44.086   5.915  11.573  0.00  0.00    +0.000 A 
ATOM     17  C   UNL     1      42.972   5.160  11.183  0.00  0.00    +0.000 A 
ATOM     18  N   UNL     1      42.976   3.810  11.293  0.00  0.00    +0.000 NA
ATOM     19  C   UNL     1      44.073   3.205  11.795  0.00  0.00    +0.000 A 
ATOM     20  C   UNL     1      45.225   3.859  12.209  0.00  0.00    +0.000 A 
ATOM     21  C   UNL     1      45.209   5.251  12.083  0.00  0.00    +0.000 A 
ENDBRANCH  12  13
ENDBRANCH   5  12
TORSDOF 5
ENDMDL
MODEL 8
REMARK VINA RESULT:    -5.744      2.340      5.849
REMARK INTER + INTRA:          -7.882
REMARK INTER:                  -7.238
REMARK INTRA:                  -0.644
REMARK UNBOUND:                -0.627
REMARK  Name = 
REMARK  5 active torsions:
REMARK  status: ('A' for Active; 'I' for Inactive)
REMARK    1  A    between atoms: N_1  and  C_2
REMARK    2  A    between atoms: C_2  and  C_3
REMARK    3  A    between atoms: C_3  and  C_4
REMARK    4  A    between atoms: C_8  and  C_9
REMARK    5  A    between atoms: C_9  and  N_10
REMARK                            x       y       z     vdW  Elec       q    Type
REMARK                         _______ _______ _______ _____ _____    ______ ____
ROOT
ATOM      1  C   UNL     1      48.328   7.430  12.261  0.00  0.00    +0.000 A 
ATOM      2  C   UNL     1      48.734   6.953  13.512  0.00  0.00    +0.000 A 
ATOM      3  C   UNL     1      47.906   6.099  14.240  0.00  0.00    +0.000 A 
ATOM      4  C   UNL     1      46.646   5.752  13.745  0.00  0.00    +0.000 A 
ATOM      5  C   UNL     1      46.197   6.263  12.520  0.00  0.00    +0.000 A 
ATOM      6  C   UNL     1      47.061   7.077  11.770  0.00  0.00    +0.000 A 
ENDROOT
BRANCH   1   7
ATOM      7  C   UNL     1      49.205   8.377  11.477  0.00  0.00    +0.000 C 
BRANCH   7   8
ATOM      8  C   UNL     1      50.680   8.210  11.859  0.00  0.00    +0.000 C 
BRANCH   8   9
ATOM      9  N   UNL     1      51.368   7.310  10.938  0.00  0.00    +0.000 NA
ATOM     10  H   UNL     1      50.711   6.996  10.223  0.00  0.00    +0.000 HD
ATOM     11  H   UNL     1      51.670   6.473  11.434  0.00  0.00    +0.000 HD
ENDBRANCH   8   9
ENDBRANCH   7   8
ENDBRANCH   1   7
BRANCH   5  12
ATOM     12  C   UNL     1      44.781   6.036  12.057  0.00  0.00    +0.000 C 
BRANCH  12  13
ATOM     13  N   UNL     1      44.519   4.685  11.576  0.00  0.00    +0.000 N 
ATOM     14  C   UNL     1      43.722   3.781  12.238  0.00  0.00    +0.000 A 
ATOM     15  C   UNL     1      43.530   2.695  11.415  0.00  0.00    +0.000 A 
ATOM     16  C   UNL     1      44.222   2.945  10.200  0.00  0.00    +0.000 A 
ATOM     17  C   UNL     1      44.366   2.233   9.002  0.00  0.00    +0.000 A 
ATOM     18  N   UNL     1      45.090   2.740   7.976  0.00  0.00    +0.000 NA
ATOM     19  C   UNL     1      45.680   3.944   8.133  0.00  0.00    +0.000 A 
ATOM     20  C   UNL     1      45.599   4.727   9.276  0.00  0.00    +0.000 A 
ATOM     21  C   UNL     1      44.843   4.194  10.323  0.00  0.00    +0.000 A 
ENDBRANCH  12  13
ENDBRANCH   5  12
TORSDOF 5
ENDMDL
MODEL 9
REMARK VINA RESULT:    -5.713      1.739      6.326
REMARK INTER + INTRA:          -7.843
REMARK INTER:                  -7.175
REMARK INTRA:                  -0.668
REMARK UNBOUND:                -0.627
REMARK  Name = 
REMARK  5 active torsions:
REMARK  status: ('A' for Active; 'I' for Inactive)
REMARK    1  A    between atoms: N_1  and  C_2
REMARK    2  A    between atoms: C_2  and  C_3
REMARK    3  A    between atoms: C_3  and  C_4
REMARK    4  A    between atoms: C_8  and  C_9
REMARK    5  A    between atoms: C_9  and  N_10
REMARK                            x       y       z     vdW  Elec       q    Type
REMARK                         _______ _______ _______ _____ _____    ______ ____
ROOT
ATOM      1  C   UNL     1      47.989   6.421  14.034  0.00  0.00    +0.000 A 
ATOM      2  C   UNL     1      48.948   6.969  13.176  0.00  0.00    +0.000 A 
ATOM      3  C   UNL     1      48.575   7.445  11.919  0.00  0.00    +0.000 A 
ATOM      4  C   UNL     1      47.250   7.333  11.491  0.00  0.00    +0.000 A 
ATOM      5  C   UNL     1      46.284   6.737  12.312  0.00  0.00    +0.000 A 
ATOM      6  C   UNL     1      46.659   6.312  13.598  0.00  0.00    +0.000 A 
ENDROOT
BRANCH   1   7
ATOM      7  C   UNL     1      48.387   5.878  15.386  0.00  0.00    +0.000 C 
BRANCH   7   8
ATOM      8  C   UNL     1      47.539   4.658  15.764  0.00  0.00    +0.000 C 
BRANCH   8   9
ATOM      9  N   UNL     1      48.377   3.541  16.190  0.00  0.00    +0.000 NA
ATOM     10  H   UNL     1      47.786   2.733  16.385  0.00  0.00    +0.000 HD
ATOM     11  H   UNL     1      48.842   3.773  17.067  0.00  0.00    +0.000 HD
ENDBRANCH   8   9
ENDBRANCH   7   8
ENDBRANCH   1   7
BRANCH   5  12
ATOM     12  C   UNL     1      44.895   6.456  11.799  0.00  0.00    +0.000 C 
BRANCH  12  13
ATOM     13  N   UNL     1      44.642   5.053  11.496  0.00  0.00    +0.000 N 
ATOM     14  C   UNL     1      43.876   4.229  12.287  0.00  0.00    +0.000 A 
ATOM     15  C   UNL     1      43.681   3.047  11.610  0.00  0.00    +0.000 A 
ATOM     16  C   UNL     1      44.338   3.152  10.355  0.00  0.00    +0.000 A 
ATOM     17  C   UNL     1      44.462   2.298   9.251  0.00  0.00    +0.000 A 
ATOM     18  N   UNL     1      45.151   2.683   8.150  0.00  0.00    +0.000 NA
ATOM     19  C   UNL     1      45.726   3.904   8.142  0.00  0.00    +0.000 A 
ATOM     20  C   UNL     1      45.662   4.823   9.180  0.00  0.00    +0.000 A 
ATOM     21  C   UNL     1      44.942   4.414  10.306  0.00  0.00    +0.000 A 
ENDBRANCH  12  13
ENDBRANCH   5  12
TORSDOF 5
ENDMDL
