MODEL 1
REMARK VINA RESULT:    -8.002      0.000      0.000
REMARK INTER + INTRA:         -10.322
REMARK INTER:                  -9.874
REMARK INTRA:                  -0.449
REMARK UNBOUND:                -0.449
REMARK  Name = 
REMARK  5 active torsions:
REMARK  status: ('A' for Active; 'I' for Inactive)
REMARK    1  A    between atoms: C_1  and  C_2
REMARK    2  A    between atoms: C_6  and  C_7
REMARK    3  A    between atoms: C_7  and  N_8
REMARK    4  A    between atoms: N_8  and  C_9
REMARK    5  A    between atoms: C_12  and  C_13
REMARK                            x       y       z     vdW  Elec       q    Type
REMARK                         _______ _______ _______ _____ _____    ______ ____
ROOT
ATOM      1  C   UNL     1      44.560   3.945   9.113  0.00  0.00    +0.000 A 
ATOM      2  C   UNL     1      45.562   4.352   8.229  0.00  0.00    +0.000 A 
ATOM      3  C   UNL     1      46.394   3.412   7.622  0.00  0.00    +0.000 A 
ATOM      4  C   UNL     1      46.220   2.077   7.956  0.00  0.00    +0.000 A 
ATOM      5  N   UNL     1      45.289   1.631   8.843  0.00  0.00    +0.000 NA
ATOM      6  C   UNL     1      44.495   2.579   9.396  0.00  0.00    +0.000 A 
ENDROOT
BRANCH   4   7
ATOM      7  C   UNL     1      47.103   1.033   7.345  0.00  0.00    +0.000 C 
ATOM      8  N   UNL     1      46.794  -0.257   7.676  0.00  0.00    +0.000 N 
ATOM      9  O   UNL     1      48.043   1.306   6.609  0.00  0.00    +0.000 OA
ATOM     10  H   UNL     1      46.020  -0.439   8.305  0.00  0.00    +0.000 HD
ATOM     11  H   UNL     1      47.364  -1.013   7.326  0.00  0.00    +0.000 HD
ENDBRANCH   4   7
BRANCH   1  12
ATOM     12  N   UNL     1      43.770   4.931   9.725  0.00  0.00    +0.000 N 
ATOM     13  H   UNL     1      44.147   5.855   9.507  0.00  0.00    +0.000 HD
BRANCH  12  14
ATOM     14  C   UNL     1      43.530   4.800  11.164  0.00  0.00    +0.000 C 
BRANCH  14  20
ATOM     15  C   UNL     1      47.873   7.265  12.014  0.00  0.00    +0.000 C 
ATOM     16  C   UNL     1      46.850   6.247  12.401  0.00  0.00    +0.000 A 
ATOM     17  C   UNL     1      46.975   5.483  13.554  0.00  0.00    +0.000 A 
ATOM     18  N   UNL     1      46.082   4.548  13.943  0.00  0.00    +0.000 NA
ATOM     19  C   UNL     1      45.012   4.357  13.138  0.00  0.00    +0.000 A 
ATOM     20  C   UNL     1      44.789   5.047  11.950  0.00  0.00    +0.000 A 
ATOM     21  C   UNL     1      45.727   6.026  11.601  0.00  0.00    +0.000 A 
ENDBRANCH  14  20
ENDBRANCH  12  14
ENDBRANCH   1  12
TORSDOF 4
ENDMDL
MODEL 2
REMARK VINA RESULT:    -7.718      2.473      6.022
REMARK INTER + INTRA:          -9.971
REMARK INTER:                  -9.679
REMARK INTRA:                  -0.292
REMARK UNBOUND:                -0.449
REMARK  Name = 
REMARK  5 active torsions:
REMARK  status: ('A' for Active; 'I' for Inactive)
REMARK    1  A    between atoms: C_1  and  C_2
REMARK    2  A    between atoms: C_6  and  C_7
REMARK    3  A    between atoms: C_7  and  N_8
REMARK    4  A    between atoms: N_8  and  C_9
REMARK    5  A    between atoms: C_12  and  C_13
REMARK                            x       y       z     vdW  Elec       q    Type
REMARK                         _______ _______ _______ _____ _____    ______ ____
ROOT
ATOM      1  C   UNL     1      44.888   4.135  11.183  0.00  0.00    +0.000 A 
ATOM      2  C   UNL     1      45.363   5.441  11.319  0.00  0.00    +0.000 A 
ATOM      3  C   UNL     1      46.173   5.790  12.401  0.00  0.00    +0.000 A 
ATOM      4  C   UNL     1      46.450   4.814  13.347  0.00  0.00    +0.000 A 
ATOM      5  N   UNL     1      45.978   3.539  13.285  0.00  0.00    +0.000 NA
ATOM      6  C   UNL     1      45.208   3.244  12.210  0.00  0.00    +0.000 A 
ENDROOT
BRANCH   4   7
ATOM      7  C   UNL     1      47.298   5.146  14.535  0.00  0.00    +0.000 C 
ATOM      8  N   UNL     1      46.902   4.575  15.712  0.00  0.00    +0.000 N 
ATOM      9  O   UNL     1      48.274   5.885  14.470  0.00  0.00    +0.000 OA
ATOM     10  H   UNL     1      46.077   3.986  15.727  0.00  0.00    +0.000 HD
ATOM     11  H   UNL     1      47.408   4.777  16.562  0.00  0.00    +0.000 HD
ENDBRANCH   4   7
BRANCH   1  12
ATOM     12  N   UNL     1      44.049   3.841  10.097  0.00  0.00    +0.000 N 
ATOM     13  H   UNL     1      43.791   2.853  10.121  0.00  0.00    +0.000 HD
BRANCH  12  14
ATOM     14  C   UNL     1      44.523   4.217   8.763  0.00  0.00    +0.000 C 
BRANCH  14  20
ATOM     15  C   UNL     1      47.899   2.516   5.390  0.00  0.00    +0.000 C 
ATOM     16  C   UNL     1      47.025   2.308   6.584  0.00  0.00    +0.000 A 
ATOM     17  C   UNL     1      46.977   1.093   7.256  0.00  0.00    +0.000 A 
ATOM     18  N   UNL     1      46.201   0.855   8.335  0.00  0.00    +0.000 NA
ATOM     19  C   UNL     1      45.426   1.877   8.763  0.00  0.00    +0.000 A 
ATOM     20  C   UNL     1      45.374   3.131   8.162  0.00  0.00    +0.000 A 
ATOM     21  C   UNL     1      46.216   3.341   7.064  0.00  0.00    +0.000 A 
ENDBRANCH  14  20
ENDBRANCH  12  14
ENDBRANCH   1  12
TORSDOF 4
ENDMDL
MODEL 3
REMARK VINA RESULT:    -6.678      3.194      6.683
REMARK INTER + INTRA:          -8.688
REMARK INTER:                  -8.376
REMARK INTRA:                  -0.313
REMARK UNBOUND:                -0.449
REMARK  Name = 
REMARK  5 active torsions:
REMARK  status: ('A' for Active; 'I' for Inactive)
REMARK    1  A    between atoms: C_1  and  C_2
REMARK    2  A    between atoms: C_6  and  C_7
REMARK    3  A    between atoms: C_7  and  N_8
REMARK    4  A    between atoms: N_8  and  C_9
REMARK    5  A    between atoms: C_12  and  C_13
REMARK                            x       y       z     vdW  Elec       q    Type
REMARK                         _______ _______ _______ _____ _____    ______ ____
ROOT
ATOM      1  C   UNL     1      44.880   5.298  10.776  0.00  0.00    +0.000 A 
ATOM      2  C   UNL     1      43.813   6.130  11.123  0.00  0.00    +0.000 A 
ATOM      3  C   UNL     1      44.046   7.359  11.740  0.00  0.00    +0.000 A 
ATOM      4  C   UNL     1      45.358   7.701  12.033  0.00  0.00    +0.000 A 
ATOM      5  N   UNL     1      46.430   6.909  11.756  0.00  0.00    +0.000 NA
ATOM      6  C   UNL     1      46.155   5.732  11.145  0.00  0.00    +0.000 A 
ENDROOT
BRANCH   4   7
ATOM      7  C   UNL     1      45.656   9.001  12.713  0.00  0.00    +0.000 C 
ATOM      8  N   UNL     1      46.448   8.910  13.824  0.00  0.00    +0.000 N 
ATOM      9  O   UNL     1      45.218  10.074  12.316  0.00  0.00    +0.000 OA
ATOM     10  H   UNL     1      46.772   8.000  14.130  0.00  0.00    +0.000 HD
ATOM     11  H   UNL     1      46.666   9.742  14.352  0.00  0.00    +0.000 HD
ENDBRANCH   4   7
BRANCH   1  12
ATOM     12  N   UNL     1      44.593   4.056  10.188  0.00  0.00    +0.000 N 
ATOM     13  H   UNL     1      45.291   3.370  10.479  0.00  0.00    +0.000 HD
BRANCH  12  14
ATOM     14  C   UNL     1      44.418   4.027   8.734  0.00  0.00    +0.000 C 
BRANCH  14  20
ATOM     15  C   UNL     1      47.765   2.588   5.214  0.00  0.00    +0.000 C 
ATOM     16  C   UNL     1      46.965   2.316   6.447  0.00  0.00    +0.000 A 
ATOM     17  C   UNL     1      47.044   1.104   7.120  0.00  0.00    +0.000 A 
ATOM     18  N   UNL     1      46.337   0.809   8.232  0.00  0.00    +0.000 NA
ATOM     19  C   UNL     1      45.503   1.767   8.695  0.00  0.00    +0.000 A 
ATOM     20  C   UNL     1      45.325   3.010   8.097  0.00  0.00    +0.000 A 
ATOM     21  C   UNL     1      46.098   3.283   6.961  0.00  0.00    +0.000 A 
ENDBRANCH  14  20
ENDBRANCH  12  14
ENDBRANCH   1  12
TORSDOF 4
ENDMDL
MODEL 4
REMARK VINA RESULT:    -6.460      3.163      6.608
REMARK INTER + INTRA:          -8.419
REMARK INTER:                  -8.090
REMARK INTRA:                  -0.329
REMARK UNBOUND:                -0.449
REMARK  Name = 
REMARK  5 active torsions:
REMARK  status: ('A' for Active; 'I' for Inactive)
REMARK    1  A    between atoms: C_1  and  C_2
REMARK    2  A    between atoms: C_6  and  C_7
REMARK    3  A    between atoms: C_7  and  N_8
REMARK    4  A    between atoms: N_8  and  C_9
REMARK    5  A    between atoms: C_12  and  C_13
REMARK                            x       y       z     vdW  Elec       q    Type
REMARK                         _______ _______ _______ _____ _____    ______ ____
ROOT
ATOM      1  C   UNL     1      46.977   5.927  12.724  0.00  0.00    +0.000 A 
ATOM      2  C   UNL     1      46.333   4.847  13.333  0.00  0.00    +0.000 A 
ATOM      3  C   UNL     1      46.683   4.453  14.624  0.00  0.00    +0.000 A 
ATOM      4  C   UNL     1      47.710   5.136  15.258  0.00  0.00    +0.000 A 
ATOM      5  N   UNL     1      48.398   6.166  14.694  0.00  0.00    +0.000 NA
ATOM      6  C   UNL     1      48.014   6.522  13.445  0.00  0.00    +0.000 A 
ENDROOT
BRANCH   4   7
ATOM      7  C   UNL     1      48.133   4.736  16.637  0.00  0.00    +0.000 C 
ATOM      8  N   UNL     1      47.202   4.943  17.616  0.00  0.00    +0.000 N 
ATOM      9  O   UNL     1      49.238   4.266  16.883  0.00  0.00    +0.000 OA
ATOM     10  H   UNL     1      46.307   5.354  17.374  0.00  0.00    +0.000 HD
ATOM     11  H   UNL     1      47.428   4.726  18.576  0.00  0.00    +0.000 HD
ENDBRANCH   4   7
BRANCH   1  12
ATOM     12  N   UNL     1      46.614   6.265  11.410  0.00  0.00    +0.000 N 
ATOM     13  H   UNL     1      46.930   7.213  11.201  0.00  0.00    +0.000 HD
BRANCH  12  14
ATOM     14  C   UNL     1      45.207   6.097  11.040  0.00  0.00    +0.000 C 
BRANCH  14  20
ATOM     15  C   UNL     1      46.265   3.429   6.865  0.00  0.00    +0.000 C 
ATOM     16  C   UNL     1      45.546   3.593   8.166  0.00  0.00    +0.000 A 
ATOM     17  C   UNL     1      44.682   2.622   8.653  0.00  0.00    +0.000 A 
ATOM     18  N   UNL     1      44.006   2.726   9.818  0.00  0.00    +0.000 NA
ATOM     19  C   UNL     1      44.195   3.860  10.531  0.00  0.00    +0.000 A 
ATOM     20  C   UNL     1      45.020   4.909  10.137  0.00  0.00    +0.000 A 
ATOM     21  C   UNL     1      45.721   4.745   8.936  0.00  0.00    +0.000 A 
ENDBRANCH  14  20
ENDBRANCH  12  14
ENDBRANCH   1  12
TORSDOF 4
ENDMDL
MODEL 5
REMARK VINA RESULT:    -6.422      3.014      5.886
REMARK INTER + INTRA:          -8.373
REMARK INTER:                  -7.831
REMARK INTRA:                  -0.542
REMARK UNBOUND:                -0.449
REMARK  Name = 
REMARK  5 active torsions:
REMARK  status: ('A' for Active; 'I' for Inactive)
REMARK    1  A    between atoms: C_1  and  C_2
REMARK    2  A    between atoms: C_6  and  C_7
REMARK    3  A    between atoms: C_7  and  N_8
REMARK    4  A    between atoms: N_8  and  C_9
REMARK    5  A    between atoms: C_12  and  C_13
REMARK                            x       y       z     vdW  Elec       q    Type
REMARK                         _______ _______ _______ _____ _____    ______ ____
ROOT
ATOM      1  C   UNL     1      45.137   6.160  12.931  0.00  0.00    +0.000 A 
ATOM      2  C   UNL     1      45.634   7.440  12.675  0.00  0.00    +0.000 A 
ATOM      3  C   UNL     1      46.991   7.718  12.839  0.00  0.00    +0.000 A 
ATOM      4  C   UNL     1      47.812   6.700  13.302  0.00  0.00    +0.000 A 
ATOM      5  N   UNL     1      47.372   5.449  13.608  0.00  0.00    +0.000 NA
ATOM      6  C   UNL     1      46.050   5.223  13.419  0.00  0.00    +0.000 A 
ENDROOT
BRANCH   4   7
ATOM      7  C   UNL     1      49.272   6.956  13.513  0.00  0.00    +0.000 C 
ATOM      8  N   UNL     1      49.985   7.231  12.380  0.00  0.00    +0.000 N 
ATOM      9  O   UNL     1      49.801   6.914  14.617  0.00  0.00    +0.000 OA
ATOM     10  H   UNL     1      49.512   7.236  11.483  0.00  0.00    +0.000 HD
ATOM     11  H   UNL     1      50.981   7.385  12.440  0.00  0.00    +0.000 HD
ENDBRANCH   4   7
BRANCH   1  12
ATOM     12  N   UNL     1      43.758   5.938  12.784  0.00  0.00    +0.000 N 
ATOM     13  H   UNL     1      43.494   5.086  13.281  0.00  0.00    +0.000 HD
BRANCH  12  14
ATOM     14  C   UNL     1      43.223   5.926  11.421  0.00  0.00    +0.000 C 
BRANCH  14  20
ATOM     15  C   UNL     1      45.709   3.623   7.655  0.00  0.00    +0.000 C 
ATOM     16  C   UNL     1      44.889   3.573   8.904  0.00  0.00    +0.000 A 
ATOM     17  C   UNL     1      44.517   2.370   9.489  0.00  0.00    +0.000 A 
ATOM     18  N   UNL     1      43.774   2.274  10.613  0.00  0.00    +0.000 NA
ATOM     19  C   UNL     1      43.373   3.434  11.178  0.00  0.00    +0.000 A 
ATOM     20  C   UNL     1      43.666   4.698  10.674  0.00  0.00    +0.000 A 
ATOM     21  C   UNL     1      44.462   4.750   9.523  0.00  0.00    +0.000 A 
ENDBRANCH  14  20
ENDBRANCH  12  14
ENDBRANCH   1  12
TORSDOF 4
ENDMDL
MODEL 6
REMARK VINA RESULT:    -5.793      3.948      6.057
REMARK INTER + INTRA:          -7.596
REMARK INTER:                  -7.228
REMARK INTRA:                  -0.369
REMARK UNBOUND:                -0.449
REMARK  Name = 
REMARK  5 active torsions:
REMARK  status: ('A' for Active; 'I' for Inactive)
REMARK    1  A    between atoms: C_1  and  C_2
REMARK    2  A    between atoms: C_6  and  C_7
REMARK    3  A    between atoms: C_7  and  N_8
REMARK    4  A    between atoms: N_8  and  C_9
REMARK    5  A    between atoms: C_12  and  C_13
REMARK                            x       y       z     vdW  Elec       q    Type
REMARK                         _______ _______ _______ _____ _____    ______ ____
ROOT
ATOM      1  C   UNL     1      46.487   4.889  14.000  0.00  0.00    +0.000 A 
ATOM      2  C   UNL     1      46.429   3.554  13.591  0.00  0.00    +0.000 A 
ATOM      3  C   UNL     1      45.709   3.195  12.451  0.00  0.00    +0.000 A 
ATOM      4  C   UNL     1      45.027   4.193  11.771  0.00  0.00    +0.000 A 
ATOM      5  N   UNL     1      45.015   5.500  12.151  0.00  0.00    +0.000 NA
ATOM      6  C   UNL     1      45.738   5.803  13.256  0.00  0.00    +0.000 A 
ENDROOT
BRANCH   4   7
ATOM      7  C   UNL     1      44.225   3.853  10.553  0.00  0.00    +0.000 C 
ATOM      8  N   UNL     1      44.197   4.818   9.585  0.00  0.00    +0.000 N 
ATOM      9  O   UNL     1      43.625   2.792  10.428  0.00  0.00    +0.000 OA
ATOM     10  H   UNL     1      44.691   5.690   9.737  0.00  0.00    +0.000 HD
ATOM     11  H   UNL     1      43.652   4.672   8.748  0.00  0.00    +0.000 HD
ENDBRANCH   4   7
BRANCH   1  12
ATOM     12  N   UNL     1      47.195   5.196  15.173  0.00  0.00    +0.000 N 
ATOM     13  H   UNL     1      48.158   5.438  14.937  0.00  0.00    +0.000 HD
BRANCH  12  14
ATOM     14  C   UNL     1      47.162   4.208  16.254  0.00  0.00    +0.000 C 
BRANCH  14  20
ATOM     15  C   UNL     1      51.220   1.424  17.460  0.00  0.00    +0.000 C 
ATOM     16  C   UNL     1      50.495   2.731  17.421  0.00  0.00    +0.000 A 
ATOM     17  C   UNL     1      51.057   3.897  17.922  0.00  0.00    +0.000 A 
ATOM     18  N   UNL     1      50.440   5.099  17.915  0.00  0.00    +0.000 NA
ATOM     19  C   UNL     1      49.195   5.139  17.389  0.00  0.00    +0.000 A 
ATOM     20  C   UNL     1      48.521   4.036  16.875  0.00  0.00    +0.000 A 
ATOM     21  C   UNL     1      49.210   2.817  16.878  0.00  0.00    +0.000 A 
ENDBRANCH  14  20
ENDBRANCH  12  14
ENDBRANCH   1  12
TORSDOF 4
ENDMDL
MODEL 7
REMARK VINA RESULT:    -5.615      2.371      4.053
REMARK INTER + INTRA:          -7.377
REMARK INTER:                  -6.912
REMARK INTRA:                  -0.465
REMARK UNBOUND:                -0.449
REMARK  Name = 
REMARK  5 active torsions:
REMARK  status: ('A' for Active; 'I' for Inactive)
REMARK    1  A    between atoms: C_1  and  C_2
REMARK    2  A    between atoms: C_6  and  C_7
REMARK    3  A    between atoms: C_7  and  N_8
REMARK    4  A    between atoms: N_8  and  C_9
REMARK    5  A    between atoms: C_12  and  C_13
REMARK                            x       y       z     vdW  Elec       q    Type
REMARK                         _______ _______ _______ _____ _____    ______ ____
ROOT
ATOM      1  C   UNL     1      45.612   5.218  12.474  0.00  0.00    +0.000 A 
ATOM      2  C   UNL     1      45.555   5.802  11.207  0.00  0.00    +0.000 A 
ATOM      3  C   UNL     1      45.207   5.039  10.092  0.00  0.00    +0.000 A 
ATOM      4  C   UNL     1      44.966   3.686  10.279  0.00  0.00    +0.000 A 
ATOM      5  N   UNL     1      45.051   3.059  11.484  0.00  0.00    +0.000 NA
ATOM      6  C   UNL     1      45.378   3.843  12.539  0.00  0.00    +0.000 A 
ENDROOT
BRANCH   4   7
ATOM      7  C   UNL     1      44.609   2.823   9.109  0.00  0.00    +0.000 C 
ATOM      8  N   UNL     1      44.281   3.497   7.966  0.00  0.00    +0.000 N 
ATOM      9  O   UNL     1      44.598   1.599   9.166  0.00  0.00    +0.000 OA
ATOM     10  H   UNL     1      44.283   4.510   7.967  0.00  0.00    +0.000 HD
ATOM     11  H   UNL     1      44.000   2.982   7.144  0.00  0.00    +0.000 HD
ENDBRANCH   4   7
BRANCH   1  12
ATOM     12  N   UNL     1      46.000   6.019  13.560  0.00  0.00    +0.000 N 
ATOM     13  H   UNL     1      45.626   6.962  13.441  0.00  0.00    +0.000 HD
BRANCH  12  14
ATOM     14  C   UNL     1      47.429   6.069  13.880  0.00  0.00    +0.000 C 
BRANCH  14  20
ATOM     15  C   UNL     1      51.152   7.969  11.017  0.00  0.00    +0.000 C 
ATOM     16  C   UNL     1      49.858   8.121  11.748  0.00  0.00    +0.000 A 
ATOM     17  C   UNL     1      49.165   9.324  11.771  0.00  0.00    +0.000 A 
ATOM     18  N   UNL     1      47.996   9.512  12.421  0.00  0.00    +0.000 NA
ATOM     19  C   UNL     1      47.496   8.450  13.091  0.00  0.00    +0.000 A 
ATOM     20  C   UNL     1      48.108   7.202  13.158  0.00  0.00    +0.000 A 
ATOM     21  C   UNL     1      49.303   7.045  12.446  0.00  0.00    +0.000 A 
ENDBRANCH  14  20
ENDBRANCH  12  14
ENDBRANCH   1  12
TORSDOF 4
ENDMDL
MODEL 8
REMARK VINA RESULT:    -5.599      2.948      4.545
REMARK INTER + INTRA:          -7.357
REMARK INTER:                  -7.011
REMARK INTRA:                  -0.346
REMARK UNBOUND:                -0.449
REMARK  Name = 
REMARK  5 active torsions:
REMARK  status: ('A' for Active; 'I' for Inactive)
REMARK    1  A    between atoms: C_1  and  C_2
REMARK    2  A    between atoms: C_6  and  C_7
REMARK    3  A    between atoms: C_7  and  N_8
REMARK    4  A    between atoms: N_8  and  C_9
REMARK    5  A    between atoms: C_12  and  C_13
REMARK                            x       y       z     vdW  Elec       q    Type
REMARK                         _______ _______ _______ _____ _____    ______ ____
ROOT
ATOM      1  C   UNL     1      45.686   5.088  12.732  0.00  0.00    +0.000 A 
ATOM      2  C   UNL     1      45.800   5.787  11.528  0.00  0.00    +0.000 A 
ATOM      3  C   UNL     1      45.414   5.193  10.327  0.00  0.00    +0.000 A 
ATOM      4  C   UNL     1      44.960   3.884  10.365  0.00  0.00    +0.000 A 
ATOM      5  N   UNL     1      44.870   3.143  11.503  0.00  0.00    +0.000 NA
ATOM      6  C   UNL     1      45.243   3.767  12.646  0.00  0.00    +0.000 A 
ENDROOT
BRANCH   4   7
ATOM      7  C   UNL     1      44.553   3.197   9.097  0.00  0.00    +0.000 C 
ATOM      8  N   UNL     1      44.204   4.029   8.070  0.00  0.00    +0.000 N 
ATOM      9  O   UNL     1      44.521   1.978   8.983  0.00  0.00    +0.000 OA
ATOM     10  H   UNL     1      44.225   5.032   8.213  0.00  0.00    +0.000 HD
ATOM     11  H   UNL     1      43.890   3.638   7.194  0.00  0.00    +0.000 HD
ENDBRANCH   4   7
BRANCH   1  12
ATOM     12  N   UNL     1      46.119   5.716  13.911  0.00  0.00    +0.000 N 
ATOM     13  H   UNL     1      45.801   6.686  13.918  0.00  0.00    +0.000 HD
BRANCH  12  14
ATOM     14  C   UNL     1      47.548   5.640  14.225  0.00  0.00    +0.000 C 
BRANCH  14  20
ATOM     15  C   UNL     1      49.635   5.502  18.839  0.00  0.00    +0.000 C 
ATOM     16  C   UNL     1      48.730   4.931  17.796  0.00  0.00    +0.000 A 
ATOM     17  C   UNL     1      47.995   3.774  18.015  0.00  0.00    +0.000 A 
ATOM     18  N   UNL     1      47.170   3.217  17.103  0.00  0.00    +0.000 NA
ATOM     19  C   UNL     1      47.077   3.840  15.907  0.00  0.00    +0.000 A 
ATOM     20  C   UNL     1      47.777   4.993  15.564  0.00  0.00    +0.000 A 
ATOM     21  C   UNL     1      48.600   5.550  16.550  0.00  0.00    +0.000 A 
ENDBRANCH  14  20
ENDBRANCH  12  14
ENDBRANCH   1  12
TORSDOF 4
ENDMDL
MODEL 9
REMARK VINA RESULT:    -5.280      3.461      5.180
REMARK INTER + INTRA:          -6.963
REMARK INTER:                  -6.619
REMARK INTRA:                  -0.344
REMARK UNBOUND:                -0.449
REMARK  Name = 
REMARK  5 active torsions:
REMARK  status: ('A' for Active; 'I' for Inactive)
REMARK    1  A    between atoms: C_1  and  C_2
REMARK    2  A    between atoms: C_6  and  C_7
REMARK    3  A    between atoms: C_7  and  N_8
REMARK    4  A    between atoms: N_8  and  C_9
REMARK    5  A    between atoms: C_12  and  C_13
REMARK                            x       y       z     vdW  Elec       q    Type
REMARK                         _______ _______ _______ _____ _____    ______ ____
ROOT
ATOM      1  C   UNL     1      46.190   5.944  13.002  0.00  0.00    +0.000 A 
ATOM      2  C   UNL     1      45.969   6.028  11.626  0.00  0.00    +0.000 A 
ATOM      3  C   UNL     1      45.245   5.036  10.964  0.00  0.00    +0.000 A 
ATOM      4  C   UNL     1      44.796   3.954  11.706  0.00  0.00    +0.000 A 
ATOM      5  N   UNL     1      45.021   3.802  13.040  0.00  0.00    +0.000 NA
ATOM      6  C   UNL     1      45.716   4.796  13.641  0.00  0.00    +0.000 A 
ENDROOT
BRANCH   4   7
ATOM      7  C   UNL     1      44.031   2.855  11.036  0.00  0.00    +0.000 C 
ATOM      8  N   UNL     1      44.538   2.440   9.836  0.00  0.00    +0.000 N 
ATOM      9  O   UNL     1      43.017   2.362  11.517  0.00  0.00    +0.000 OA
ATOM     10  H   UNL     1      45.368   2.889   9.464  0.00  0.00    +0.000 HD
ATOM     11  H   UNL     1      44.059   1.724   9.311  0.00  0.00    +0.000 HD
ENDBRANCH   4   7
BRANCH   1  12
ATOM     12  N   UNL     1      46.954   6.949  13.617  0.00  0.00    +0.000 N 
ATOM     13  H   UNL     1      46.881   7.812  13.076  0.00  0.00    +0.000 HD
BRANCH  12  14
ATOM     14  C   UNL     1      48.355   6.642  13.910  0.00  0.00    +0.000 C 
BRANCH  14  20
ATOM     15  C   UNL     1      49.669   8.932  18.234  0.00  0.00    +0.000 C 
ATOM     16  C   UNL     1      49.195   7.730  17.482  0.00  0.00    +0.000 A 
ATOM     17  C   UNL     1      48.913   6.530  18.120  0.00  0.00    +0.000 A 
ATOM     18  N   UNL     1      48.489   5.416  17.484  0.00  0.00    +0.000 NA
ATOM     19  C   UNL     1      48.344   5.500  16.143  0.00  0.00    +0.000 A 
ATOM     20  C   UNL     1      48.613   6.640  15.392  0.00  0.00    +0.000 A 
ATOM     21  C   UNL     1      49.025   7.778  16.096  0.00  0.00    +0.000 A 
ENDBRANCH  14  20
ENDBRANCH  12  14
ENDBRANCH   1  12
TORSDOF 4
ENDMDL
