MODEL 1
REMARK VINA RESULT:    -7.538      0.000      0.000
REMARK INTER + INTRA:         -11.425
REMARK INTER:                 -10.402
REMARK INTRA:                  -1.024
REMARK UNBOUND:                -1.024
REMARK  Name = 
REMARK  7 active torsions:
REMARK  status: ('A' for Active; 'I' for Inactive)
REMARK    1  A    between atoms: C_2  and  C_3
REMARK    2  A    between atoms: C_8  and  N_9
REMARK    3  A    between atoms: N_9  and  C_10
REMARK    4  A    between atoms: C_10  and  C_11
REMARK    5  A    between atoms: C_16  and  C_17
REMARK    6  A    between atoms: C_21  and  C_22
REMARK    7  A    between atoms: C_22  and  O_23
REMARK                            x       y       z     vdW  Elec       q    Type
REMARK                         _______ _______ _______ _____ _____    ______ ____
ROOT
ATOM      1  C   UNL     1      44.833   5.123  11.657  0.00  0.00    +0.000 A 
ATOM      2  C   UNL     1      45.013   4.335  12.799  0.00  0.00    +0.000 A 
ATOM      3  C   UNL     1      46.061   4.606  13.673  0.00  0.00    +0.000 A 
ATOM      4  C   UNL     1      46.917   5.678  13.424  0.00  0.00    +0.000 A 
ATOM      5  F   UNL     1      47.883   5.901  14.329  0.00  0.00    +0.000 F 
ATOM      6  C   UNL     1      46.779   6.505  12.292  0.00  0.00    +0.000 A 
ATOM      7  C   UNL     1      45.714   6.197  11.419  0.00  0.00    +0.000 A 
ENDROOT
BRANCH   6   8
ATOM      8  C   UNL     1      47.695   7.648  12.028  0.00  0.00    +0.000 A 
ATOM      9  C   UNL     1      47.254   8.981  12.110  0.00  0.00    +0.000 A 
ATOM     10  C   UNL     1      48.126  10.056  11.912  0.00  0.00    +0.000 A 
ATOM     11  C   UNL     1      49.477   9.825  11.661  0.00  0.00    +0.000 A 
ATOM     12  C   UNL     1      49.960   8.518  11.566  0.00  0.00    +0.000 A 
ATOM     13  C   UNL     1      49.057   7.452  11.723  0.00  0.00    +0.000 A 
BRANCH  12  14
ATOM     14  C   UNL     1      51.434   8.219  11.446  0.00  0.00    +0.000 C 
BRANCH  14  15
ATOM     15  O   UNL     1      51.688   7.052  10.674  0.00  0.00    +0.000 OA
ATOM     16  H   UNL     1      50.822   6.703  10.410  0.00  0.00    +0.000 HD
ENDBRANCH  14  15
ENDBRANCH  12  14
ENDBRANCH   6   8
BRANCH   1  17
ATOM     17  C   UNL     1      43.738   4.790  10.671  0.00  0.00    +0.000 C 
BRANCH  17  18
ATOM     18  N   UNL     1      43.843   3.418  10.190  0.00  0.00    +0.000 N 
ATOM     19  H   UNL     1      42.946   2.984   9.979  0.00  0.00    +0.000 HD
BRANCH  18  25
ATOM     20  C   UNL     1      46.175   1.466   7.997  0.00  0.00    +0.000 A 
ATOM     21  C   UNL     1      46.779   2.495   7.279  0.00  0.00    +0.000 A 
ATOM     22  C   UNL     1      46.402   3.804   7.546  0.00  0.00    +0.000 A 
ATOM     23  F   UNL     1      46.959   4.798   6.840  0.00  0.00    +0.000 F 
ATOM     24  C   UNL     1      45.454   4.103   8.524  0.00  0.00    +0.000 A 
ATOM     25  C   UNL     1      44.849   3.085   9.277  0.00  0.00    +0.000 A 
ATOM     26  C   UNL     1      45.203   1.764   8.964  0.00  0.00    +0.000 A 
BRANCH  20  28
ATOM     27  N   UNL     1      46.830  -1.002   7.558  0.00  0.00    +0.000 NA
ATOM     28  C   UNL     1      46.547   0.101   7.763  0.00  0.00    +0.000 C 
ENDBRANCH  20  28
ENDBRANCH  18  25
ENDBRANCH  17  18
ENDBRANCH   1  17
TORSDOF 7
ENDMDL
MODEL 2
REMARK VINA RESULT:    -7.480      2.282      2.920
REMARK INTER + INTRA:         -11.347
REMARK INTER:                 -10.388
REMARK INTRA:                  -0.959
REMARK UNBOUND:                -1.024
REMARK  Name = 
REMARK  7 active torsions:
REMARK  status: ('A' for Active; 'I' for Inactive)
REMARK    1  A    between atoms: C_2  and  C_3
REMARK    2  A    between atoms: C_8  and  N_9
REMARK    3  A    between atoms: N_9  and  C_10
REMARK    4  A    between atoms: C_10  and  C_11
REMARK    5  A    between atoms: C_16  and  C_17
REMARK    6  A    between atoms: C_21  and  C_22
REMARK    7  A    between atoms: C_22  and  O_23
REMARK                            x       y       z     vdW  Elec       q    Type
REMARK                         _______ _______ _______ _____ _____    ______ ____
ROOT
ATOM      1  C   UNL     1      44.895   3.939  12.068  0.00  0.00    +0.000 A 
ATOM      2  C   UNL     1      45.798   3.280  12.907  0.00  0.00    +0.000 A 
ATOM      3  C   UNL     1      46.807   3.996  13.544  0.00  0.00    +0.000 A 
ATOM      4  C   UNL     1      46.903   5.375  13.364  0.00  0.00    +0.000 A 
ATOM      5  F   UNL     1      47.879   6.004  14.038  0.00  0.00    +0.000 F 
ATOM      6  C   UNL     1      46.019   6.089  12.532  0.00  0.00    +0.000 A 
ATOM      7  C   UNL     1      45.014   5.333  11.892  0.00  0.00    +0.000 A 
ENDROOT
BRANCH   6   8
ATOM      8  C   UNL     1      46.124   7.562  12.341  0.00  0.00    +0.000 A 
ATOM      9  C   UNL     1      47.360   8.229  12.415  0.00  0.00    +0.000 A 
ATOM     10  C   UNL     1      47.467   9.604  12.184  0.00  0.00    +0.000 A 
ATOM     11  C   UNL     1      46.340  10.346  11.837  0.00  0.00    +0.000 A 
ATOM     12  C   UNL     1      45.090   9.728  11.755  0.00  0.00    +0.000 A 
ATOM     13  C   UNL     1      44.998   8.352  12.037  0.00  0.00    +0.000 A 
BRANCH  12  14
ATOM     14  C   UNL     1      43.872  10.453  11.240  0.00  0.00    +0.000 C 
BRANCH  14  15
ATOM     15  O   UNL     1      42.964  10.794  12.279  0.00  0.00    +0.000 OA
ATOM     16  H   UNL     1      43.271  11.640  12.645  0.00  0.00    +0.000 HD
ENDBRANCH  14  15
ENDBRANCH  12  14
ENDBRANCH   6   8
BRANCH   1  17
ATOM     17  C   UNL     1      43.842   3.155  11.321  0.00  0.00    +0.000 C 
BRANCH  17  18
ATOM     18  N   UNL     1      43.805   3.508   9.908  0.00  0.00    +0.000 N 
ATOM     19  H   UNL     1      43.468   4.452   9.726  0.00  0.00    +0.000 HD
BRANCH  18  25
ATOM     20  C   UNL     1      46.225   1.443   7.922  0.00  0.00    +0.000 A 
ATOM     21  C   UNL     1      46.917   2.440   7.239  0.00  0.00    +0.000 A 
ATOM     22  C   UNL     1      46.568   3.765   7.460  0.00  0.00    +0.000 A 
ATOM     23  F   UNL     1      47.211   4.729   6.786  0.00  0.00    +0.000 F 
ATOM     24  C   UNL     1      45.560   4.112   8.360  0.00  0.00    +0.000 A 
ATOM     25  C   UNL     1      44.864   3.127   9.077  0.00  0.00    +0.000 A 
ATOM     26  C   UNL     1      45.194   1.790   8.810  0.00  0.00    +0.000 A 
BRANCH  20  28
ATOM     27  N   UNL     1      46.819  -1.054   7.571  0.00  0.00    +0.000 NA
ATOM     28  C   UNL     1      46.565   0.063   7.735  0.00  0.00    +0.000 C 
ENDBRANCH  20  28
ENDBRANCH  18  25
ENDBRANCH  17  18
ENDBRANCH   1  17
TORSDOF 7
ENDMDL
MODEL 3
REMARK VINA RESULT:    -7.350      3.355      6.960
REMARK INTER + INTRA:         -11.166
REMARK INTER:                 -10.368
REMARK INTRA:                  -0.798
REMARK UNBOUND:                -1.024
REMARK  Name = 
REMARK  7 active torsions:
REMARK  status: ('A' for Active; 'I' for Inactive)
REMARK    1  A    between atoms: C_2  and  C_3
REMARK    2  A    between atoms: C_8  and  N_9
REMARK    3  A    between atoms: N_9  and  C_10
REMARK    4  A    between atoms: C_10  and  C_11
REMARK    5  A    between atoms: C_16  and  C_17
REMARK    6  A    between atoms: C_21  and  C_22
REMARK    7  A    between atoms: C_22  and  O_23
REMARK                            x       y       z     vdW  Elec       q    Type
REMARK                         _______ _______ _______ _____ _____    ______ ____
ROOT
ATOM      1  C   UNL     1      44.435   4.993  12.141  0.00  0.00    +0.000 A 
ATOM      2  C   UNL     1      43.542   4.038  12.638  0.00  0.00    +0.000 A 
ATOM      3  C   UNL     1      43.295   2.874  11.917  0.00  0.00    +0.000 A 
ATOM      4  C   UNL     1      43.956   2.649  10.709  0.00  0.00    +0.000 A 
ATOM      5  F   UNL     1      43.695   1.489  10.087  0.00  0.00    +0.000 F 
ATOM      6  C   UNL     1      44.866   3.576  10.165  0.00  0.00    +0.000 A 
ATOM      7  C   UNL     1      45.086   4.751  10.915  0.00  0.00    +0.000 A 
ENDROOT
BRANCH   6   8
ATOM      8  C   UNL     1      45.569   3.333   8.876  0.00  0.00    +0.000 A 
ATOM      9  C   UNL     1      45.983   4.394   8.049  0.00  0.00    +0.000 A 
ATOM     10  C   UNL     1      46.688   4.168   6.864  0.00  0.00    +0.000 A 
ATOM     11  C   UNL     1      47.032   2.872   6.489  0.00  0.00    +0.000 A 
ATOM     12  C   UNL     1      46.640   1.786   7.275  0.00  0.00    +0.000 A 
ATOM     13  C   UNL     1      45.891   2.032   8.440  0.00  0.00    +0.000 A 
BRANCH  12  14
ATOM     14  C   UNL     1      47.115   0.383   6.992  0.00  0.00    +0.000 C 
BRANCH  14  15
ATOM     15  O   UNL     1      46.730  -0.535   8.007  0.00  0.00    +0.000 OA
ATOM     16  H   UNL     1      46.986  -1.417   7.692  0.00  0.00    +0.000 HD
ENDBRANCH  14  15
ENDBRANCH  12  14
ENDBRANCH   6   8
BRANCH   1  17
ATOM     17  C   UNL     1      44.653   6.288  12.888  0.00  0.00    +0.000 C 
BRANCH  17  18
ATOM     18  N   UNL     1      46.013   6.393  13.401  0.00  0.00    +0.000 N 
ATOM     19  H   UNL     1      46.479   5.496  13.521  0.00  0.00    +0.000 HD
BRANCH  18  25
ATOM     20  C   UNL     1      48.913   8.166  11.819  0.00  0.00    +0.000 A 
ATOM     21  C   UNL     1      48.430   9.472  11.781  0.00  0.00    +0.000 A 
ATOM     22  C   UNL     1      47.162   9.729  12.286  0.00  0.00    +0.000 A 
ATOM     23  F   UNL     1      46.679  10.977  12.228  0.00  0.00    +0.000 F 
ATOM     24  C   UNL     1      46.382   8.715  12.843  0.00  0.00    +0.000 A 
ATOM     25  C   UNL     1      46.856   7.396  12.913  0.00  0.00    +0.000 A 
ATOM     26  C   UNL     1      48.119   7.142  12.356  0.00  0.00    +0.000 A 
BRANCH  20  28
ATOM     27  N   UNL     1      51.278   7.633  10.904  0.00  0.00    +0.000 NA
ATOM     28  C   UNL     1      50.223   7.862  11.323  0.00  0.00    +0.000 C 
ENDBRANCH  20  28
ENDBRANCH  18  25
ENDBRANCH  17  18
ENDBRANCH   1  17
TORSDOF 7
ENDMDL
MODEL 4
REMARK VINA RESULT:    -7.338      1.689      2.163
REMARK INTER + INTRA:         -11.151
REMARK INTER:                 -10.068
REMARK INTRA:                  -1.083
REMARK UNBOUND:                -1.024
REMARK  Name = 
REMARK  7 active torsions:
REMARK  status: ('A' for Active; 'I' for Inactive)
REMARK    1  A    between atoms: C_2  and  C_3
REMARK    2  A    between atoms: C_8  and  N_9
REMARK    3  A    between atoms: N_9  and  C_10
REMARK    4  A    between atoms: C_10  and  C_11
REMARK    5  A    between atoms: C_16  and  C_17
REMARK    6  A    between atoms: C_21  and  C_22
REMARK    7  A    between atoms: C_22  and  O_23
REMARK                            x       y       z     vdW  Elec       q    Type
REMARK                         _______ _______ _______ _____ _____    ______ ____
ROOT
ATOM      1  C   UNL     1      45.966   5.969  11.655  0.00  0.00    +0.000 A 
ATOM      2  C   UNL     1      46.044   5.330  12.896  0.00  0.00    +0.000 A 
ATOM      3  C   UNL     1      47.134   5.560  13.730  0.00  0.00    +0.000 A 
ATOM      4  C   UNL     1      48.136   6.447  13.339  0.00  0.00    +0.000 A 
ATOM      5  F   UNL     1      49.138   6.647  14.209  0.00  0.00    +0.000 F 
ATOM      6  C   UNL     1      48.105   7.120  12.102  0.00  0.00    +0.000 A 
ATOM      7  C   UNL     1      46.993   6.856  11.274  0.00  0.00    +0.000 A 
ENDROOT
BRANCH   6   8
ATOM      8  C   UNL     1      49.177   8.065  11.686  0.00  0.00    +0.000 A 
ATOM      9  C   UNL     1      48.953   9.452  11.621  0.00  0.00    +0.000 A 
ATOM     10  C   UNL     1      49.973  10.345  11.280  0.00  0.00    +0.000 A 
ATOM     11  C   UNL     1      51.260   9.876  11.029  0.00  0.00    +0.000 A 
ATOM     12  C   UNL     1      51.530   8.506  11.077  0.00  0.00    +0.000 A 
ATOM     13  C   UNL     1      50.478   7.622  11.376  0.00  0.00    +0.000 A 
BRANCH  12  14
ATOM     14  C   UNL     1      52.933   7.964  10.960  0.00  0.00    +0.000 C 
BRANCH  14  15
ATOM     15  O   UNL     1      52.956   6.605  10.544  0.00  0.00    +0.000 OA
ATOM     16  H   UNL     1      53.143   6.612   9.591  0.00  0.00    +0.000 HD
ENDBRANCH  14  15
ENDBRANCH  12  14
ENDBRANCH   6   8
BRANCH   1  17
ATOM     17  C   UNL     1      44.819   5.670  10.718  0.00  0.00    +0.000 C 
BRANCH  17  18
ATOM     18  N   UNL     1      45.276   5.480   9.348  0.00  0.00    +0.000 N 
ATOM     19  H   UNL     1      46.027   6.110   9.072  0.00  0.00    +0.000 HD
BRANCH  18  25
ATOM     20  C   UNL     1      46.592   2.492   7.504  0.00  0.00    +0.000 A 
ATOM     21  C   UNL     1      45.777   1.488   8.020  0.00  0.00    +0.000 A 
ATOM     22  C   UNL     1      44.812   1.829   8.958  0.00  0.00    +0.000 A 
ATOM     23  F   UNL     1      44.042   0.865   9.480  0.00  0.00    +0.000 F 
ATOM     24  C   UNL     1      44.634   3.150   9.371  0.00  0.00    +0.000 A 
ATOM     25  C   UNL     1      45.428   4.182   8.848  0.00  0.00    +0.000 A 
ATOM     26  C   UNL     1      46.430   3.817   7.937  0.00  0.00    +0.000 A 
BRANCH  20  28
ATOM     27  N   UNL     1      48.386   1.913   5.726  0.00  0.00    +0.000 NA
ATOM     28  C   UNL     1      47.590   2.184   6.521  0.00  0.00    +0.000 C 
ENDBRANCH  20  28
ENDBRANCH  18  25
ENDBRANCH  17  18
ENDBRANCH   1  17
TORSDOF 7
ENDMDL
MODEL 5
REMARK VINA RESULT:    -7.123      4.385      7.800
REMARK INTER + INTRA:         -10.853
REMARK INTER:                  -9.806
REMARK INTRA:                  -1.047
REMARK UNBOUND:                -1.024
REMARK  Name = 
REMARK  7 active torsions:
REMARK  status: ('A' for Active; 'I' for Inactive)
REMARK    1  A    between atoms: C_2  and  C_3
REMARK    2  A    between atoms: C_8  and  N_9
REMARK    3  A    between atoms: N_9  and  C_10
REMARK    4  A    between atoms: C_10  and  C_11
REMARK    5  A    between atoms: C_16  and  C_17
REMARK    6  A    between atoms: C_21  and  C_22
REMARK    7  A    between atoms: C_22  and  O_23
REMARK                            x       y       z     vdW  Elec       q    Type
REMARK                         _______ _______ _______ _____ _____    ______ ____
ROOT
ATOM      1  C   UNL     1      47.489   7.252  13.836  0.00  0.00    +0.000 A 
ATOM      2  C   UNL     1      46.928   8.518  13.638  0.00  0.00    +0.000 A 
ATOM      3  C   UNL     1      45.853   8.676  12.770  0.00  0.00    +0.000 A 
ATOM      4  C   UNL     1      45.318   7.567  12.114  0.00  0.00    +0.000 A 
ATOM      5  F   UNL     1      44.259   7.789  11.320  0.00  0.00    +0.000 F 
ATOM      6  C   UNL     1      45.842   6.270  12.279  0.00  0.00    +0.000 A 
ATOM      7  C   UNL     1      46.939   6.145  13.157  0.00  0.00    +0.000 A 
ENDROOT
BRANCH   6   8
ATOM      8  C   UNL     1      45.270   5.088  11.577  0.00  0.00    +0.000 A 
ATOM      9  C   UNL     1      44.436   4.169  12.239  0.00  0.00    +0.000 A 
ATOM     10  C   UNL     1      43.857   3.088  11.568  0.00  0.00    +0.000 A 
ATOM     11  C   UNL     1      44.069   2.916  10.202  0.00  0.00    +0.000 A 
ATOM     12  C   UNL     1      44.894   3.801   9.503  0.00  0.00    +0.000 A 
ATOM     13  C   UNL     1      45.503   4.855  10.207  0.00  0.00    +0.000 A 
BRANCH  12  14
ATOM     14  C   UNL     1      45.034   3.745   8.002  0.00  0.00    +0.000 C 
BRANCH  14  15
ATOM     15  O   UNL     1      46.189   4.432   7.539  0.00  0.00    +0.000 OA
ATOM     16  H   UNL     1      46.935   4.101   8.066  0.00  0.00    +0.000 HD
ENDBRANCH  14  15
ENDBRANCH  12  14
ENDBRANCH   6   8
BRANCH   1  17
ATOM     17  C   UNL     1      48.699   7.089  14.725  0.00  0.00    +0.000 C 
BRANCH  17  18
ATOM     18  N   UNL     1      48.324   6.757  16.093  0.00  0.00    +0.000 N 
ATOM     19  H   UNL     1      47.407   7.108  16.367  0.00  0.00    +0.000 HD
BRANCH  18  25
ATOM     20  C   UNL     1      50.105   3.804  17.563  0.00  0.00    +0.000 A 
ATOM     21  C   UNL     1      49.040   2.926  17.754  0.00  0.00    +0.000 A 
ATOM     22  C   UNL     1      47.766   3.335  17.385  0.00  0.00    +0.000 A 
ATOM     23  F   UNL     1      46.732   2.508  17.591  0.00  0.00    +0.000 F 
ATOM     24  C   UNL     1      47.540   4.588  16.814  0.00  0.00    +0.000 A 
ATOM     25  C   UNL     1      48.600   5.480  16.590  0.00  0.00    +0.000 A 
ATOM     26  C   UNL     1      49.875   5.073  17.011  0.00  0.00    +0.000 A 
BRANCH  20  28
ATOM     27  N   UNL     1      52.523   3.104  18.178  0.00  0.00    +0.000 NA
ATOM     28  C   UNL     1      51.439   3.414  17.916  0.00  0.00    +0.000 C 
ENDBRANCH  20  28
ENDBRANCH  18  25
ENDBRANCH  17  18
ENDBRANCH   1  17
TORSDOF 7
ENDMDL
MODEL 6
REMARK VINA RESULT:    -7.065      3.498      4.827
REMARK INTER + INTRA:         -10.773
REMARK INTER:                  -9.866
REMARK INTRA:                  -0.907
REMARK UNBOUND:                -1.024
REMARK  Name = 
REMARK  7 active torsions:
REMARK  status: ('A' for Active; 'I' for Inactive)
REMARK    1  A    between atoms: C_2  and  C_3
REMARK    2  A    between atoms: C_8  and  N_9
REMARK    3  A    between atoms: N_9  and  C_10
REMARK    4  A    between atoms: C_10  and  C_11
REMARK    5  A    between atoms: C_16  and  C_17
REMARK    6  A    between atoms: C_21  and  C_22
REMARK    7  A    between atoms: C_22  and  O_23
REMARK                            x       y       z     vdW  Elec       q    Type
REMARK                         _______ _______ _______ _____ _____    ______ ____
ROOT
ATOM      1  C   UNL     1      46.713   6.672  12.436  0.00  0.00    +0.000 A 
ATOM      2  C   UNL     1      47.710   7.266  11.656  0.00  0.00    +0.000 A 
ATOM      3  C   UNL     1      48.959   7.531  12.207  0.00  0.00    +0.000 A 
ATOM      4  C   UNL     1      49.226   7.183  13.531  0.00  0.00    +0.000 A 
ATOM      5  F   UNL     1      50.463   7.436  13.983  0.00  0.00    +0.000 F 
ATOM      6  C   UNL     1      48.259   6.580  14.359  0.00  0.00    +0.000 A 
ATOM      7  C   UNL     1      46.998   6.335  13.774  0.00  0.00    +0.000 A 
ENDROOT
BRANCH   6   8
ATOM      8  C   UNL     1      48.546   6.210  15.773  0.00  0.00    +0.000 A 
ATOM      9  C   UNL     1      49.110   7.128  16.676  0.00  0.00    +0.000 A 
ATOM     10  C   UNL     1      49.332   6.797  18.016  0.00  0.00    +0.000 A 
ATOM     11  C   UNL     1      48.960   5.545  18.500  0.00  0.00    +0.000 A 
ATOM     12  C   UNL     1      48.400   4.598  17.639  0.00  0.00    +0.000 A 
ATOM     13  C   UNL     1      48.228   4.936  16.284  0.00  0.00    +0.000 A 
BRANCH  12  14
ATOM     14  C   UNL     1      47.846   3.289  18.143  0.00  0.00    +0.000 C 
BRANCH  14  15
ATOM     15  O   UNL     1      46.579   2.982  17.576  0.00  0.00    +0.000 OA
ATOM     16  H   UNL     1      46.377   2.068  17.834  0.00  0.00    +0.000 HD
ENDBRANCH  14  15
ENDBRANCH  12  14
ENDBRANCH   6   8
BRANCH   1  17
ATOM     17  C   UNL     1      45.334   6.445  11.861  0.00  0.00    +0.000 C 
BRANCH  17  18
ATOM     18  N   UNL     1      45.367   6.328  10.409  0.00  0.00    +0.000 N 
ATOM     19  H   UNL     1      46.096   6.884   9.966  0.00  0.00    +0.000 HD
BRANCH  18  25
ATOM     20  C   UNL     1      45.659   3.398   8.088  0.00  0.00    +0.000 A 
ATOM     21  C   UNL     1      44.914   2.444   8.777  0.00  0.00    +0.000 A 
ATOM     22  C   UNL     1      44.332   2.800   9.986  0.00  0.00    +0.000 A 
ATOM     23  F   UNL     1      43.637   1.881  10.670  0.00  0.00    +0.000 F 
ATOM     24  C   UNL     1      44.462   4.089  10.505  0.00  0.00    +0.000 A 
ATOM     25  C   UNL     1      45.189   5.073   9.818  0.00  0.00    +0.000 A 
ATOM     26  C   UNL     1      45.811   4.687   8.621  0.00  0.00    +0.000 A 
BRANCH  20  28
ATOM     27  N   UNL     1      46.732   2.801   5.806  0.00  0.00    +0.000 NA
ATOM     28  C   UNL     1      46.263   3.076   6.828  0.00  0.00    +0.000 C 
ENDBRANCH  20  28
ENDBRANCH  18  25
ENDBRANCH  17  18
ENDBRANCH   1  17
TORSDOF 7
ENDMDL
MODEL 7
REMARK VINA RESULT:    -7.032      3.603      7.601
REMARK INTER + INTRA:         -10.728
REMARK INTER:                  -9.514
REMARK INTRA:                  -1.213
REMARK UNBOUND:                -1.024
REMARK  Name = 
REMARK  7 active torsions:
REMARK  status: ('A' for Active; 'I' for Inactive)
REMARK    1  A    between atoms: C_2  and  C_3
REMARK    2  A    between atoms: C_8  and  N_9
REMARK    3  A    between atoms: N_9  and  C_10
REMARK    4  A    between atoms: C_10  and  C_11
REMARK    5  A    between atoms: C_16  and  C_17
REMARK    6  A    between atoms: C_21  and  C_22
REMARK    7  A    between atoms: C_22  and  O_23
REMARK                            x       y       z     vdW  Elec       q    Type
REMARK                         _______ _______ _______ _____ _____    ______ ____
ROOT
ATOM      1  C   UNL     1      47.112   7.932  12.597  0.00  0.00    +0.000 A 
ATOM      2  C   UNL     1      46.139   8.931  12.684  0.00  0.00    +0.000 A 
ATOM      3  C   UNL     1      44.878   8.725  12.133  0.00  0.00    +0.000 A 
ATOM      4  C   UNL     1      44.577   7.512  11.515  0.00  0.00    +0.000 A 
ATOM      5  F   UNL     1      43.331   7.371  11.038  0.00  0.00    +0.000 F 
ATOM      6  C   UNL     1      45.519   6.471  11.402  0.00  0.00    +0.000 A 
ATOM      7  C   UNL     1      46.792   6.715  11.961  0.00  0.00    +0.000 A 
ENDROOT
BRANCH   6   8
ATOM      8  C   UNL     1      45.195   5.177  10.741  0.00  0.00    +0.000 A 
ATOM      9  C   UNL     1      44.388   4.210  11.367  0.00  0.00    +0.000 A 
ATOM     10  C   UNL     1      44.043   3.016  10.726  0.00  0.00    +0.000 A 
ATOM     11  C   UNL     1      44.467   2.773   9.422  0.00  0.00    +0.000 A 
ATOM     12  C   UNL     1      45.274   3.702   8.761  0.00  0.00    +0.000 A 
ATOM     13  C   UNL     1      45.648   4.875   9.441  0.00  0.00    +0.000 A 
BRANCH  12  14
ATOM     14  C   UNL     1      45.634   3.554   7.303  0.00  0.00    +0.000 C 
BRANCH  14  15
ATOM     15  O   UNL     1      46.808   4.277   6.959  0.00  0.00    +0.000 OA
ATOM     16  H   UNL     1      46.947   4.928   7.665  0.00  0.00    +0.000 HD
ENDBRANCH  14  15
ENDBRANCH  12  14
ENDBRANCH   6   8
BRANCH   1  17
ATOM     17  C   UNL     1      48.503   8.178  13.134  0.00  0.00    +0.000 C 
BRANCH  17  18
ATOM     18  N   UNL     1      49.067   6.980  13.743  0.00  0.00    +0.000 N 
ATOM     19  H   UNL     1      50.044   6.818  13.506  0.00  0.00    +0.000 HD
BRANCH  18  25
ATOM     20  C   UNL     1      47.924   5.174  16.823  0.00  0.00    +0.000 A 
ATOM     21  C   UNL     1      48.333   6.064  17.813  0.00  0.00    +0.000 A 
ATOM     22  C   UNL     1      48.969   7.238  17.433  0.00  0.00    +0.000 A 
ATOM     23  F   UNL     1      49.390   8.087  18.380  0.00  0.00    +0.000 F 
ATOM     24  C   UNL     1      49.183   7.546  16.089  0.00  0.00    +0.000 A 
ATOM     25  C   UNL     1      48.760   6.677  15.073  0.00  0.00    +0.000 A 
ATOM     26  C   UNL     1      48.162   5.472  15.472  0.00  0.00    +0.000 A 
BRANCH  20  28
ATOM     27  N   UNL     1      46.690   2.989  17.470  0.00  0.00    +0.000 NA
ATOM     28  C   UNL     1      47.250   3.958  17.173  0.00  0.00    +0.000 C 
ENDBRANCH  20  28
ENDBRANCH  18  25
ENDBRANCH  17  18
ENDBRANCH   1  17
TORSDOF 7
ENDMDL
MODEL 8
REMARK VINA RESULT:    -7.020      4.180      7.846
REMARK INTER + INTRA:         -10.711
REMARK INTER:                  -9.628
REMARK INTRA:                  -1.084
REMARK UNBOUND:                -1.024
REMARK  Name = 
REMARK  7 active torsions:
REMARK  status: ('A' for Active; 'I' for Inactive)
REMARK    1  A    between atoms: C_2  and  C_3
REMARK    2  A    between atoms: C_8  and  N_9
REMARK    3  A    between atoms: N_9  and  C_10
REMARK    4  A    between atoms: C_10  and  C_11
REMARK    5  A    between atoms: C_16  and  C_17
REMARK    6  A    between atoms: C_21  and  C_22
REMARK    7  A    between atoms: C_22  and  O_23
REMARK                            x       y       z     vdW  Elec       q    Type
REMARK                         _______ _______ _______ _____ _____    ______ ____
ROOT
ATOM      1  C   UNL     1      47.797   7.666  13.236  0.00  0.00    +0.000 A 
ATOM      2  C   UNL     1      47.086   8.863  13.365  0.00  0.00    +0.000 A 
ATOM      3  C   UNL     1      45.871   9.026  12.707  0.00  0.00    +0.000 A 
ATOM      4  C   UNL     1      45.350   7.986  11.938  0.00  0.00    +0.000 A 
ATOM      5  F   UNL     1      44.158   8.201  11.361  0.00  0.00    +0.000 F 
ATOM      6  C   UNL     1      46.023   6.759  11.776  0.00  0.00    +0.000 A 
ATOM      7  C   UNL     1      47.258   6.629  12.447  0.00  0.00    +0.000 A 
ENDROOT
BRANCH   6   8
ATOM      8  C   UNL     1      45.466   5.650  10.954  0.00  0.00    +0.000 A 
ATOM      9  C   UNL     1      45.849   5.460   9.614  0.00  0.00    +0.000 A 
ATOM     10  C   UNL     1      45.365   4.390   8.857  0.00  0.00    +0.000 A 
ATOM     11  C   UNL     1      44.508   3.455   9.433  0.00  0.00    +0.000 A 
ATOM     12  C   UNL     1      44.096   3.604  10.759  0.00  0.00    +0.000 A 
ATOM     13  C   UNL     1      44.558   4.714  11.489  0.00  0.00    +0.000 A 
BRANCH  12  14
ATOM     14  C   UNL     1      43.293   2.543  11.470  0.00  0.00    +0.000 C 
BRANCH  14  15
ATOM     15  O   UNL     1      43.727   2.340  12.808  0.00  0.00    +0.000 OA
ATOM     16  H   UNL     1      43.221   2.960  13.359  0.00  0.00    +0.000 HD
ENDBRANCH  14  15
ENDBRANCH  12  14
ENDBRANCH   6   8
BRANCH   1  17
ATOM     17  C   UNL     1      49.148   7.512  13.894  0.00  0.00    +0.000 C 
BRANCH  17  18
ATOM     18  N   UNL     1      49.059   7.617  15.344  0.00  0.00    +0.000 N 
ATOM     19  H   UNL     1      48.278   8.184  15.670  0.00  0.00    +0.000 HD
BRANCH  18  25
ATOM     20  C   UNL     1      48.598   4.344  17.114  0.00  0.00    +0.000 A 
ATOM     21  C   UNL     1      49.888   4.123  17.592  0.00  0.00    +0.000 A 
ATOM     22  C   UNL     1      50.870   5.066  17.320  0.00  0.00    +0.000 A 
ATOM     23  F   UNL     1      52.119   4.847  17.752  0.00  0.00    +0.000 F 
ATOM     24  C   UNL     1      50.584   6.227  16.602  0.00  0.00    +0.000 A 
ATOM     25  C   UNL     1      49.288   6.483  16.131  0.00  0.00    +0.000 A 
ATOM     26  C   UNL     1      48.316   5.500  16.372  0.00  0.00    +0.000 A 
BRANCH  20  28
ATOM     27  N   UNL     1      46.723   2.627  17.614  0.00  0.00    +0.000 NA
ATOM     28  C   UNL     1      47.551   3.403  17.387  0.00  0.00    +0.000 C 
ENDBRANCH  20  28
ENDBRANCH  18  25
ENDBRANCH  17  18
ENDBRANCH   1  17
TORSDOF 7
ENDMDL
MODEL 9
REMARK VINA RESULT:    -6.997      3.680      7.411
REMARK INTER + INTRA:         -10.680
REMARK INTER:                  -9.822
REMARK INTRA:                  -0.858
REMARK UNBOUND:                -1.024
REMARK  Name = 
REMARK  7 active torsions:
REMARK  status: ('A' for Active; 'I' for Inactive)
REMARK    1  A    between atoms: C_2  and  C_3
REMARK    2  A    between atoms: C_8  and  N_9
REMARK    3  A    between atoms: N_9  and  C_10
REMARK    4  A    between atoms: C_10  and  C_11
REMARK    5  A    between atoms: C_16  and  C_17
REMARK    6  A    between atoms: C_21  and  C_22
REMARK    7  A    between atoms: C_22  and  O_23
REMARK                            x       y       z     vdW  Elec       q    Type
REMARK                         _______ _______ _______ _____ _____    ______ ____
ROOT
ATOM      1  C   UNL     1      45.479   6.198  12.301  0.00  0.00    +0.000 A 
ATOM      2  C   UNL     1      44.286   5.816  12.921  0.00  0.00    +0.000 A 
ATOM      3  C   UNL     1      43.496   4.819  12.357  0.00  0.00    +0.000 A 
ATOM      4  C   UNL     1      43.906   4.184  11.185  0.00  0.00    +0.000 A 
ATOM      5  F   UNL     1      43.112   3.208  10.719  0.00  0.00    +0.000 F 
ATOM      6  C   UNL     1      45.100   4.527  10.522  0.00  0.00    +0.000 A 
ATOM      7  C   UNL     1      45.873   5.549  11.113  0.00  0.00    +0.000 A 
ENDROOT
BRANCH   6   8
ATOM      8  C   UNL     1      45.536   3.848   9.271  0.00  0.00    +0.000 A 
ATOM      9  C   UNL     1      46.013   4.573   8.165  0.00  0.00    +0.000 A 
ATOM     10  C   UNL     1      46.471   3.933   7.009  0.00  0.00    +0.000 A 
ATOM     11  C   UNL     1      46.496   2.542   6.942  0.00  0.00    +0.000 A 
ATOM     12  C   UNL     1      46.029   1.779   8.014  0.00  0.00    +0.000 A 
ATOM     13  C   UNL     1      45.530   2.444   9.149  0.00  0.00    +0.000 A 
BRANCH  12  14
ATOM     14  C   UNL     1      46.174   0.278   8.049  0.00  0.00    +0.000 C 
BRANCH  14  15
ATOM     15  O   UNL     1      47.486  -0.148   7.707  0.00  0.00    +0.000 OA
ATOM     16  H   UNL     1      48.030  -0.032   8.503  0.00  0.00    +0.000 HD
ENDBRANCH  14  15
ENDBRANCH  12  14
ENDBRANCH   6   8
BRANCH   1  17
ATOM     17  C   UNL     1      46.304   7.326  12.873  0.00  0.00    +0.000 C 
BRANCH  17  18
ATOM     18  N   UNL     1      47.687   6.925  13.097  0.00  0.00    +0.000 N 
ATOM     19  H   UNL     1      48.371   7.531  12.647  0.00  0.00    +0.000 HD
BRANCH  18  25
ATOM     20  C   UNL     1      47.984   4.933  16.259  0.00  0.00    +0.000 A 
ATOM     21  C   UNL     1      49.058   5.574  16.871  0.00  0.00    +0.000 A 
ATOM     22  C   UNL     1      49.649   6.650  16.222  0.00  0.00    +0.000 A 
ATOM     23  F   UNL     1      50.701   7.255  16.791  0.00  0.00    +0.000 F 
ATOM     24  C   UNL     1      49.175   7.107  14.992  0.00  0.00    +0.000 A 
ATOM     25  C   UNL     1      48.080   6.492  14.367  0.00  0.00    +0.000 A 
ATOM     26  C   UNL     1      47.522   5.377  15.010  0.00  0.00    +0.000 A 
BRANCH  20  28
ATOM     27  N   UNL     1      46.793   2.951  17.428  0.00  0.00    +0.000 NA
ATOM     28  C   UNL     1      47.335   3.828  16.903  0.00  0.00    +0.000 C 
ENDBRANCH  20  28
ENDBRANCH  18  25
ENDBRANCH  17  18
ENDBRANCH   1  17
TORSDOF 7
ENDMDL
