MODEL 1
REMARK VINA RESULT:    -8.368      0.000      0.000
REMARK INTER + INTRA:         -12.338
REMARK INTER:                 -11.303
REMARK INTRA:                  -1.035
REMARK UNBOUND:                -1.035
REMARK  Name = 
REMARK  6 active torsions:
REMARK  status: ('A' for Active; 'I' for Inactive)
REMARK    1  A    between atoms: C_2  and  C_25
REMARK    2  A    between atoms: N_3  and  C_4
REMARK    3  A    between atoms: C_4  and  C_5
REMARK    4  A    between atoms: C_8  and  C_9
REMARK    5  A    between atoms: C_9  and  N_10
REMARK    6  A    between atoms: C_11  and  C_13
REMARK                            x       y       z     vdW  Elec       q    Type
REMARK                         _______ _______ _______ _____ _____    ______ ____
ROOT
ATOM      1  C   UNL     1      44.901   6.141  11.269  0.00  0.00    +0.000 A 
ATOM      2  C   UNL     1      46.129   5.643  11.724  0.00  0.00    +0.000 A 
ATOM      3  C   UNL     1      46.956   6.419  12.543  0.00  0.00    +0.000 A 
ATOM      4  C   UNL     1      46.563   7.702  12.944  0.00  0.00    +0.000 A 
ATOM      5  C   UNL     1      45.337   8.203  12.486  0.00  0.00    +0.000 A 
ATOM      6  C   UNL     1      44.509   7.426  11.668  0.00  0.00    +0.000 A 
ENDROOT
BRANCH   1   7
ATOM      7  C   UNL     1      44.037   5.328  10.343  0.00  0.00    +0.000 C 
BRANCH   7  10
ATOM      8  O   UNL     1      44.486   2.582  10.270  0.00  0.00    +0.000 OA
ATOM      9  C   UNL     1      44.945   3.277   9.370  0.00  0.00    +0.000 C 
ATOM     10  N   UNL     1      44.776   4.645   9.311  0.00  0.00    +0.000 N 
ATOM     11  H   UNL     1      45.203   5.149   8.538  0.00  0.00    +0.000 HD
BRANCH   9  12
ATOM     12  C   UNL     1      45.739   2.665   8.253  0.00  0.00    +0.000 A 
ATOM     13  C   UNL     1      46.014   3.424   7.120  0.00  0.00    +0.000 A 
ATOM     14  C   UNL     1      46.752   2.840   6.096  0.00  0.00    +0.000 A 
ATOM     15  C   UNL     1      47.187   1.526   6.236  0.00  0.00    +0.000 A 
ATOM     16  C   UNL     1      46.866   0.846   7.403  0.00  0.00    +0.000 A 
ATOM     17  N   UNL     1      46.152   1.378   8.423  0.00  0.00    +0.000 NA
ENDBRANCH   9  12
ENDBRANCH   7  10
ENDBRANCH   1   7
BRANCH   4  18
ATOM     18  C   UNL     1      47.445   8.543  13.831  0.00  0.00    +0.000 C 
BRANCH  18  19
ATOM     19  N   UNL     1      47.863   7.828  15.011  0.00  0.00    +0.000 N 
ATOM     20  C   UNL     1      49.129   7.305  15.104  0.00  0.00    +0.000 C 
ATOM     21  O   UNL     1      49.961   7.463  14.213  0.00  0.00    +0.000 OA
ATOM     22  H   UNL     1      47.136   7.499  15.640  0.00  0.00    +0.000 HD
BRANCH  20  23
ATOM     23  C   UNL     1      49.468   6.596  16.344  0.00  0.00    +0.000 A 
ATOM     24  C   UNL     1      50.489   7.078  17.153  0.00  0.00    +0.000 A 
ATOM     25  S   UNL     1      50.724   6.171  18.577  0.00  0.00    +0.000 S 
ATOM     26  C   UNL     1      49.503   5.069  18.139  0.00  0.00    +0.000 A 
ATOM     27  N   UNL     1      49.208   4.005  18.932  0.00  0.00    +0.000 NA
ATOM     28  C   UNL     1      48.288   3.228  18.462  0.00  0.00    +0.000 A 
ATOM     29  N   UNL     1      47.634   3.426  17.273  0.00  0.00    +0.000 N 
ATOM     30  C   UNL     1      47.876   4.506  16.459  0.00  0.00    +0.000 A 
ATOM     31  O   UNL     1      47.239   4.679  15.422  0.00  0.00    +0.000 OA
ATOM     32  C   UNL     1      48.913   5.399  16.933  0.00  0.00    +0.000 A 
ATOM     33  H   UNL     1      46.918   2.787  16.965  0.00  0.00    +0.000 HD
ENDBRANCH  20  23
ENDBRANCH  18  19
ENDBRANCH   4  18
TORSDOF 6
ENDMDL
MODEL 2
REMARK VINA RESULT:    -7.466      1.547      2.376
REMARK INTER + INTRA:         -11.120
REMARK INTER:                 -10.368
REMARK INTRA:                  -0.752
REMARK UNBOUND:                -1.035
REMARK  Name = 
REMARK  6 active torsions:
REMARK  status: ('A' for Active; 'I' for Inactive)
REMARK    1  A    between atoms: C_2  and  C_25
REMARK    2  A    between atoms: N_3  and  C_4
REMARK    3  A    between atoms: C_4  and  C_5
REMARK    4  A    between atoms: C_8  and  C_9
REMARK    5  A    between atoms: C_9  and  N_10
REMARK    6  A    between atoms: C_11  and  C_13
REMARK                            x       y       z     vdW  Elec       q    Type
REMARK                         _______ _______ _______ _____ _____    ______ ____
ROOT
ATOM      1  C   UNL     1      45.320   6.217  11.504  0.00  0.00    +0.000 A 
ATOM      2  C   UNL     1      45.191   7.595  11.722  0.00  0.00    +0.000 A 
ATOM      3  C   UNL     1      46.011   8.253  12.646  0.00  0.00    +0.000 A 
ATOM      4  C   UNL     1      46.993   7.550  13.356  0.00  0.00    +0.000 A 
ATOM      5  C   UNL     1      47.119   6.171  13.141  0.00  0.00    +0.000 A 
ATOM      6  C   UNL     1      46.300   5.514  12.217  0.00  0.00    +0.000 A 
ENDROOT
BRANCH   1   7
ATOM      7  C   UNL     1      44.400   5.500  10.552  0.00  0.00    +0.000 C 
BRANCH   7  10
ATOM      8  O   UNL     1      44.282   2.744  10.182  0.00  0.00    +0.000 OA
ATOM      9  C   UNL     1      44.968   3.411   9.414  0.00  0.00    +0.000 C 
ATOM     10  N   UNL     1      45.090   4.783   9.510  0.00  0.00    +0.000 N 
ATOM     11  H   UNL     1      45.692   5.258   8.842  0.00  0.00    +0.000 HD
BRANCH   9  12
ATOM     12  C   UNL     1      45.734   2.760   8.302  0.00  0.00    +0.000 A 
ATOM     13  C   UNL     1      46.019   3.492   7.153  0.00  0.00    +0.000 A 
ATOM     14  C   UNL     1      46.732   2.871   6.132  0.00  0.00    +0.000 A 
ATOM     15  C   UNL     1      47.133   1.549   6.291  0.00  0.00    +0.000 A 
ATOM     16  C   UNL     1      46.806   0.898   7.473  0.00  0.00    +0.000 A 
ATOM     17  N   UNL     1      46.116   1.465   8.489  0.00  0.00    +0.000 NA
ENDBRANCH   9  12
ENDBRANCH   7  10
ENDBRANCH   1   7
BRANCH   4  18
ATOM     18  C   UNL     1      47.884   8.251  14.348  0.00  0.00    +0.000 C 
BRANCH  18  19
ATOM     19  N   UNL     1      48.035   7.495  15.566  0.00  0.00    +0.000 N 
ATOM     20  C   UNL     1      49.168   6.755  15.798  0.00  0.00    +0.000 C 
ATOM     21  O   UNL     1      50.108   6.744  15.006  0.00  0.00    +0.000 OA
ATOM     22  H   UNL     1      47.197   7.315  16.111  0.00  0.00    +0.000 HD
BRANCH  20  23
ATOM     23  C   UNL     1      49.236   6.022  17.068  0.00  0.00    +0.000 A 
ATOM     24  C   UNL     1      48.746   4.724  17.138  0.00  0.00    +0.000 A 
ATOM     25  S   UNL     1      48.945   3.996  18.667  0.00  0.00    +0.000 S 
ATOM     26  C   UNL     1      49.647   5.408  19.307  0.00  0.00    +0.000 A 
ATOM     27  N   UNL     1      50.031   5.467  20.609  0.00  0.00    +0.000 NA
ATOM     28  C   UNL     1      50.513   6.610  20.972  0.00  0.00    +0.000 A 
ATOM     29  N   UNL     1      50.650   7.695  20.146  0.00  0.00    +0.000 N 
ATOM     30  C   UNL     1      50.307   7.669  18.816  0.00  0.00    +0.000 A 
ATOM     31  O   UNL     1      50.486   8.646  18.091  0.00  0.00    +0.000 OA
ATOM     32  C   UNL     1      49.744   6.414  18.362  0.00  0.00    +0.000 A 
ATOM     33  H   UNL     1      51.043   8.559  20.488  0.00  0.00    +0.000 HD
ENDBRANCH  20  23
ENDBRANCH  18  19
ENDBRANCH   4  18
TORSDOF 6
ENDMDL
MODEL 3
REMARK VINA RESULT:    -7.326      4.859      9.661
REMARK INTER + INTRA:         -10.930
REMARK INTER:                 -10.138
REMARK INTRA:                  -0.792
REMARK UNBOUND:                -1.035
REMARK  Name = 
REMARK  6 active torsions:
REMARK  status: ('A' for Active; 'I' for Inactive)
REMARK    1  A    between atoms: C_2  and  C_25
REMARK    2  A    between atoms: N_3  and  C_4
REMARK    3  A    between atoms: C_4  and  C_5
REMARK    4  A    between atoms: C_8  and  C_9
REMARK    5  A    between atoms: C_9  and  N_10
REMARK    6  A    between atoms: C_11  and  C_13
REMARK                            x       y       z     vdW  Elec       q    Type
REMARK                         _______ _______ _______ _____ _____    ______ ____
ROOT
ATOM      1  C   UNL     1      51.481   2.908  17.793  0.00  0.00    +0.000 A 
ATOM      2  C   UNL     1      50.718   1.941  17.126  0.00  0.00    +0.000 A 
ATOM      3  C   UNL     1      49.358   2.152  16.874  0.00  0.00    +0.000 A 
ATOM      4  C   UNL     1      48.736   3.344  17.266  0.00  0.00    +0.000 A 
ATOM      5  C   UNL     1      49.498   4.310  17.937  0.00  0.00    +0.000 A 
ATOM      6  C   UNL     1      50.858   4.100  18.187  0.00  0.00    +0.000 A 
ENDROOT
BRANCH   1   7
ATOM      7  C   UNL     1      52.931   2.658  18.112  0.00  0.00    +0.000 C 
BRANCH   7  10
ATOM      8  O   UNL     1      54.643   1.008  16.663  0.00  0.00    +0.000 OA
ATOM      9  C   UNL     1      54.085   0.551  17.656  0.00  0.00    +0.000 C 
ATOM     10  N   UNL     1      53.223   1.286  18.443  0.00  0.00    +0.000 N 
ATOM     11  H   UNL     1      52.791   0.826  19.241  0.00  0.00    +0.000 HD
BRANCH   9  12
ATOM     12  C   UNL     1      54.314  -0.869  18.081  0.00  0.00    +0.000 A 
ATOM     13  C   UNL     1      55.034  -1.721  17.248  0.00  0.00    +0.000 A 
ATOM     14  C   UNL     1      55.237  -3.033  17.660  0.00  0.00    +0.000 A 
ATOM     15  C   UNL     1      54.717  -3.451  18.881  0.00  0.00    +0.000 A 
ATOM     16  C   UNL     1      54.013  -2.531  19.646  0.00  0.00    +0.000 A 
ATOM     17  N   UNL     1      53.795  -1.246  19.283  0.00  0.00    +0.000 NA
ENDBRANCH   9  12
ENDBRANCH   7  10
ENDBRANCH   1   7
BRANCH   4  18
ATOM     18  C   UNL     1      47.273   3.582  16.994  0.00  0.00    +0.000 C 
BRANCH  18  19
ATOM     19  N   UNL     1      47.068   4.600  15.993  0.00  0.00    +0.000 N 
ATOM     20  C   UNL     1      47.134   4.293  14.657  0.00  0.00    +0.000 C 
ATOM     21  O   UNL     1      47.323   3.144  14.264  0.00  0.00    +0.000 OA
ATOM     22  H   UNL     1      47.137   5.568  16.290  0.00  0.00    +0.000 HD
BRANCH  20  23
ATOM     23  C   UNL     1      46.907   5.391  13.709  0.00  0.00    +0.000 A 
ATOM     24  C   UNL     1      47.942   6.270  13.417  0.00  0.00    +0.000 A 
ATOM     25  S   UNL     1      47.531   7.457  12.264  0.00  0.00    +0.000 S 
ATOM     26  C   UNL     1      45.937   6.871  12.151  0.00  0.00    +0.000 A 
ATOM     27  N   UNL     1      45.029   7.472  11.338  0.00  0.00    +0.000 NA
ATOM     28  C   UNL     1      43.848   6.949  11.378  0.00  0.00    +0.000 A 
ATOM     29  N   UNL     1      43.498   5.875  12.155  0.00  0.00    +0.000 N 
ATOM     30  C   UNL     1      44.391   5.216  12.964  0.00  0.00    +0.000 A 
ATOM     31  O   UNL     1      44.056   4.227  13.612  0.00  0.00    +0.000 OA
ATOM     32  C   UNL     1      45.728   5.775  12.968  0.00  0.00    +0.000 A 
ATOM     33  H   UNL     1      42.559   5.508  12.134  0.00  0.00    +0.000 HD
ENDBRANCH  20  23
ENDBRANCH  18  19
ENDBRANCH   4  18
TORSDOF 6
ENDMDL
MODEL 4
REMARK VINA RESULT:    -7.039      2.221      2.861
REMARK INTER + INTRA:         -10.544
REMARK INTER:                  -9.650
REMARK INTRA:                  -0.894
REMARK UNBOUND:                -1.035
REMARK  Name = 
REMARK  6 active torsions:
REMARK  status: ('A' for Active; 'I' for Inactive)
REMARK    1  A    between atoms: C_2  and  C_25
REMARK    2  A    between atoms: N_3  and  C_4
REMARK    3  A    between atoms: C_4  and  C_5
REMARK    4  A    between atoms: C_8  and  C_9
REMARK    5  A    between atoms: C_9  and  N_10
REMARK    6  A    between atoms: C_11  and  C_13
REMARK                            x       y       z     vdW  Elec       q    Type
REMARK                         _______ _______ _______ _____ _____    ______ ____
ROOT
ATOM      1  C   UNL     1      45.355   6.112  11.693  0.00  0.00    +0.000 A 
ATOM      2  C   UNL     1      45.179   7.501  11.742  0.00  0.00    +0.000 A 
ATOM      3  C   UNL     1      45.951   8.289  12.603  0.00  0.00    +0.000 A 
ATOM      4  C   UNL     1      46.931   7.707  13.418  0.00  0.00    +0.000 A 
ATOM      5  C   UNL     1      47.104   6.317  13.372  0.00  0.00    +0.000 A 
ATOM      6  C   UNL     1      46.334   5.529  12.510  0.00  0.00    +0.000 A 
ENDROOT
BRANCH   1   7
ATOM      7  C   UNL     1      44.487   5.258  10.808  0.00  0.00    +0.000 C 
BRANCH   7  10
ATOM      8  O   UNL     1      44.001   2.648   9.969  0.00  0.00    +0.000 OA
ATOM      9  C   UNL     1      44.895   3.285   9.421  0.00  0.00    +0.000 C 
ATOM     10  N   UNL     1      45.212   4.585   9.760  0.00  0.00    +0.000 N 
ATOM     11  H   UNL     1      45.978   5.036   9.266  0.00  0.00    +0.000 HD
BRANCH   9  12
ATOM     12  C   UNL     1      45.716   2.673   8.325  0.00  0.00    +0.000 A 
ATOM     13  C   UNL     1      46.009   3.427   7.192  0.00  0.00    +0.000 A 
ATOM     14  C   UNL     1      46.772   2.843   6.187  0.00  0.00    +0.000 A 
ATOM     15  C   UNL     1      47.215   1.534   6.345  0.00  0.00    +0.000 A 
ATOM     16  C   UNL     1      46.876   0.859   7.510  0.00  0.00    +0.000 A 
ATOM     17  N   UNL     1      46.137   1.391   8.511  0.00  0.00    +0.000 NA
ENDBRANCH   9  12
ENDBRANCH   7  10
ENDBRANCH   1   7
BRANCH   4  18
ATOM     18  C   UNL     1      47.771   8.548  14.344  0.00  0.00    +0.000 C 
BRANCH  18  19
ATOM     19  N   UNL     1      49.098   8.009  14.509  0.00  0.00    +0.000 N 
ATOM     20  C   UNL     1      50.165   8.836  14.760  0.00  0.00    +0.000 C 
ATOM     21  O   UNL     1      50.027  10.049  14.896  0.00  0.00    +0.000 OA
ATOM     22  H   UNL     1      49.262   7.062  14.181  0.00  0.00    +0.000 HD
BRANCH  20  23
ATOM     23  C   UNL     1      51.478   8.198  14.918  0.00  0.00    +0.000 A 
ATOM     24  C   UNL     1      52.534   8.590  14.106  0.00  0.00    +0.000 A 
ATOM     25  S   UNL     1      54.000   7.789  14.450  0.00  0.00    +0.000 S 
ATOM     26  C   UNL     1      53.264   6.851  15.664  0.00  0.00    +0.000 A 
ATOM     27  N   UNL     1      53.975   5.920  16.353  0.00  0.00    +0.000 NA
ATOM     28  C   UNL     1      53.284   5.254  17.218  0.00  0.00    +0.000 A 
ATOM     29  N   UNL     1      51.947   5.442  17.459  0.00  0.00    +0.000 N 
ATOM     30  C   UNL     1      51.199   6.394  16.811  0.00  0.00    +0.000 A 
ATOM     31  O   UNL     1      50.013   6.568  17.084  0.00  0.00    +0.000 OA
ATOM     32  C   UNL     1      51.924   7.158  15.816  0.00  0.00    +0.000 A 
ATOM     33  H   UNL     1      51.467   4.893  18.156  0.00  0.00    +0.000 HD
ENDBRANCH  20  23
ENDBRANCH  18  19
ENDBRANCH   4  18
TORSDOF 6
ENDMDL
MODEL 5
REMARK VINA RESULT:    -6.990      4.875      9.742
REMARK INTER + INTRA:         -10.477
REMARK INTER:                  -9.389
REMARK INTRA:                  -1.088
REMARK UNBOUND:                -1.035
REMARK  Name = 
REMARK  6 active torsions:
REMARK  status: ('A' for Active; 'I' for Inactive)
REMARK    1  A    between atoms: C_2  and  C_25
REMARK    2  A    between atoms: N_3  and  C_4
REMARK    3  A    between atoms: C_4  and  C_5
REMARK    4  A    between atoms: C_8  and  C_9
REMARK    5  A    between atoms: C_9  and  N_10
REMARK    6  A    between atoms: C_11  and  C_13
REMARK                            x       y       z     vdW  Elec       q    Type
REMARK                         _______ _______ _______ _____ _____    ______ ____
ROOT
ATOM      1  C   UNL     1      51.590   2.804  17.714  0.00  0.00    +0.000 A 
ATOM      2  C   UNL     1      50.745   1.838  17.152  0.00  0.00    +0.000 A 
ATOM      3  C   UNL     1      49.396   2.122  16.909  0.00  0.00    +0.000 A 
ATOM      4  C   UNL     1      48.868   3.385  17.203  0.00  0.00    +0.000 A 
ATOM      5  C   UNL     1      49.712   4.350  17.770  0.00  0.00    +0.000 A 
ATOM      6  C   UNL     1      51.061   4.067  18.012  0.00  0.00    +0.000 A 
ENDROOT
BRANCH   1   7
ATOM      7  C   UNL     1      53.027   2.480  18.027  0.00  0.00    +0.000 C 
BRANCH   7  10
ATOM      8  O   UNL     1      54.539   0.503  16.779  0.00  0.00    +0.000 OA
ATOM      9  C   UNL     1      53.989   0.239  17.844  0.00  0.00    +0.000 C 
ATOM     10  N   UNL     1      53.221   1.149  18.543  0.00  0.00    +0.000 N 
ATOM     11  H   UNL     1      52.788   0.844  19.411  0.00  0.00    +0.000 HD
BRANCH   9  12
ATOM     12  C   UNL     1      54.121  -1.121  18.461  0.00  0.00    +0.000 A 
ATOM     13  C   UNL     1      55.277  -1.862  18.233  0.00  0.00    +0.000 A 
ATOM     14  C   UNL     1      55.382  -3.121  18.815  0.00  0.00    +0.000 A 
ATOM     15  C   UNL     1      54.336  -3.595  19.600  0.00  0.00    +0.000 A 
ATOM     16  C   UNL     1      53.222  -2.786  19.774  0.00  0.00    +0.000 A 
ATOM     17  N   UNL     1      53.081  -1.556  19.227  0.00  0.00    +0.000 NA
ENDBRANCH   9  12
ENDBRANCH   7  10
ENDBRANCH   1   7
BRANCH   4  18
ATOM     18  C   UNL     1      47.419   3.702  16.940  0.00  0.00    +0.000 C 
BRANCH  18  19
ATOM     19  N   UNL     1      47.260   4.663  15.877  0.00  0.00    +0.000 N 
ATOM     20  C   UNL     1      47.190   4.257  14.568  0.00  0.00    +0.000 C 
ATOM     21  O   UNL     1      47.214   3.068  14.257  0.00  0.00    +0.000 OA
ATOM     22  H   UNL     1      47.465   5.635  16.091  0.00  0.00    +0.000 HD
BRANCH  20  23
ATOM     23  C   UNL     1      47.024   5.304  13.553  0.00  0.00    +0.000 A 
ATOM     24  C   UNL     1      46.015   5.189  12.606  0.00  0.00    +0.000 A 
ATOM     25  S   UNL     1      45.926   6.510  11.532  0.00  0.00    +0.000 S 
ATOM     26  C   UNL     1      47.267   7.262  12.261  0.00  0.00    +0.000 A 
ATOM     27  N   UNL     1      47.743   8.445  11.793  0.00  0.00    +0.000 NA
ATOM     28  C   UNL     1      48.787   8.884  12.414  0.00  0.00    +0.000 A 
ATOM     29  N   UNL     1      49.392   8.247  13.467  0.00  0.00    +0.000 N 
ATOM     30  C   UNL     1      48.925   7.067  13.994  0.00  0.00    +0.000 A 
ATOM     31  O   UNL     1      49.464   6.546  14.968  0.00  0.00    +0.000 OA
ATOM     32  C   UNL     1      47.764   6.524  13.320  0.00  0.00    +0.000 A 
ATOM     33  H   UNL     1      50.202   8.647  13.916  0.00  0.00    +0.000 HD
ENDBRANCH  20  23
ENDBRANCH  18  19
ENDBRANCH   4  18
TORSDOF 6
ENDMDL
MODEL 6
REMARK VINA RESULT:    -6.957      3.524      4.811
REMARK INTER + INTRA:         -10.433
REMARK INTER:                  -9.237
REMARK INTRA:                  -1.196
REMARK UNBOUND:                -1.035
REMARK  Name = 
REMARK  6 active torsions:
REMARK  status: ('A' for Active; 'I' for Inactive)
REMARK    1  A    between atoms: C_2  and  C_25
REMARK    2  A    between atoms: N_3  and  C_4
REMARK    3  A    between atoms: C_4  and  C_5
REMARK    4  A    between atoms: C_8  and  C_9
REMARK    5  A    between atoms: C_9  and  N_10
REMARK    6  A    between atoms: C_11  and  C_13
REMARK                            x       y       z     vdW  Elec       q    Type
REMARK                         _______ _______ _______ _____ _____    ______ ____
ROOT
ATOM      1  C   UNL     1      44.926   6.053  11.397  0.00  0.00    +0.000 A 
ATOM      2  C   UNL     1      44.849   7.446  11.270  0.00  0.00    +0.000 A 
ATOM      3  C   UNL     1      45.578   8.283  12.122  0.00  0.00    +0.000 A 
ATOM      4  C   UNL     1      46.417   7.745  13.105  0.00  0.00    +0.000 A 
ATOM      5  C   UNL     1      46.491   6.351  13.236  0.00  0.00    +0.000 A 
ATOM      6  C   UNL     1      45.763   5.514  12.383  0.00  0.00    +0.000 A 
ENDROOT
BRANCH   1   7
ATOM      7  C   UNL     1      44.099   5.153  10.517  0.00  0.00    +0.000 C 
BRANCH   7  10
ATOM      8  O   UNL     1      44.751   2.470  10.165  0.00  0.00    +0.000 OA
ATOM      9  C   UNL     1      45.097   3.277   9.308  0.00  0.00    +0.000 C 
ATOM     10  N   UNL     1      44.820   4.627   9.387  0.00  0.00    +0.000 N 
ATOM     11  H   UNL     1      45.157   5.230   8.640  0.00  0.00    +0.000 HD
BRANCH   9  12
ATOM     12  C   UNL     1      45.861   2.833   8.096  0.00  0.00    +0.000 A 
ATOM     13  C   UNL     1      46.386   1.544   8.058  0.00  0.00    +0.000 A 
ATOM     14  C   UNL     1      47.090   1.149   6.926  0.00  0.00    +0.000 A 
ATOM     15  C   UNL     1      47.247   2.048   5.876  0.00  0.00    +0.000 A 
ATOM     16  C   UNL     1      46.688   3.313   6.001  0.00  0.00    +0.000 A 
ATOM     17  N   UNL     1      45.995   3.735   7.084  0.00  0.00    +0.000 NA
ENDBRANCH   9  12
ENDBRANCH   7  10
ENDBRANCH   1   7
BRANCH   4  18
ATOM     18  C   UNL     1      47.210   8.638  14.023  0.00  0.00    +0.000 C 
BRANCH  18  19
ATOM     19  N   UNL     1      48.571   8.804  13.574  0.00  0.00    +0.000 N 
ATOM     20  C   UNL     1      48.961   9.947  12.924  0.00  0.00    +0.000 C 
ATOM     21  O   UNL     1      48.187  10.885  12.741  0.00  0.00    +0.000 OA
ATOM     22  H   UNL     1      49.147   7.970  13.514  0.00  0.00    +0.000 HD
BRANCH  20  23
ATOM     23  C   UNL     1      50.366  10.030  12.507  0.00  0.00    +0.000 A 
ATOM     24  C   UNL     1      51.102  11.172  12.794  0.00  0.00    +0.000 A 
ATOM     25  S   UNL     1      52.727  11.089  12.286  0.00  0.00    +0.000 S 
ATOM     26  C   UNL     1      52.494   9.542  11.616  0.00  0.00    +0.000 A 
ATOM     27  N   UNL     1      53.510   8.895  10.985  0.00  0.00    +0.000 NA
ATOM     28  C   UNL     1      53.185   7.747  10.490  0.00  0.00    +0.000 A 
ATOM     29  N   UNL     1      51.936   7.186  10.577  0.00  0.00    +0.000 N 
ATOM     30  C   UNL     1      50.892   7.789  11.235  0.00  0.00    +0.000 A 
ATOM     31  O   UNL     1      49.797   7.238  11.335  0.00  0.00    +0.000 OA
ATOM     32  C   UNL     1      51.200   9.089  11.794  0.00  0.00    +0.000 A 
ATOM     33  H   UNL     1      51.749   6.280  10.176  0.00  0.00    +0.000 HD
ENDBRANCH  20  23
ENDBRANCH  18  19
ENDBRANCH   4  18
TORSDOF 6
ENDMDL
MODEL 7
REMARK VINA RESULT:    -6.749      3.930      8.665
REMARK INTER + INTRA:         -10.152
REMARK INTER:                  -9.152
REMARK INTRA:                  -0.999
REMARK UNBOUND:                -1.035
REMARK  Name = 
REMARK  6 active torsions:
REMARK  status: ('A' for Active; 'I' for Inactive)
REMARK    1  A    between atoms: C_2  and  C_25
REMARK    2  A    between atoms: N_3  and  C_4
REMARK    3  A    between atoms: C_4  and  C_5
REMARK    4  A    between atoms: C_8  and  C_9
REMARK    5  A    between atoms: C_9  and  N_10
REMARK    6  A    between atoms: C_11  and  C_13
REMARK                            x       y       z     vdW  Elec       q    Type
REMARK                         _______ _______ _______ _____ _____    ______ ____
ROOT
ATOM      1  C   UNL     1      49.750   4.793  17.615  0.00  0.00    +0.000 A 
ATOM      2  C   UNL     1      48.569   4.498  16.922  0.00  0.00    +0.000 A 
ATOM      3  C   UNL     1      48.092   5.356  15.924  0.00  0.00    +0.000 A 
ATOM      4  C   UNL     1      48.797   6.517  15.583  0.00  0.00    +0.000 A 
ATOM      5  C   UNL     1      49.977   6.814  16.279  0.00  0.00    +0.000 A 
ATOM      6  C   UNL     1      50.455   5.956  17.276  0.00  0.00    +0.000 A 
ENDROOT
BRANCH   1   7
ATOM      7  C   UNL     1      50.234   3.899  18.726  0.00  0.00    +0.000 C 
BRANCH   7  10
ATOM      8  O   UNL     1      50.730   1.610  17.221  0.00  0.00    +0.000 OA
ATOM      9  C   UNL     1      51.680   2.196  17.732  0.00  0.00    +0.000 C 
ATOM     10  N   UNL     1      51.541   3.340  18.491  0.00  0.00    +0.000 N 
ATOM     11  H   UNL     1      52.379   3.755  18.891  0.00  0.00    +0.000 HD
BRANCH   9  12
ATOM     12  C   UNL     1      53.081   1.690  17.556  0.00  0.00    +0.000 A 
ATOM     13  C   UNL     1      54.132   2.601  17.508  0.00  0.00    +0.000 A 
ATOM     14  C   UNL     1      55.424   2.114  17.347  0.00  0.00    +0.000 A 
ATOM     15  C   UNL     1      55.623   0.741  17.238  0.00  0.00    +0.000 A 
ATOM     16  C   UNL     1      54.515  -0.093  17.299  0.00  0.00    +0.000 A 
ATOM     17  N   UNL     1      53.243   0.341  17.456  0.00  0.00    +0.000 NA
ENDBRANCH   9  12
ENDBRANCH   7  10
ENDBRANCH   1   7
BRANCH   4  18
ATOM     18  C   UNL     1      48.294   7.443  14.507  0.00  0.00    +0.000 C 
BRANCH  18  19
ATOM     19  N   UNL     1      47.045   6.992  13.946  0.00  0.00    +0.000 N 
ATOM     20  C   UNL     1      46.965   6.598  12.634  0.00  0.00    +0.000 C 
ATOM     21  O   UNL     1      47.954   6.571  11.905  0.00  0.00    +0.000 OA
ATOM     22  H   UNL     1      46.195   7.219  14.455  0.00  0.00    +0.000 HD
BRANCH  20  23
ATOM     23  C   UNL     1      45.653   6.150  12.151  0.00  0.00    +0.000 A 
ATOM     24  C   UNL     1      44.779   7.069  11.585  0.00  0.00    +0.000 A 
ATOM     25  S   UNL     1      43.321   6.380  11.032  0.00  0.00    +0.000 S 
ATOM     26  C   UNL     1      43.782   4.835  11.576  0.00  0.00    +0.000 A 
ATOM     27  N   UNL     1      42.952   3.769  11.433  0.00  0.00    +0.000 NA
ATOM     28  C   UNL     1      43.411   2.665  11.924  0.00  0.00    +0.000 A 
ATOM     29  N   UNL     1      44.629   2.534  12.539  0.00  0.00    +0.000 N 
ATOM     30  C   UNL     1      45.514   3.576  12.675  0.00  0.00    +0.000 A 
ATOM     31  O   UNL     1      46.618   3.414  13.190  0.00  0.00    +0.000 OA
ATOM     32  C   UNL     1      45.038   4.842  12.155  0.00  0.00    +0.000 A 
ATOM     33  H   UNL     1      44.934   1.641  12.894  0.00  0.00    +0.000 HD
ENDBRANCH  20  23
ENDBRANCH  18  19
ENDBRANCH   4  18
TORSDOF 6
ENDMDL
MODEL 8
REMARK VINA RESULT:    -6.733      1.956      3.485
REMARK INTER + INTRA:         -10.130
REMARK INTER:                  -9.252
REMARK INTRA:                  -0.878
REMARK UNBOUND:                -1.035
REMARK  Name = 
REMARK  6 active torsions:
REMARK  status: ('A' for Active; 'I' for Inactive)
REMARK    1  A    between atoms: C_2  and  C_25
REMARK    2  A    between atoms: N_3  and  C_4
REMARK    3  A    between atoms: C_4  and  C_5
REMARK    4  A    between atoms: C_8  and  C_9
REMARK    5  A    between atoms: C_9  and  N_10
REMARK    6  A    between atoms: C_11  and  C_13
REMARK                            x       y       z     vdW  Elec       q    Type
REMARK                         _______ _______ _______ _____ _____    ______ ____
ROOT
ATOM      1  C   UNL     1      45.533   4.994  11.897  0.00  0.00    +0.000 A 
ATOM      2  C   UNL     1      46.257   6.075  12.417  0.00  0.00    +0.000 A 
ATOM      3  C   UNL     1      46.909   5.973  13.651  0.00  0.00    +0.000 A 
ATOM      4  C   UNL     1      46.870   4.779  14.382  0.00  0.00    +0.000 A 
ATOM      5  C   UNL     1      46.143   3.698  13.864  0.00  0.00    +0.000 A 
ATOM      6  C   UNL     1      45.492   3.800  12.630  0.00  0.00    +0.000 A 
ENDROOT
BRANCH   1   7
ATOM      7  C   UNL     1      44.786   5.122  10.597  0.00  0.00    +0.000 C 
BRANCH   7  10
ATOM      8  O   UNL     1      44.406   2.519   9.686  0.00  0.00    +0.000 OA
ATOM      9  C   UNL     1      45.215   3.234   9.104  0.00  0.00    +0.000 C 
ATOM     10  N   UNL     1      45.474   4.538   9.473  0.00  0.00    +0.000 N 
ATOM     11  H   UNL     1      46.171   5.057   8.945  0.00  0.00    +0.000 HD
BRANCH   9  12
ATOM     12  C   UNL     1      45.991   2.719   7.928  0.00  0.00    +0.000 A 
ATOM     13  C   UNL     1      46.178   3.543   6.822  0.00  0.00    +0.000 A 
ATOM     14  C   UNL     1      46.901   3.049   5.742  0.00  0.00    +0.000 A 
ATOM     15  C   UNL     1      47.409   1.755   5.800  0.00  0.00    +0.000 A 
ATOM     16  C   UNL     1      47.174   1.005   6.945  0.00  0.00    +0.000 A 
ATOM     17  N   UNL     1      46.478   1.449   8.017  0.00  0.00    +0.000 NA
ENDBRANCH   9  12
ENDBRANCH   7  10
ENDBRANCH   1   7
BRANCH   4  18
ATOM     18  C   UNL     1      47.574   4.657  15.708  0.00  0.00    +0.000 C 
BRANCH  18  19
ATOM     19  N   UNL     1      48.170   5.904  16.120  0.00  0.00    +0.000 N 
ATOM     20  C   UNL     1      48.973   5.965  17.231  0.00  0.00    +0.000 C 
ATOM     21  O   UNL     1      49.250   4.963  17.886  0.00  0.00    +0.000 OA
ATOM     22  H   UNL     1      47.778   6.759  15.735  0.00  0.00    +0.000 HD
BRANCH  20  23
ATOM     23  C   UNL     1      49.540   7.276  17.572  0.00  0.00    +0.000 A 
ATOM     24  C   UNL     1      49.529   7.707  18.892  0.00  0.00    +0.000 A 
ATOM     25  S   UNL     1      50.268   9.225  19.126  0.00  0.00    +0.000 S 
ATOM     26  C   UNL     1      50.583   9.387  17.462  0.00  0.00    +0.000 A 
ATOM     27  N   UNL     1      51.188  10.501  16.972  0.00  0.00    +0.000 NA
ATOM     28  C   UNL     1      51.332  10.510  15.688  0.00  0.00    +0.000 A 
ATOM     29  N   UNL     1      50.931   9.499  14.852  0.00  0.00    +0.000 N 
ATOM     30  C   UNL     1      50.348   8.342  15.307  0.00  0.00    +0.000 A 
ATOM     31  O   UNL     1      50.042   7.435  14.536  0.00  0.00    +0.000 OA
ATOM     32  C   UNL     1      50.148   8.290  16.741  0.00  0.00    +0.000 A 
ATOM     33  H   UNL     1      51.080   9.563  13.857  0.00  0.00    +0.000 HD
ENDBRANCH  20  23
ENDBRANCH  18  19
ENDBRANCH   4  18
TORSDOF 6
ENDMDL
MODEL 9
REMARK VINA RESULT:    -6.722      3.336      8.865
REMARK INTER + INTRA:         -10.115
REMARK INTER:                  -9.206
REMARK INTRA:                  -0.909
REMARK UNBOUND:                -1.035
REMARK  Name = 
REMARK  6 active torsions:
REMARK  status: ('A' for Active; 'I' for Inactive)
REMARK    1  A    between atoms: C_2  and  C_25
REMARK    2  A    between atoms: N_3  and  C_4
REMARK    3  A    between atoms: C_4  and  C_5
REMARK    4  A    between atoms: C_8  and  C_9
REMARK    5  A    between atoms: C_9  and  N_10
REMARK    6  A    between atoms: C_11  and  C_13
REMARK                            x       y       z     vdW  Elec       q    Type
REMARK                         _______ _______ _______ _____ _____    ______ ____
ROOT
ATOM      1  C   UNL     1      50.259   7.369  15.215  0.00  0.00    +0.000 A 
ATOM      2  C   UNL     1      49.042   6.677  15.263  0.00  0.00    +0.000 A 
ATOM      3  C   UNL     1      48.101   6.814  14.235  0.00  0.00    +0.000 A 
ATOM      4  C   UNL     1      48.367   7.629  13.127  0.00  0.00    +0.000 A 
ATOM      5  C   UNL     1      49.583   8.324  13.083  0.00  0.00    +0.000 A 
ATOM      6  C   UNL     1      50.524   8.187  14.109  0.00  0.00    +0.000 A 
ENDROOT
BRANCH   1   7
ATOM      7  C   UNL     1      51.246   7.265  16.347  0.00  0.00    +0.000 C 
BRANCH   7  10
ATOM      8  O   UNL     1      50.260   5.537  18.294  0.00  0.00    +0.000 OA
ATOM      9  C   UNL     1      51.172   5.149  17.570  0.00  0.00    +0.000 C 
ATOM     10  N   UNL     1      51.728   5.927  16.575  0.00  0.00    +0.000 N 
ATOM     11  H   UNL     1      52.492   5.534  16.030  0.00  0.00    +0.000 HD
BRANCH   9  12
ATOM     12  C   UNL     1      51.752   3.775  17.731  0.00  0.00    +0.000 A 
ATOM     13  C   UNL     1      50.984   2.668  17.382  0.00  0.00    +0.000 A 
ATOM     14  C   UNL     1      51.538   1.402  17.537  0.00  0.00    +0.000 A 
ATOM     15  C   UNL     1      52.832   1.284  18.034  0.00  0.00    +0.000 A 
ATOM     16  C   UNL     1      53.524   2.444  18.354  0.00  0.00    +0.000 A 
ATOM     17  N   UNL     1      53.022   3.693  18.217  0.00  0.00    +0.000 NA
ENDBRANCH   9  12
ENDBRANCH   7  10
ENDBRANCH   1   7
BRANCH   4  18
ATOM     18  C   UNL     1      47.363   7.777  12.014  0.00  0.00    +0.000 C 
BRANCH  18  19
ATOM     19  N   UNL     1      46.720   6.527  11.696  0.00  0.00    +0.000 N 
ATOM     20  C   UNL     1      45.351   6.426  11.677  0.00  0.00    +0.000 C 
ATOM     21  O   UNL     1      44.627   7.398  11.883  0.00  0.00    +0.000 OA
ATOM     22  H   UNL     1      47.285   5.684  11.748  0.00  0.00    +0.000 HD
BRANCH  20  23
ATOM     23  C   UNL     1      44.784   5.115  11.338  0.00  0.00    +0.000 A 
ATOM     24  C   UNL     1      43.991   4.450  12.264  0.00  0.00    +0.000 A 
ATOM     25  S   UNL     1      43.372   2.965  11.699  0.00  0.00    +0.000 S 
ATOM     26  C   UNL     1      44.185   3.131  10.213  0.00  0.00    +0.000 A 
ATOM     27  N   UNL     1      44.099   2.167   9.259  0.00  0.00    +0.000 NA
ATOM     28  C   UNL     1      44.796   2.403   8.197  0.00  0.00    +0.000 A 
ATOM     29  N   UNL     1      45.565   3.521   8.003  0.00  0.00    +0.000 N 
ATOM     30  C   UNL     1      45.654   4.536   8.925  0.00  0.00    +0.000 A 
ATOM     31  O   UNL     1      46.316   5.547   8.700  0.00  0.00    +0.000 OA
ATOM     32  C   UNL     1      44.903   4.311  10.143  0.00  0.00    +0.000 A 
ATOM     33  H   UNL     1      46.080   3.651   7.145  0.00  0.00    +0.000 HD
ENDBRANCH  20  23
ENDBRANCH  18  19
ENDBRANCH   4  18
TORSDOF 6
ENDMDL
