MODEL 1
REMARK VINA RESULT:    -8.572      0.000      0.000
REMARK INTER + INTRA:         -13.588
REMARK INTER:                 -12.581
REMARK INTRA:                  -1.007
REMARK UNBOUND:                -1.007
REMARK  Name = 
REMARK  9 active torsions:
REMARK  status: ('A' for Active; 'I' for Inactive)
REMARK    1  A    between atoms: C_1  and  C_2
REMARK    2  A    between atoms: C_2  and  N_3
REMARK    3  A    between atoms: C_2  and  C_20
REMARK    4  A    between atoms: N_3  and  C_4
REMARK    5  A    between atoms: C_4  and  C_5
REMARK    6  A    between atoms: C_8  and  C_9
REMARK    7  A    between atoms: C_9  and  O_10
REMARK    8  A    between atoms: O_10  and  C_11
REMARK    9  A    between atoms: C_11  and  C_12
REMARK                            x       y       z     vdW  Elec       q    Type
REMARK                         _______ _______ _______ _____ _____    ______ ____
ROOT
ATOM      1  C   UNL     1      48.243   6.059  15.187  0.00  0.00    +0.000 C 
ENDROOT
BRANCH   1   2
ATOM      2  C   UNL     1      47.375   5.787  13.982  0.00  0.00    +0.000 A 
ATOM      3  C   UNL     1      47.511   6.575  12.831  0.00  0.00    +0.000 A 
ATOM      4  C   UNL     1      46.682   6.374  11.735  0.00  0.00    +0.000 A 
ATOM      5  C   UNL     1      45.718   5.361  11.764  0.00  0.00    +0.000 A 
ATOM      6  C   UNL     1      45.626   4.524  12.884  0.00  0.00    +0.000 A 
ATOM      7  C   UNL     1      46.434   4.750  13.994  0.00  0.00    +0.000 A 
BRANCH   5   8
ATOM      8  C   UNL     1      44.794   5.140  10.596  0.00  0.00    +0.000 C 
BRANCH   8   9
ATOM      9  O   UNL     1      45.509   4.874   9.393  0.00  0.00    +0.000 OA
BRANCH   9  10
ATOM     10  C   UNL     1      44.856   3.886   8.596  0.00  0.00    +0.000 C 
BRANCH  10  11
ATOM     11  C   UNL     1      45.873   2.963   7.983  0.00  0.00    +0.000 A 
ATOM     12  C   UNL     1      46.841   3.482   7.120  0.00  0.00    +0.000 A 
ATOM     13  C   UNL     1      47.779   2.617   6.579  0.00  0.00    +0.000 A 
ATOM     14  N   UNL     1      47.822   1.294   6.841  0.00  0.00    +0.000 NA
ATOM     15  C   UNL     1      46.884   0.816   7.686  0.00  0.00    +0.000 A 
ATOM     16  C   UNL     1      45.910   1.600   8.281  0.00  0.00    +0.000 A 
ENDBRANCH  10  11
ENDBRANCH   9  10
ENDBRANCH   8   9
ENDBRANCH   5   8
ENDBRANCH   1   2
BRANCH   1  17
ATOM     17  N   UNL     1      48.589   4.800  15.847  0.00  0.00    +0.000 NA
ATOM     18  H   UNL     1      47.972   4.061  15.507  0.00  0.00    +0.000 HD
BRANCH  17  20
ATOM     19  C   UNL     1      48.170   6.251  17.814  0.00  0.00    +0.000 C 
ATOM     20  C   UNL     1      48.534   4.844  17.311  0.00  0.00    +0.000 C 
BRANCH  20  21
ATOM     21  C   UNL     1      49.920   4.459  17.805  0.00  0.00    +0.000 A 
ATOM     22  C   UNL     1      50.698   5.322  18.570  0.00  0.00    +0.000 A 
ATOM     23  S   UNL     1      52.227   4.693  18.963  0.00  0.00    +0.000 S 
ATOM     24  C   UNL     1      51.891   3.232  18.158  0.00  0.00    +0.000 A 
ATOM     25  N   UNL     1      52.828   2.243  18.129  0.00  0.00    +0.000 NA
ATOM     26  C   UNL     1      52.444   1.165  17.534  0.00  0.00    +0.000 A 
ATOM     27  N   UNL     1      51.213   0.990  16.962  0.00  0.00    +0.000 N 
ATOM     28  C   UNL     1      50.277   1.997  16.880  0.00  0.00    +0.000 A 
ATOM     29  O   UNL     1      49.244   1.837  16.217  0.00  0.00    +0.000 OA
ATOM     30  C   UNL     1      50.633   3.216  17.587  0.00  0.00    +0.000 A 
ATOM     31  H   UNL     1      50.980   0.129  16.487  0.00  0.00    +0.000 HD
ENDBRANCH  20  21
ENDBRANCH  17  20
ENDBRANCH   1  17
TORSDOF 8
ENDMDL
MODEL 2
REMARK VINA RESULT:    -7.766      1.704      2.102
REMARK INTER + INTRA:         -12.405
REMARK INTER:                 -11.018
REMARK INTRA:                  -1.388
REMARK UNBOUND:                -1.007
REMARK  Name = 
REMARK  9 active torsions:
REMARK  status: ('A' for Active; 'I' for Inactive)
REMARK    1  A    between atoms: C_1  and  C_2
REMARK    2  A    between atoms: C_2  and  N_3
REMARK    3  A    between atoms: C_2  and  C_20
REMARK    4  A    between atoms: N_3  and  C_4
REMARK    5  A    between atoms: C_4  and  C_5
REMARK    6  A    between atoms: C_8  and  C_9
REMARK    7  A    between atoms: C_9  and  O_10
REMARK    8  A    between atoms: O_10  and  C_11
REMARK    9  A    between atoms: C_11  and  C_12
REMARK                            x       y       z     vdW  Elec       q    Type
REMARK                         _______ _______ _______ _____ _____    ______ ____
ROOT
ATOM      1  C   UNL     1      48.219   6.559  13.556  0.00  0.00    +0.000 C 
ENDROOT
BRANCH   1   2
ATOM      2  C   UNL     1      47.063   5.886  12.855  0.00  0.00    +0.000 A 
ATOM      3  C   UNL     1      46.626   6.364  11.612  0.00  0.00    +0.000 A 
ATOM      4  C   UNL     1      45.530   5.792  10.981  0.00  0.00    +0.000 A 
ATOM      5  C   UNL     1      44.866   4.713  11.574  0.00  0.00    +0.000 A 
ATOM      6  C   UNL     1      45.341   4.186  12.782  0.00  0.00    +0.000 A 
ATOM      7  C   UNL     1      46.419   4.783  13.429  0.00  0.00    +0.000 A 
BRANCH   5   8
ATOM      8  C   UNL     1      43.661   4.093  10.918  0.00  0.00    +0.000 C 
BRANCH   8   9
ATOM      9  O   UNL     1      43.929   3.696   9.576  0.00  0.00    +0.000 OA
BRANCH   9  10
ATOM     10  C   UNL     1      44.587   2.431   9.519  0.00  0.00    +0.000 C 
BRANCH  10  11
ATOM     11  C   UNL     1      45.639   2.444   8.445  0.00  0.00    +0.000 A 
ATOM     12  C   UNL     1      45.941   3.641   7.792  0.00  0.00    +0.000 A 
ATOM     13  C   UNL     1      46.926   3.636   6.818  0.00  0.00    +0.000 A 
ATOM     14  N   UNL     1      47.624   2.538   6.460  0.00  0.00    +0.000 NA
ATOM     15  C   UNL     1      47.325   1.394   7.112  0.00  0.00    +0.000 A 
ATOM     16  C   UNL     1      46.362   1.300   8.103  0.00  0.00    +0.000 A 
ENDBRANCH  10  11
ENDBRANCH   9  10
ENDBRANCH   8   9
ENDBRANCH   5   8
ENDBRANCH   1   2
BRANCH   1  17
ATOM     17  N   UNL     1      48.273   6.128  14.953  0.00  0.00    +0.000 NA
ATOM     18  H   UNL     1      47.338   5.856  15.259  0.00  0.00    +0.000 HD
BRANCH  17  20
ATOM     19  C   UNL     1      48.860   8.522  15.231  0.00  0.00    +0.000 C 
ATOM     20  C   UNL     1      48.815   7.128  15.879  0.00  0.00    +0.000 C 
BRANCH  20  21
ATOM     21  C   UNL     1      50.224   6.672  16.227  0.00  0.00    +0.000 A 
ATOM     22  C   UNL     1      51.351   7.366  15.799  0.00  0.00    +0.000 A 
ATOM     23  S   UNL     1      52.815   6.642  16.268  0.00  0.00    +0.000 S 
ATOM     24  C   UNL     1      51.996   5.397  17.091  0.00  0.00    +0.000 A 
ATOM     25  N   UNL     1      52.707   4.425  17.730  0.00  0.00    +0.000 NA
ATOM     26  C   UNL     1      51.981   3.566  18.360  0.00  0.00    +0.000 A 
ATOM     27  N   UNL     1      50.614   3.587  18.404  0.00  0.00    +0.000 N 
ATOM     28  C   UNL     1      49.856   4.490  17.691  0.00  0.00    +0.000 A 
ATOM     29  O   UNL     1      48.626   4.370  17.640  0.00  0.00    +0.000 OA
ATOM     30  C   UNL     1      50.623   5.520  17.010  0.00  0.00    +0.000 A 
ATOM     31  H   UNL     1      50.100   2.868  18.896  0.00  0.00    +0.000 HD
ENDBRANCH  20  21
ENDBRANCH  17  20
ENDBRANCH   1  17
TORSDOF 8
ENDMDL
MODEL 3
REMARK VINA RESULT:    -7.464      2.486      3.259
REMARK INTER + INTRA:         -11.962
REMARK INTER:                 -11.178
REMARK INTRA:                  -0.784
REMARK UNBOUND:                -1.007
REMARK  Name = 
REMARK  9 active torsions:
REMARK  status: ('A' for Active; 'I' for Inactive)
REMARK    1  A    between atoms: C_1  and  C_2
REMARK    2  A    between atoms: C_2  and  N_3
REMARK    3  A    between atoms: C_2  and  C_20
REMARK    4  A    between atoms: N_3  and  C_4
REMARK    5  A    between atoms: C_4  and  C_5
REMARK    6  A    between atoms: C_8  and  C_9
REMARK    7  A    between atoms: C_9  and  O_10
REMARK    8  A    between atoms: O_10  and  C_11
REMARK    9  A    between atoms: C_11  and  C_12
REMARK                            x       y       z     vdW  Elec       q    Type
REMARK                         _______ _______ _______ _____ _____    ______ ____
ROOT
ATOM      1  C   UNL     1      47.535   7.381  13.236  0.00  0.00    +0.000 C 
ENDROOT
BRANCH   1   2
ATOM      2  C   UNL     1      46.535   6.393  12.685  0.00  0.00    +0.000 A 
ATOM      3  C   UNL     1      46.265   5.209  13.386  0.00  0.00    +0.000 A 
ATOM      4  C   UNL     1      45.390   4.265  12.866  0.00  0.00    +0.000 A 
ATOM      5  C   UNL     1      44.751   4.501  11.645  0.00  0.00    +0.000 A 
ATOM      6  C   UNL     1      44.962   5.713  10.975  0.00  0.00    +0.000 A 
ATOM      7  C   UNL     1      45.866   6.643  11.482  0.00  0.00    +0.000 A 
BRANCH   5   8
ATOM      8  C   UNL     1      43.816   3.481  11.052  0.00  0.00    +0.000 C 
BRANCH   8   9
ATOM      9  O   UNL     1      44.473   2.639  10.109  0.00  0.00    +0.000 OA
BRANCH   9  10
ATOM     10  C   UNL     1      44.646   3.289   8.849  0.00  0.00    +0.000 C 
BRANCH  10  11
ATOM     11  C   UNL     1      45.801   2.676   8.107  0.00  0.00    +0.000 A 
ATOM     12  C   UNL     1      46.062   1.311   8.246  0.00  0.00    +0.000 A 
ATOM     13  C   UNL     1      47.121   0.763   7.539  0.00  0.00    +0.000 A 
ATOM     14  N   UNL     1      47.919   1.468   6.712  0.00  0.00    +0.000 NA
ATOM     15  C   UNL     1      47.641   2.783   6.583  0.00  0.00    +0.000 A 
ATOM     16  C   UNL     1      46.603   3.421   7.242  0.00  0.00    +0.000 A 
ENDBRANCH  10  11
ENDBRANCH   9  10
ENDBRANCH   8   9
ENDBRANCH   5   8
ENDBRANCH   1   2
BRANCH   1  17
ATOM     17  N   UNL     1      47.751   7.131  14.661  0.00  0.00    +0.000 NA
ATOM     18  H   UNL     1      46.888   7.322  15.171  0.00  0.00    +0.000 HD
BRANCH  17  20
ATOM     19  C   UNL     1      50.215   7.394  14.767  0.00  0.00    +0.000 C 
ATOM     20  C   UNL     1      48.848   7.901  15.256  0.00  0.00    +0.000 C 
BRANCH  20  21
ATOM     21  C   UNL     1      48.735   7.715  16.761  0.00  0.00    +0.000 A 
ATOM     22  C   UNL     1      48.747   8.792  17.641  0.00  0.00    +0.000 A 
ATOM     23  S   UNL     1      48.656   8.338  19.276  0.00  0.00    +0.000 S 
ATOM     24  C   UNL     1      48.559   6.689  18.867  0.00  0.00    +0.000 A 
ATOM     25  N   UNL     1      48.456   5.751  19.850  0.00  0.00    +0.000 NA
ATOM     26  C   UNL     1      48.338   4.542  19.419  0.00  0.00    +0.000 A 
ATOM     27  N   UNL     1      48.320   4.186  18.098  0.00  0.00    +0.000 N 
ATOM     28  C   UNL     1      48.522   5.089  17.077  0.00  0.00    +0.000 A 
ATOM     29  O   UNL     1      48.651   4.695  15.912  0.00  0.00    +0.000 OA
ATOM     30  C   UNL     1      48.600   6.477  17.502  0.00  0.00    +0.000 A 
ATOM     31  H   UNL     1      48.250   3.215  17.823  0.00  0.00    +0.000 HD
ENDBRANCH  20  21
ENDBRANCH  17  20
ENDBRANCH   1  17
TORSDOF 8
ENDMDL
MODEL 4
REMARK VINA RESULT:    -7.336      2.403      4.024
REMARK INTER + INTRA:         -11.775
REMARK INTER:                 -10.643
REMARK INTRA:                  -1.131
REMARK UNBOUND:                -1.007
REMARK  Name = 
REMARK  9 active torsions:
REMARK  status: ('A' for Active; 'I' for Inactive)
REMARK    1  A    between atoms: C_1  and  C_2
REMARK    2  A    between atoms: C_2  and  N_3
REMARK    3  A    between atoms: C_2  and  C_20
REMARK    4  A    between atoms: N_3  and  C_4
REMARK    5  A    between atoms: C_4  and  C_5
REMARK    6  A    between atoms: C_8  and  C_9
REMARK    7  A    between atoms: C_9  and  O_10
REMARK    8  A    between atoms: O_10  and  C_11
REMARK    9  A    between atoms: C_11  and  C_12
REMARK                            x       y       z     vdW  Elec       q    Type
REMARK                         _______ _______ _______ _____ _____    ______ ____
ROOT
ATOM      1  C   UNL     1      47.280   4.465  15.709  0.00  0.00    +0.000 C 
ENDROOT
BRANCH   1   2
ATOM      2  C   UNL     1      46.799   4.628  14.287  0.00  0.00    +0.000 A 
ATOM      3  C   UNL     1      46.999   5.844  13.617  0.00  0.00    +0.000 A 
ATOM      4  C   UNL     1      46.514   6.029  12.330  0.00  0.00    +0.000 A 
ATOM      5  C   UNL     1      45.840   4.989  11.680  0.00  0.00    +0.000 A 
ATOM      6  C   UNL     1      45.699   3.749  12.317  0.00  0.00    +0.000 A 
ATOM      7  C   UNL     1      46.156   3.578  13.621  0.00  0.00    +0.000 A 
BRANCH   5   8
ATOM      8  C   UNL     1      45.286   5.176  10.293  0.00  0.00    +0.000 C 
BRANCH   8   9
ATOM      9  O   UNL     1      44.693   3.983   9.789  0.00  0.00    +0.000 OA
BRANCH   9  10
ATOM     10  C   UNL     1      44.689   3.955   8.362  0.00  0.00    +0.000 C 
BRANCH  10  11
ATOM     11  C   UNL     1      45.787   3.058   7.861  0.00  0.00    +0.000 A 
ATOM     12  C   UNL     1      45.833   1.726   8.279  0.00  0.00    +0.000 A 
ATOM     13  C   UNL     1      46.843   0.912   7.791  0.00  0.00    +0.000 A 
ATOM     14  N   UNL     1      47.790   1.326   6.924  0.00  0.00    +0.000 NA
ATOM     15  C   UNL     1      47.720   2.613   6.523  0.00  0.00    +0.000 A 
ATOM     16  C   UNL     1      46.747   3.502   6.949  0.00  0.00    +0.000 A 
ENDBRANCH  10  11
ENDBRANCH   9  10
ENDBRANCH   8   9
ENDBRANCH   5   8
ENDBRANCH   1   2
BRANCH   1  17
ATOM     17  N   UNL     1      48.562   5.147  15.883  0.00  0.00    +0.000 NA
ATOM     18  H   UNL     1      49.168   4.934  15.089  0.00  0.00    +0.000 HD
BRANCH  17  20
ATOM     19  C   UNL     1      49.110   3.333  17.483  0.00  0.00    +0.000 C 
ATOM     20  C   UNL     1      49.262   4.822  17.130  0.00  0.00    +0.000 C 
BRANCH  20  21
ATOM     21  C   UNL     1      48.627   5.680  18.214  0.00  0.00    +0.000 A 
ATOM     22  C   UNL     1      48.202   5.144  19.425  0.00  0.00    +0.000 A 
ATOM     23  S   UNL     1      47.482   6.284  20.459  0.00  0.00    +0.000 S 
ATOM     24  C   UNL     1      47.745   7.541  19.343  0.00  0.00    +0.000 A 
ATOM     25  N   UNL     1      47.345   8.809  19.642  0.00  0.00    +0.000 NA
ATOM     26  C   UNL     1      47.642   9.685  18.743  0.00  0.00    +0.000 A 
ATOM     27  N   UNL     1      48.295   9.407  17.574  0.00  0.00    +0.000 N 
ATOM     28  C   UNL     1      48.626   8.127  17.187  0.00  0.00    +0.000 A 
ATOM     29  O   UNL     1      49.074   7.913  16.054  0.00  0.00    +0.000 OA
ATOM     30  C   UNL     1      48.369   7.106  18.190  0.00  0.00    +0.000 A 
ATOM     31  H   UNL     1      48.477  10.135  16.896  0.00  0.00    +0.000 HD
ENDBRANCH  20  21
ENDBRANCH  17  20
ENDBRANCH   1  17
TORSDOF 8
ENDMDL
MODEL 5
REMARK VINA RESULT:    -7.275      3.067      8.683
REMARK INTER + INTRA:         -11.685
REMARK INTER:                 -10.301
REMARK INTRA:                  -1.384
REMARK UNBOUND:                -1.007
REMARK  Name = 
REMARK  9 active torsions:
REMARK  status: ('A' for Active; 'I' for Inactive)
REMARK    1  A    between atoms: C_1  and  C_2
REMARK    2  A    between atoms: C_2  and  N_3
REMARK    3  A    between atoms: C_2  and  C_20
REMARK    4  A    between atoms: N_3  and  C_4
REMARK    5  A    between atoms: C_4  and  C_5
REMARK    6  A    between atoms: C_8  and  C_9
REMARK    7  A    between atoms: C_9  and  O_10
REMARK    8  A    between atoms: O_10  and  C_11
REMARK    9  A    between atoms: C_11  and  C_12
REMARK                            x       y       z     vdW  Elec       q    Type
REMARK                         _______ _______ _______ _____ _____    ______ ____
ROOT
ATOM      1  C   UNL     1      48.093   7.918  12.006  0.00  0.00    +0.000 C 
ENDROOT
BRANCH   1   2
ATOM      2  C   UNL     1      48.802   7.629  13.307  0.00  0.00    +0.000 A 
ATOM      3  C   UNL     1      50.097   8.122  13.522  0.00  0.00    +0.000 A 
ATOM      4  C   UNL     1      50.784   7.818  14.689  0.00  0.00    +0.000 A 
ATOM      5  C   UNL     1      50.176   7.033  15.674  0.00  0.00    +0.000 A 
ATOM      6  C   UNL     1      48.857   6.596  15.496  0.00  0.00    +0.000 A 
ATOM      7  C   UNL     1      48.183   6.874  14.310  0.00  0.00    +0.000 A 
BRANCH   5   8
ATOM      8  C   UNL     1      50.912   6.672  16.937  0.00  0.00    +0.000 C 
BRANCH   8   9
ATOM      9  O   UNL     1      50.022   6.319  17.991  0.00  0.00    +0.000 OA
BRANCH   9  10
ATOM     10  C   UNL     1      50.440   5.130  18.662  0.00  0.00    +0.000 C 
BRANCH  10  11
ATOM     11  C   UNL     1      50.086   3.923  17.840  0.00  0.00    +0.000 A 
ATOM     12  C   UNL     1      51.061   2.958  17.578  0.00  0.00    +0.000 A 
ATOM     13  C   UNL     1      50.709   1.844  16.833  0.00  0.00    +0.000 A 
ATOM     14  N   UNL     1      49.471   1.626  16.345  0.00  0.00    +0.000 NA
ATOM     15  C   UNL     1      48.540   2.565  16.619  0.00  0.00    +0.000 A 
ATOM     16  C   UNL     1      48.792   3.708  17.359  0.00  0.00    +0.000 A 
ENDBRANCH  10  11
ENDBRANCH   9  10
ENDBRANCH   8   9
ENDBRANCH   5   8
ENDBRANCH   1   2
BRANCH   1  17
ATOM     17  N   UNL     1      47.233   6.791  11.645  0.00  0.00    +0.000 NA
ATOM     18  H   UNL     1      47.588   6.356  10.792  0.00  0.00    +0.000 HD
BRANCH  17  20
ATOM     19  C   UNL     1      45.337   8.108  12.552  0.00  0.00    +0.000 C 
ATOM     20  C   UNL     1      45.820   7.135  11.463  0.00  0.00    +0.000 C 
BRANCH  20  21
ATOM     21  C   UNL     1      45.045   5.829  11.554  0.00  0.00    +0.000 A 
ATOM     22  C   UNL     1      44.303   5.488  12.680  0.00  0.00    +0.000 A 
ATOM     23  S   UNL     1      43.564   3.962  12.572  0.00  0.00    +0.000 S 
ATOM     24  C   UNL     1      44.177   3.718  11.002  0.00  0.00    +0.000 A 
ATOM     25  N   UNL     1      43.892   2.565  10.334  0.00  0.00    +0.000 NA
ATOM     26  C   UNL     1      44.368   2.514   9.137  0.00  0.00    +0.000 A 
ATOM     27  N   UNL     1      45.105   3.507   8.552  0.00  0.00    +0.000 N 
ATOM     28  C   UNL     1      45.501   4.641   9.225  0.00  0.00    +0.000 A 
ATOM     29  O   UNL     1      46.295   5.433   8.702  0.00  0.00    +0.000 OA
ATOM     30  C   UNL     1      44.942   4.779  10.560  0.00  0.00    +0.000 A 
ATOM     31  H   UNL     1      45.473   3.396   7.616  0.00  0.00    +0.000 HD
ENDBRANCH  20  21
ENDBRANCH  17  20
ENDBRANCH   1  17
TORSDOF 8
ENDMDL
MODEL 6
REMARK VINA RESULT:    -6.875      3.930      8.577
REMARK INTER + INTRA:         -11.097
REMARK INTER:                  -9.589
REMARK INTRA:                  -1.509
REMARK UNBOUND:                -1.007
REMARK  Name = 
REMARK  9 active torsions:
REMARK  status: ('A' for Active; 'I' for Inactive)
REMARK    1  A    between atoms: C_1  and  C_2
REMARK    2  A    between atoms: C_2  and  N_3
REMARK    3  A    between atoms: C_2  and  C_20
REMARK    4  A    between atoms: N_3  and  C_4
REMARK    5  A    between atoms: C_4  and  C_5
REMARK    6  A    between atoms: C_8  and  C_9
REMARK    7  A    between atoms: C_9  and  O_10
REMARK    8  A    between atoms: O_10  and  C_11
REMARK    9  A    between atoms: C_11  and  C_12
REMARK                            x       y       z     vdW  Elec       q    Type
REMARK                         _______ _______ _______ _____ _____    ______ ____
ROOT
ATOM      1  C   UNL     1      47.942   8.774  13.917  0.00  0.00    +0.000 C 
ENDROOT
BRANCH   1   2
ATOM      2  C   UNL     1      48.679   8.246  15.125  0.00  0.00    +0.000 A 
ATOM      3  C   UNL     1      48.257   8.606  16.413  0.00  0.00    +0.000 A 
ATOM      4  C   UNL     1      48.957   8.174  17.532  0.00  0.00    +0.000 A 
ATOM      5  C   UNL     1      50.079   7.353  17.380  0.00  0.00    +0.000 A 
ATOM      6  C   UNL     1      50.463   6.932  16.101  0.00  0.00    +0.000 A 
ATOM      7  C   UNL     1      49.780   7.395  14.979  0.00  0.00    +0.000 A 
BRANCH   5   8
ATOM      8  C   UNL     1      50.866   6.892  18.579  0.00  0.00    +0.000 C 
BRANCH   8   9
ATOM      9  O   UNL     1      50.253   5.780  19.224  0.00  0.00    +0.000 OA
BRANCH   9  10
ATOM     10  C   UNL     1      51.040   4.596  19.100  0.00  0.00    +0.000 C 
BRANCH  10  11
ATOM     11  C   UNL     1      50.395   3.647  18.128  0.00  0.00    +0.000 A 
ATOM     12  C   UNL     1      49.061   3.840  17.760  0.00  0.00    +0.000 A 
ATOM     13  C   UNL     1      48.491   2.965  16.850  0.00  0.00    +0.000 A 
ATOM     14  N   UNL     1      49.149   1.932  16.286  0.00  0.00    +0.000 NA
ATOM     15  C   UNL     1      50.440   1.770  16.646  0.00  0.00    +0.000 A 
ATOM     16  C   UNL     1      51.100   2.594  17.542  0.00  0.00    +0.000 A 
ENDBRANCH  10  11
ENDBRANCH   9  10
ENDBRANCH   8   9
ENDBRANCH   5   8
ENDBRANCH   1   2
BRANCH   1  17
ATOM     17  N   UNL     1      46.755   7.959  13.663  0.00  0.00    +0.000 NA
ATOM     18  H   UNL     1      46.334   7.688  14.553  0.00  0.00    +0.000 HD
BRANCH  17  20
ATOM     19  C   UNL     1      47.988   7.048  11.713  0.00  0.00    +0.000 C 
ATOM     20  C   UNL     1      46.999   6.760  12.856  0.00  0.00    +0.000 C 
BRANCH  20  21
ATOM     21  C   UNL     1      45.652   6.345  12.284  0.00  0.00    +0.000 A 
ATOM     22  C   UNL     1      44.792   7.258  11.683  0.00  0.00    +0.000 A 
ATOM     23  S   UNL     1      43.327   6.574  11.163  0.00  0.00    +0.000 S 
ATOM     24  C   UNL     1      43.802   5.026  11.688  0.00  0.00    +0.000 A 
ATOM     25  N   UNL     1      42.963   3.965  11.522  0.00  0.00    +0.000 NA
ATOM     26  C   UNL     1      43.451   2.837  11.912  0.00  0.00    +0.000 A 
ATOM     27  N   UNL     1      44.695   2.675  12.455  0.00  0.00    +0.000 N 
ATOM     28  C   UNL     1      45.534   3.732  12.733  0.00  0.00    +0.000 A 
ATOM     29  O   UNL     1      46.581   3.549  13.366  0.00  0.00    +0.000 OA
ATOM     30  C   UNL     1      45.060   5.022  12.259  0.00  0.00    +0.000 A 
ATOM     31  H   UNL     1      45.011   1.766  12.765  0.00  0.00    +0.000 HD
ENDBRANCH  20  21
ENDBRANCH  17  20
ENDBRANCH   1  17
TORSDOF 8
ENDMDL
MODEL 7
REMARK VINA RESULT:    -6.795      3.892      4.786
REMARK INTER + INTRA:         -10.980
REMARK INTER:                  -9.943
REMARK INTRA:                  -1.037
REMARK UNBOUND:                -1.007
REMARK  Name = 
REMARK  9 active torsions:
REMARK  status: ('A' for Active; 'I' for Inactive)
REMARK    1  A    between atoms: C_1  and  C_2
REMARK    2  A    between atoms: C_2  and  N_3
REMARK    3  A    between atoms: C_2  and  C_20
REMARK    4  A    between atoms: N_3  and  C_4
REMARK    5  A    between atoms: C_4  and  C_5
REMARK    6  A    between atoms: C_8  and  C_9
REMARK    7  A    between atoms: C_9  and  O_10
REMARK    8  A    between atoms: O_10  and  C_11
REMARK    9  A    between atoms: C_11  and  C_12
REMARK                            x       y       z     vdW  Elec       q    Type
REMARK                         _______ _______ _______ _____ _____    ______ ____
ROOT
ATOM      1  C   UNL     1      48.450   6.621  14.731  0.00  0.00    +0.000 C 
ENDROOT
BRANCH   1   2
ATOM      2  C   UNL     1      47.456   6.258  13.654  0.00  0.00    +0.000 A 
ATOM      3  C   UNL     1      46.747   5.051  13.738  0.00  0.00    +0.000 A 
ATOM      4  C   UNL     1      45.871   4.676  12.728  0.00  0.00    +0.000 A 
ATOM      5  C   UNL     1      45.672   5.516  11.627  0.00  0.00    +0.000 A 
ATOM      6  C   UNL     1      46.324   6.754  11.573  0.00  0.00    +0.000 A 
ATOM      7  C   UNL     1      47.228   7.112  12.570  0.00  0.00    +0.000 A 
BRANCH   5   8
ATOM      8  C   UNL     1      44.744   5.118  10.510  0.00  0.00    +0.000 C 
BRANCH   8   9
ATOM      9  O   UNL     1      45.024   3.808  10.025  0.00  0.00    +0.000 OA
BRANCH   9  10
ATOM     10  C   UNL     1      44.788   3.700   8.621  0.00  0.00    +0.000 C 
BRANCH  10  11
ATOM     11  C   UNL     1      45.866   2.872   7.979  0.00  0.00    +0.000 A 
ATOM     12  C   UNL     1      45.962   1.512   8.282  0.00  0.00    +0.000 A 
ATOM     13  C   UNL     1      46.951   0.763   7.666  0.00  0.00    +0.000 A 
ATOM     14  N   UNL     1      47.832   1.266   6.777  0.00  0.00    +0.000 NA
ATOM     15  C   UNL     1      47.714   2.580   6.489  0.00  0.00    +0.000 A 
ATOM     16  C   UNL     1      46.756   3.409   7.047  0.00  0.00    +0.000 A 
ENDBRANCH  10  11
ENDBRANCH   9  10
ENDBRANCH   8   9
ENDBRANCH   5   8
ENDBRANCH   1   2
BRANCH   1  17
ATOM     17  N   UNL     1      48.040   7.861  15.390  0.00  0.00    +0.000 NA
ATOM     18  H   UNL     1      47.409   8.377  14.775  0.00  0.00    +0.000 HD
BRANCH  17  20
ATOM     19  C   UNL     1      48.636   9.980  16.534  0.00  0.00    +0.000 C 
ATOM     20  C   UNL     1      49.148   8.734  15.792  0.00  0.00    +0.000 C 
BRANCH  20  21
ATOM     21  C   UNL     1      49.854   9.148  14.510  0.00  0.00    +0.000 A 
ATOM     22  C   UNL     1      49.276  10.022  13.597  0.00  0.00    +0.000 A 
ATOM     23  S   UNL     1      50.231  10.299  12.219  0.00  0.00    +0.000 S 
ATOM     24  C   UNL     1      51.468   9.290  12.809  0.00  0.00    +0.000 A 
ATOM     25  N   UNL     1      52.600   9.104  12.074  0.00  0.00    +0.000 NA
ATOM     26  C   UNL     1      53.486   8.361  12.644  0.00  0.00    +0.000 A 
ATOM     27  N   UNL     1      53.341   7.785  13.877  0.00  0.00    +0.000 N 
ATOM     28  C   UNL     1      52.176   7.864  14.607  0.00  0.00    +0.000 A 
ATOM     29  O   UNL     1      52.040   7.198  15.640  0.00  0.00    +0.000 OA
ATOM     30  C   UNL     1      51.163   8.740  14.039  0.00  0.00    +0.000 A 
ATOM     31  H   UNL     1      54.064   7.190  14.260  0.00  0.00    +0.000 HD
ENDBRANCH  20  21
ENDBRANCH  17  20
ENDBRANCH   1  17
TORSDOF 8
ENDMDL
MODEL 8
REMARK VINA RESULT:    -6.755      4.074      5.103
REMARK INTER + INTRA:         -10.921
REMARK INTER:                  -9.769
REMARK INTRA:                  -1.152
REMARK UNBOUND:                -1.007
REMARK  Name = 
REMARK  9 active torsions:
REMARK  status: ('A' for Active; 'I' for Inactive)
REMARK    1  A    between atoms: C_1  and  C_2
REMARK    2  A    between atoms: C_2  and  N_3
REMARK    3  A    between atoms: C_2  and  C_20
REMARK    4  A    between atoms: N_3  and  C_4
REMARK    5  A    between atoms: C_4  and  C_5
REMARK    6  A    between atoms: C_8  and  C_9
REMARK    7  A    between atoms: C_9  and  O_10
REMARK    8  A    between atoms: O_10  and  C_11
REMARK    9  A    between atoms: C_11  and  C_12
REMARK                            x       y       z     vdW  Elec       q    Type
REMARK                         _______ _______ _______ _____ _____    ______ ____
ROOT
ATOM      1  C   UNL     1      47.071   7.775  13.431  0.00  0.00    +0.000 C 
ENDROOT
BRANCH   1   2
ATOM      2  C   UNL     1      46.250   6.704  12.754  0.00  0.00    +0.000 A 
ATOM      3  C   UNL     1      45.421   7.038  11.674  0.00  0.00    +0.000 A 
ATOM      4  C   UNL     1      44.618   6.076  11.076  0.00  0.00    +0.000 A 
ATOM      5  C   UNL     1      44.648   4.755  11.536  0.00  0.00    +0.000 A 
ATOM      6  C   UNL     1      45.526   4.401  12.569  0.00  0.00    +0.000 A 
ATOM      7  C   UNL     1      46.305   5.374  13.188  0.00  0.00    +0.000 A 
BRANCH   5   8
ATOM      8  C   UNL     1      43.768   3.702  10.918  0.00  0.00    +0.000 C 
BRANCH   8   9
ATOM      9  O   UNL     1      44.508   2.802  10.098  0.00  0.00    +0.000 OA
BRANCH   9  10
ATOM     10  C   UNL     1      44.608   3.269   8.753  0.00  0.00    +0.000 C 
BRANCH  10  11
ATOM     11  C   UNL     1      45.767   2.607   8.062  0.00  0.00    +0.000 A 
ATOM     12  C   UNL     1      46.660   3.382   7.318  0.00  0.00    +0.000 A 
ATOM     13  C   UNL     1      47.731   2.755   6.703  0.00  0.00    +0.000 A 
ATOM     14  N   UNL     1      47.974   1.430   6.783  0.00  0.00    +0.000 NA
ATOM     15  C   UNL     1      47.106   0.701   7.517  0.00  0.00    +0.000 A 
ATOM     16  C   UNL     1      46.010   1.237   8.173  0.00  0.00    +0.000 A 
ENDBRANCH  10  11
ENDBRANCH   9  10
ENDBRANCH   8   9
ENDBRANCH   5   8
ENDBRANCH   1   2
BRANCH   1  17
ATOM     17  N   UNL     1      48.446   7.739  12.932  0.00  0.00    +0.000 NA
ATOM     18  H   UNL     1      48.491   7.132  12.111  0.00  0.00    +0.000 HD
BRANCH  17  20
ATOM     19  C   UNL     1      48.823   7.177  15.318  0.00  0.00    +0.000 C 
ATOM     20  C   UNL     1      49.441   7.300  13.915  0.00  0.00    +0.000 C 
BRANCH  20  21
ATOM     21  C   UNL     1      50.534   8.358  13.921  0.00  0.00    +0.000 A 
ATOM     22  C   UNL     1      50.826   9.113  15.052  0.00  0.00    +0.000 A 
ATOM     23  S   UNL     1      52.050  10.264  14.806  0.00  0.00    +0.000 S 
ATOM     24  C   UNL     1      52.261   9.772  13.190  0.00  0.00    +0.000 A 
ATOM     25  N   UNL     1      53.194  10.387  12.410  0.00  0.00    +0.000 NA
ATOM     26  C   UNL     1      53.299   9.896  11.222  0.00  0.00    +0.000 A 
ATOM     27  N   UNL     1      52.552   8.854  10.744  0.00  0.00    +0.000 N 
ATOM     28  C   UNL     1      51.531   8.273  11.463  0.00  0.00    +0.000 A 
ATOM     29  O   UNL     1      50.786   7.443  10.929  0.00  0.00    +0.000 OA
ATOM     30  C   UNL     1      51.408   8.746  12.832  0.00  0.00    +0.000 A 
ATOM     31  H   UNL     1      52.663   8.531   9.792  0.00  0.00    +0.000 HD
ENDBRANCH  20  21
ENDBRANCH  17  20
ENDBRANCH   1  17
TORSDOF 8
ENDMDL
MODEL 9
REMARK VINA RESULT:    -6.414      5.541      8.414
REMARK INTER + INTRA:         -10.422
REMARK INTER:                  -9.109
REMARK INTRA:                  -1.313
REMARK UNBOUND:                -1.007
REMARK  Name = 
REMARK  9 active torsions:
REMARK  status: ('A' for Active; 'I' for Inactive)
REMARK    1  A    between atoms: C_1  and  C_2
REMARK    2  A    between atoms: C_2  and  N_3
REMARK    3  A    between atoms: C_2  and  C_20
REMARK    4  A    between atoms: N_3  and  C_4
REMARK    5  A    between atoms: C_4  and  C_5
REMARK    6  A    between atoms: C_8  and  C_9
REMARK    7  A    between atoms: C_9  and  O_10
REMARK    8  A    between atoms: O_10  and  C_11
REMARK    9  A    between atoms: C_11  and  C_12
REMARK                            x       y       z     vdW  Elec       q    Type
REMARK                         _______ _______ _______ _____ _____    ______ ____
ROOT
ATOM      1  C   UNL     1      47.452   7.123  12.514  0.00  0.00    +0.000 C 
ENDROOT
BRANCH   1   2
ATOM      2  C   UNL     1      48.585   8.028  12.093  0.00  0.00    +0.000 A 
ATOM      3  C   UNL     1      48.369   9.409  11.980  0.00  0.00    +0.000 A 
ATOM      4  C   UNL     1      49.384  10.248  11.540  0.00  0.00    +0.000 A 
ATOM      5  C   UNL     1      50.642   9.721  11.229  0.00  0.00    +0.000 A 
ATOM      6  C   UNL     1      50.883   8.353  11.407  0.00  0.00    +0.000 A 
ATOM      7  C   UNL     1      49.854   7.509  11.815  0.00  0.00    +0.000 A 
BRANCH   5   8
ATOM      8  C   UNL     1      51.749  10.610  10.728  0.00  0.00    +0.000 C 
BRANCH   8   9
ATOM      9  O   UNL     1      51.921  10.507   9.318  0.00  0.00    +0.000 OA
BRANCH   9  10
ATOM     10  C   UNL     1      53.239  10.081   8.974  0.00  0.00    +0.000 C 
BRANCH  10  11
ATOM     11  C   UNL     1      53.174   8.909   8.034  0.00  0.00    +0.000 A 
ATOM     12  C   UNL     1      53.510   9.085   6.690  0.00  0.00    +0.000 A 
ATOM     13  C   UNL     1      53.460   7.989   5.844  0.00  0.00    +0.000 A 
ATOM     14  N   UNL     1      53.112   6.748   6.242  0.00  0.00    +0.000 NA
ATOM     15  C   UNL     1      52.804   6.597   7.547  0.00  0.00    +0.000 A 
ATOM     16  C   UNL     1      52.829   7.629   8.471  0.00  0.00    +0.000 A 
ENDBRANCH  10  11
ENDBRANCH   9  10
ENDBRANCH   8   9
ENDBRANCH   5   8
ENDBRANCH   1   2
BRANCH   1  17
ATOM     17  N   UNL     1      46.805   6.552  11.333  0.00  0.00    +0.000 NA
ATOM     18  H   UNL     1      47.220   6.957  10.492  0.00  0.00    +0.000 HD
BRANCH  17  20
ATOM     19  C   UNL     1      44.840   7.468  12.538  0.00  0.00    +0.000 C 
ATOM     20  C   UNL     1      45.350   6.729  11.290  0.00  0.00    +0.000 C 
BRANCH  20  21
ATOM     21  C   UNL     1      44.749   5.333  11.232  0.00  0.00    +0.000 A 
ATOM     22  C   UNL     1      43.997   4.808  12.277  0.00  0.00    +0.000 A 
ATOM     23  S   UNL     1      43.472   3.215  12.007  0.00  0.00    +0.000 S 
ATOM     24  C   UNL     1      44.197   3.182  10.467  0.00  0.00    +0.000 A 
ATOM     25  N   UNL     1      44.103   2.061   9.697  0.00  0.00    +0.000 NA
ATOM     26  C   UNL     1      44.647   2.171   8.533  0.00  0.00    +0.000 A 
ATOM     27  N   UNL     1      45.279   3.293   8.074  0.00  0.00    +0.000 N 
ATOM     28  C   UNL     1      45.485   4.409   8.855  0.00  0.00    +0.000 A 
ATOM     29  O   UNL     1      46.196   5.335   8.446  0.00  0.00    +0.000 OA
ATOM     30  C   UNL     1      44.840   4.364  10.157  0.00  0.00    +0.000 A 
ATOM     31  H   UNL     1      45.710   3.308   7.159  0.00  0.00    +0.000 HD
ENDBRANCH  20  21
ENDBRANCH  17  20
ENDBRANCH   1  17
TORSDOF 8
ENDMDL
