MODEL 1
REMARK VINA RESULT:    -7.250      0.000      0.000
REMARK INTER + INTRA:         -11.794
REMARK INTER:                 -10.217
REMARK INTRA:                  -1.577
REMARK UNBOUND:                -1.577
REMARK  Name = 
REMARK  10 active torsions:
REMARK  status: ('A' for Active; 'I' for Inactive)
REMARK    1  A    between atoms: C_1  and  O_2
REMARK    2  A    between atoms: O_2  and  C_3
REMARK    3  A    between atoms: C_10  and  C_11
REMARK    4  A    between atoms: N_13  and  C_14
REMARK    5  A    between atoms: C_14  and  C_15
REMARK    6  A    between atoms: C_18  and  N_19
REMARK    7  A    between atoms: N_19  and  C_20
REMARK    8  A    between atoms: C_20  and  C_21
REMARK    9  A    between atoms: C_20  and  C_22
REMARK   10  A    between atoms: C_20  and  C_23
REMARK                            x       y       z     vdW  Elec       q    Type
REMARK                         _______ _______ _______ _____ _____    ______ ____
ROOT
ATOM      1  C   UNL     1      47.602   8.400  13.196  0.00  0.00    +0.000 A 
ATOM      2  C   UNL     1      48.056   7.483  12.245  0.00  0.00    +0.000 A 
ATOM      3  C   UNL     1      47.151   6.764  11.456  0.00  0.00    +0.000 A 
ATOM      4  C   UNL     1      45.772   6.941  11.567  0.00  0.00    +0.000 A 
ATOM      5  C   UNL     1      45.329   7.893  12.496  0.00  0.00    +0.000 A 
ATOM      6  C   UNL     1      46.225   8.612  13.303  0.00  0.00    +0.000 A 
ENDROOT
BRANCH   4   7
ATOM      7  N   UNL     1      44.825   6.191  10.894  0.00  0.00    +0.000 N 
ATOM      8  H   UNL     1      44.501   6.604  10.025  0.00  0.00    +0.000 HD
BRANCH   7   9
ATOM      9  C   UNL     1      44.514   4.750  11.042  0.00  0.00    +0.000 C 
ATOM     10  C   UNL     1      45.162   4.210  12.331  0.00  0.00    +0.000 C 
ATOM     11  C   UNL     1      42.995   4.500  11.008  0.00  0.00    +0.000 C 
BRANCH   9  12
ATOM     12  C   UNL     1      45.095   3.963   9.834  0.00  0.00    +0.000 A 
ATOM     13  C   UNL     1      45.643   4.630   8.735  0.00  0.00    +0.000 A 
ATOM     14  C   UNL     1      46.134   3.891   7.659  0.00  0.00    +0.000 A 
ATOM     15  C   UNL     1      46.049   2.507   7.687  0.00  0.00    +0.000 A 
ATOM     16  C   UNL     1      45.469   1.914   8.793  0.00  0.00    +0.000 A 
ATOM     17  N   UNL     1      44.993   2.604   9.851  0.00  0.00    +0.000 NA
ENDBRANCH   9  12
ENDBRANCH   7   9
ENDBRANCH   4   7
BRANCH   1  18
ATOM     18  C   UNL     1      48.589   9.174  14.031  0.00  0.00    +0.000 C 
BRANCH  18  21
ATOM     19  C   UNL     1      48.622   8.566  16.420  0.00  0.00    +0.000 C 
ATOM     20  O   UNL     1      47.801   9.435  16.697  0.00  0.00    +0.000 OA
ATOM     21  N   UNL     1      49.051   8.373  15.135  0.00  0.00    +0.000 N 
ATOM     22  H   UNL     1      49.715   7.642  14.929  0.00  0.00    +0.000 HD
BRANCH  19  30
ATOM     23  C   UNL     1      49.012   5.153  16.703  0.00  0.00    +0.000 A 
ATOM     24  N   UNL     1      49.350   3.890  17.031  0.00  0.00    +0.000 NA
ATOM     25  C   UNL     1      50.013   3.696  18.174  0.00  0.00    +0.000 A 
ATOM     26  N   UNL     1      50.375   4.621  19.058  0.00  0.00    +0.000 NA
ATOM     27  C   UNL     1      50.027   5.866  18.688  0.00  0.00    +0.000 A 
ATOM     28  S   UNL     1      50.394   7.176  19.704  0.00  0.00    +0.000 S 
ATOM     29  C   UNL     1      49.711   8.281  18.610  0.00  0.00    +0.000 A 
ATOM     30  C   UNL     1      49.202   7.692  17.459  0.00  0.00    +0.000 A 
ATOM     31  C   UNL     1      49.365   6.240  17.523  0.00  0.00    +0.000 A 
BRANCH  23  33
ATOM     32  C   UNL     1      47.229   4.483  15.338  0.00  0.00    +0.000 C 
ATOM     33  O   UNL     1      48.342   5.356  15.516  0.00  0.00    +0.000 OA
ENDBRANCH  23  33
ENDBRANCH  19  30
ENDBRANCH  18  21
ENDBRANCH   1  18
TORSDOF 7
ENDMDL
MODEL 2
REMARK VINA RESULT:    -6.820      1.504      1.904
REMARK INTER + INTRA:         -11.188
REMARK INTER:                  -9.665
REMARK INTRA:                  -1.523
REMARK UNBOUND:                -1.577
REMARK  Name = 
REMARK  10 active torsions:
REMARK  status: ('A' for Active; 'I' for Inactive)
REMARK    1  A    between atoms: C_1  and  O_2
REMARK    2  A    between atoms: O_2  and  C_3
REMARK    3  A    between atoms: C_10  and  C_11
REMARK    4  A    between atoms: N_13  and  C_14
REMARK    5  A    between atoms: C_14  and  C_15
REMARK    6  A    between atoms: C_18  and  N_19
REMARK    7  A    between atoms: N_19  and  C_20
REMARK    8  A    between atoms: C_20  and  C_21
REMARK    9  A    between atoms: C_20  and  C_22
REMARK   10  A    between atoms: C_20  and  C_23
REMARK                            x       y       z     vdW  Elec       q    Type
REMARK                         _______ _______ _______ _____ _____    ______ ____
ROOT
ATOM      1  C   UNL     1      47.810   8.458  13.296  0.00  0.00    +0.000 A 
ATOM      2  C   UNL     1      46.442   8.735  13.335  0.00  0.00    +0.000 A 
ATOM      3  C   UNL     1      45.543   8.014  12.540  0.00  0.00    +0.000 A 
ATOM      4  C   UNL     1      45.964   6.984  11.698  0.00  0.00    +0.000 A 
ATOM      5  C   UNL     1      47.334   6.686  11.699  0.00  0.00    +0.000 A 
ATOM      6  C   UNL     1      48.248   7.411  12.480  0.00  0.00    +0.000 A 
ENDROOT
BRANCH   4   7
ATOM      7  N   UNL     1      45.145   6.305  10.815  0.00  0.00    +0.000 N 
ATOM      8  H   UNL     1      45.130   6.688   9.874  0.00  0.00    +0.000 HD
BRANCH   7   9
ATOM      9  C   UNL     1      44.612   4.927  10.926  0.00  0.00    +0.000 C 
ATOM     10  C   UNL     1      45.111   4.282  12.233  0.00  0.00    +0.000 C 
ATOM     11  C   UNL     1      43.076   4.912  10.821  0.00  0.00    +0.000 C 
BRANCH   9  12
ATOM     12  C   UNL     1      45.122   4.073   9.731  0.00  0.00    +0.000 A 
ATOM     13  C   UNL     1      45.060   2.677   9.764  0.00  0.00    +0.000 A 
ATOM     14  C   UNL     1      45.548   1.944   8.683  0.00  0.00    +0.000 A 
ATOM     15  C   UNL     1      46.108   2.611   7.604  0.00  0.00    +0.000 A 
ATOM     16  C   UNL     1      46.164   3.991   7.650  0.00  0.00    +0.000 A 
ATOM     17  N   UNL     1      45.691   4.726   8.679  0.00  0.00    +0.000 NA
ENDBRANCH   9  12
ENDBRANCH   7   9
ENDBRANCH   4   7
BRANCH   1  18
ATOM     18  C   UNL     1      48.764   9.236  14.165  0.00  0.00    +0.000 C 
BRANCH  18  21
ATOM     19  C   UNL     1      50.633   7.860  14.995  0.00  0.00    +0.000 C 
ATOM     20  O   UNL     1      51.322   8.126  14.016  0.00  0.00    +0.000 OA
ATOM     21  N   UNL     1      49.372   8.372  15.142  0.00  0.00    +0.000 N 
ATOM     22  H   UNL     1      48.831   8.151  15.964  0.00  0.00    +0.000 HD
BRANCH  19  30
ATOM     23  C   UNL     1      49.192   5.272  16.758  0.00  0.00    +0.000 A 
ATOM     24  N   UNL     1      48.907   4.201  17.525  0.00  0.00    +0.000 NA
ATOM     25  C   UNL     1      49.872   3.720  18.313  0.00  0.00    +0.000 A 
ATOM     26  N   UNL     1      51.107   4.194  18.449  0.00  0.00    +0.000 NA
ATOM     27  C   UNL     1      51.352   5.255  17.662  0.00  0.00    +0.000 A 
ATOM     28  S   UNL     1      52.875   6.004  17.714  0.00  0.00    +0.000 S 
ATOM     29  C   UNL     1      52.419   7.129  16.526  0.00  0.00    +0.000 A 
ATOM     30  C   UNL     1      51.120   6.961  16.061  0.00  0.00    +0.000 A 
ATOM     31  C   UNL     1      50.472   5.856  16.767  0.00  0.00    +0.000 A 
BRANCH  23  33
ATOM     32  C   UNL     1      47.380   4.737  15.373  0.00  0.00    +0.000 C 
ATOM     33  O   UNL     1      48.203   5.759  15.932  0.00  0.00    +0.000 OA
ENDBRANCH  23  33
ENDBRANCH  19  30
ENDBRANCH  18  21
ENDBRANCH   1  18
TORSDOF 7
ENDMDL
MODEL 3
REMARK VINA RESULT:    -6.747      3.619      9.328
REMARK INTER + INTRA:         -11.085
REMARK INTER:                  -9.946
REMARK INTRA:                  -1.139
REMARK UNBOUND:                -1.577
REMARK  Name = 
REMARK  10 active torsions:
REMARK  status: ('A' for Active; 'I' for Inactive)
REMARK    1  A    between atoms: C_1  and  O_2
REMARK    2  A    between atoms: O_2  and  C_3
REMARK    3  A    between atoms: C_10  and  C_11
REMARK    4  A    between atoms: N_13  and  C_14
REMARK    5  A    between atoms: C_14  and  C_15
REMARK    6  A    between atoms: C_18  and  N_19
REMARK    7  A    between atoms: N_19  and  C_20
REMARK    8  A    between atoms: C_20  and  C_21
REMARK    9  A    between atoms: C_20  and  C_22
REMARK   10  A    between atoms: C_20  and  C_23
REMARK                            x       y       z     vdW  Elec       q    Type
REMARK                         _______ _______ _______ _____ _____    ______ ____
ROOT
ATOM      1  C   UNL     1      48.763   3.813  17.057  0.00  0.00    +0.000 A 
ATOM      2  C   UNL     1      49.619   2.721  17.221  0.00  0.00    +0.000 A 
ATOM      3  C   UNL     1      50.985   2.913  17.460  0.00  0.00    +0.000 A 
ATOM      4  C   UNL     1      51.545   4.187  17.564  0.00  0.00    +0.000 A 
ATOM      5  C   UNL     1      50.669   5.275  17.440  0.00  0.00    +0.000 A 
ATOM      6  C   UNL     1      49.300   5.097  17.186  0.00  0.00    +0.000 A 
ENDROOT
BRANCH   4   7
ATOM      7  N   UNL     1      52.896   4.444  17.697  0.00  0.00    +0.000 N 
ATOM      8  H   UNL     1      53.212   5.290  17.231  0.00  0.00    +0.000 HD
BRANCH   7   9
ATOM      9  C   UNL     1      53.843   3.907  18.702  0.00  0.00    +0.000 C 
ATOM     10  C   UNL     1      55.069   4.833  18.806  0.00  0.00    +0.000 C 
ATOM     11  C   UNL     1      53.155   3.698  20.063  0.00  0.00    +0.000 C 
BRANCH   9  12
ATOM     12  C   UNL     1      54.330   2.498  18.258  0.00  0.00    +0.000 A 
ATOM     13  C   UNL     1      55.104   2.331  17.107  0.00  0.00    +0.000 A 
ATOM     14  C   UNL     1      55.503   1.049  16.729  0.00  0.00    +0.000 A 
ATOM     15  C   UNL     1      55.105  -0.040  17.487  0.00  0.00    +0.000 A 
ATOM     16  C   UNL     1      54.315   0.194  18.597  0.00  0.00    +0.000 A 
ATOM     17  N   UNL     1      53.922   1.424  18.992  0.00  0.00    +0.000 NA
ENDBRANCH   9  12
ENDBRANCH   7   9
ENDBRANCH   4   7
BRANCH   1  18
ATOM     18  C   UNL     1      47.293   3.590  16.809  0.00  0.00    +0.000 C 
BRANCH  18  21
ATOM     19  C   UNL     1      46.819   4.264  14.486  0.00  0.00    +0.000 C 
ATOM     20  O   UNL     1      47.249   3.202  14.045  0.00  0.00    +0.000 OA
ATOM     21  N   UNL     1      46.802   4.523  15.829  0.00  0.00    +0.000 N 
ATOM     22  H   UNL     1      46.430   5.397  16.170  0.00  0.00    +0.000 HD
BRANCH  19  30
ATOM     23  C   UNL     1      43.941   4.623  12.626  0.00  0.00    +0.000 A 
ATOM     24  N   UNL     1      42.899   5.046  11.881  0.00  0.00    +0.000 NA
ATOM     25  C   UNL     1      42.976   6.259  11.328  0.00  0.00    +0.000 A 
ATOM     26  N   UNL     1      43.990   7.116  11.412  0.00  0.00    +0.000 NA
ATOM     27  C   UNL     1      45.002   6.660  12.169  0.00  0.00    +0.000 A 
ATOM     28  S   UNL     1      46.391   7.614  12.376  0.00  0.00    +0.000 S 
ATOM     29  C   UNL     1      47.105   6.447  13.383  0.00  0.00    +0.000 A 
ATOM     30  C   UNL     1      46.313   5.323  13.592  0.00  0.00    +0.000 A 
ATOM     31  C   UNL     1      45.066   5.440  12.836  0.00  0.00    +0.000 A 
BRANCH  23  33
ATOM     32  C   UNL     1      43.510   2.345  12.291  0.00  0.00    +0.000 C 
ATOM     33  O   UNL     1      43.855   3.379  13.210  0.00  0.00    +0.000 OA
ENDBRANCH  23  33
ENDBRANCH  19  30
ENDBRANCH  18  21
ENDBRANCH   1  18
TORSDOF 7
ENDMDL
MODEL 4
REMARK VINA RESULT:    -6.735      2.124      2.510
REMARK INTER + INTRA:         -11.069
REMARK INTER:                 -10.504
REMARK INTRA:                  -0.565
REMARK UNBOUND:                -1.577
REMARK  Name = 
REMARK  10 active torsions:
REMARK  status: ('A' for Active; 'I' for Inactive)
REMARK    1  A    between atoms: C_1  and  O_2
REMARK    2  A    between atoms: O_2  and  C_3
REMARK    3  A    between atoms: C_10  and  C_11
REMARK    4  A    between atoms: N_13  and  C_14
REMARK    5  A    between atoms: C_14  and  C_15
REMARK    6  A    between atoms: C_18  and  N_19
REMARK    7  A    between atoms: N_19  and  C_20
REMARK    8  A    between atoms: C_20  and  C_21
REMARK    9  A    between atoms: C_20  and  C_22
REMARK   10  A    between atoms: C_20  and  C_23
REMARK                            x       y       z     vdW  Elec       q    Type
REMARK                         _______ _______ _______ _____ _____    ______ ____
ROOT
ATOM      1  C   UNL     1      47.023   7.725  13.355  0.00  0.00    +0.000 A 
ATOM      2  C   UNL     1      47.762   6.540  13.313  0.00  0.00    +0.000 A 
ATOM      3  C   UNL     1      47.166   5.340  12.909  0.00  0.00    +0.000 A 
ATOM      4  C   UNL     1      45.829   5.275  12.516  0.00  0.00    +0.000 A 
ATOM      5  C   UNL     1      45.108   6.477  12.523  0.00  0.00    +0.000 A 
ATOM      6  C   UNL     1      45.689   7.686  12.938  0.00  0.00    +0.000 A 
ENDROOT
BRANCH   4   7
ATOM      7  N   UNL     1      45.155   4.108  12.206  0.00  0.00    +0.000 N 
ATOM      8  H   UNL     1      45.094   3.440  12.969  0.00  0.00    +0.000 HD
BRANCH   7   9
ATOM      9  C   UNL     1      44.208   3.857  11.095  0.00  0.00    +0.000 C 
ATOM     10  C   UNL     1      43.290   2.674  11.453  0.00  0.00    +0.000 C 
ATOM     11  C   UNL     1      43.409   5.126  10.745  0.00  0.00    +0.000 C 
BRANCH   9  12
ATOM     12  C   UNL     1      44.999   3.492   9.807  0.00  0.00    +0.000 A 
ATOM     13  C   UNL     1      45.425   4.481   8.916  0.00  0.00    +0.000 A 
ATOM     14  C   UNL     1      46.113   4.113   7.760  0.00  0.00    +0.000 A 
ATOM     15  C   UNL     1      46.342   2.770   7.502  0.00  0.00    +0.000 A 
ATOM     16  C   UNL     1      45.868   1.843   8.410  0.00  0.00    +0.000 A 
ATOM     17  N   UNL     1      45.207   2.171   9.541  0.00  0.00    +0.000 NA
ENDBRANCH   9  12
ENDBRANCH   7   9
ENDBRANCH   4   7
BRANCH   1  18
ATOM     18  C   UNL     1      47.681   9.011  13.783  0.00  0.00    +0.000 C 
BRANCH  18  21
ATOM     19  C   UNL     1      48.391   8.950  16.143  0.00  0.00    +0.000 C 
ATOM     20  O   UNL     1      49.483   8.474  15.847  0.00  0.00    +0.000 OA
ATOM     21  N   UNL     1      47.459   9.247  15.185  0.00  0.00    +0.000 N 
ATOM     22  H   UNL     1      46.574   9.652  15.451  0.00  0.00    +0.000 HD
BRANCH  19  30
ATOM     23  C   UNL     1      47.847   6.921  18.875  0.00  0.00    +0.000 A 
ATOM     24  N   UNL     1      47.655   6.380  20.095  0.00  0.00    +0.000 NA
ATOM     25  C   UNL     1      47.412   7.207  21.115  0.00  0.00    +0.000 A 
ATOM     26  N   UNL     1      47.319   8.533  21.069  0.00  0.00    +0.000 NA
ATOM     27  C   UNL     1      47.527   9.031  19.838  0.00  0.00    +0.000 A 
ATOM     28  S   UNL     1      47.430  10.708  19.585  0.00  0.00    +0.000 S 
ATOM     29  C   UNL     1      47.805  10.531  17.938  0.00  0.00    +0.000 A 
ATOM     30  C   UNL     1      48.018   9.214  17.546  0.00  0.00    +0.000 A 
ATOM     31  C   UNL     1      47.819   8.315  18.682  0.00  0.00    +0.000 A 
BRANCH  23  33
ATOM     32  C   UNL     1      47.444   4.817  17.929  0.00  0.00    +0.000 C 
ATOM     33  O   UNL     1      48.114   6.070  17.825  0.00  0.00    +0.000 OA
ENDBRANCH  23  33
ENDBRANCH  19  30
ENDBRANCH  18  21
ENDBRANCH   1  18
TORSDOF 7
ENDMDL
MODEL 5
REMARK VINA RESULT:    -6.590      3.070      7.633
REMARK INTER + INTRA:         -10.864
REMARK INTER:                  -9.201
REMARK INTRA:                  -1.663
REMARK UNBOUND:                -1.577
REMARK  Name = 
REMARK  10 active torsions:
REMARK  status: ('A' for Active; 'I' for Inactive)
REMARK    1  A    between atoms: C_1  and  O_2
REMARK    2  A    between atoms: O_2  and  C_3
REMARK    3  A    between atoms: C_10  and  C_11
REMARK    4  A    between atoms: N_13  and  C_14
REMARK    5  A    between atoms: C_14  and  C_15
REMARK    6  A    between atoms: C_18  and  N_19
REMARK    7  A    between atoms: N_19  and  C_20
REMARK    8  A    between atoms: C_20  and  C_21
REMARK    9  A    between atoms: C_20  and  C_22
REMARK   10  A    between atoms: C_20  and  C_23
REMARK                            x       y       z     vdW  Elec       q    Type
REMARK                         _______ _______ _______ _____ _____    ______ ____
ROOT
ATOM      1  C   UNL     1      48.500   8.021  13.452  0.00  0.00    +0.000 A 
ATOM      2  C   UNL     1      49.404   7.030  13.841  0.00  0.00    +0.000 A 
ATOM      3  C   UNL     1      49.688   6.812  15.194  0.00  0.00    +0.000 A 
ATOM      4  C   UNL     1      49.073   7.551  16.206  0.00  0.00    +0.000 A 
ATOM      5  C   UNL     1      48.136   8.515  15.805  0.00  0.00    +0.000 A 
ATOM      6  C   UNL     1      47.853   8.753  14.451  0.00  0.00    +0.000 A 
ENDROOT
BRANCH   4   7
ATOM      7  N   UNL     1      49.383   7.456  17.549  0.00  0.00    +0.000 N 
ATOM      8  H   UNL     1      49.858   8.269  17.931  0.00  0.00    +0.000 HD
BRANCH   7   9
ATOM      9  C   UNL     1      48.803   6.549  18.567  0.00  0.00    +0.000 C 
ATOM     10  C   UNL     1      49.696   6.540  19.822  0.00  0.00    +0.000 C 
ATOM     11  C   UNL     1      47.348   6.932  18.893  0.00  0.00    +0.000 C 
BRANCH   9  12
ATOM     12  C   UNL     1      48.739   5.102  18.001  0.00  0.00    +0.000 A 
ATOM     13  C   UNL     1      49.888   4.315  17.899  0.00  0.00    +0.000 A 
ATOM     14  C   UNL     1      49.795   3.030  17.366  0.00  0.00    +0.000 A 
ATOM     15  C   UNL     1      48.567   2.564  16.922  0.00  0.00    +0.000 A 
ATOM     16  C   UNL     1      47.476   3.406  17.026  0.00  0.00    +0.000 A 
ATOM     17  N   UNL     1      47.536   4.650  17.546  0.00  0.00    +0.000 NA
ENDBRANCH   9  12
ENDBRANCH   7   9
ENDBRANCH   4   7
BRANCH   1  18
ATOM     18  C   UNL     1      48.198   8.237  11.991  0.00  0.00    +0.000 C 
BRANCH  18  21
ATOM     19  C   UNL     1      46.161   7.032  11.302  0.00  0.00    +0.000 C 
ATOM     20  O   UNL     1      45.443   7.973  11.627  0.00  0.00    +0.000 OA
ATOM     21  N   UNL     1      47.521   7.091  11.443  0.00  0.00    +0.000 N 
ATOM     22  H   UNL     1      48.092   6.311  11.154  0.00  0.00    +0.000 HD
BRANCH  19  30
ATOM     23  C   UNL     1      44.507   4.359  12.714  0.00  0.00    +0.000 A 
ATOM     24  N   UNL     1      43.791   3.250  12.987  0.00  0.00    +0.000 NA
ATOM     25  C   UNL     1      43.464   2.450  11.969  0.00  0.00    +0.000 A 
ATOM     26  N   UNL     1      43.781   2.611  10.688  0.00  0.00    +0.000 NA
ATOM     27  C   UNL     1      44.486   3.732  10.458  0.00  0.00    +0.000 A 
ATOM     28  S   UNL     1      44.995   4.095   8.879  0.00  0.00    +0.000 S 
ATOM     29  C   UNL     1      45.727   5.539   9.393  0.00  0.00    +0.000 A 
ATOM     30  C   UNL     1      45.597   5.783  10.755  0.00  0.00    +0.000 A 
ATOM     31  C   UNL     1      44.880   4.681  11.396  0.00  0.00    +0.000 A 
BRANCH  23  33
ATOM     32  C   UNL     1      46.188   5.072  14.182  0.00  0.00    +0.000 C 
ATOM     33  O   UNL     1      44.831   5.194  13.761  0.00  0.00    +0.000 OA
ENDBRANCH  23  33
ENDBRANCH  19  30
ENDBRANCH  18  21
ENDBRANCH   1  18
TORSDOF 7
ENDMDL
MODEL 6
REMARK VINA RESULT:    -6.421      3.160      7.800
REMARK INTER + INTRA:         -10.626
REMARK INTER:                  -8.941
REMARK INTRA:                  -1.685
REMARK UNBOUND:                -1.577
REMARK  Name = 
REMARK  10 active torsions:
REMARK  status: ('A' for Active; 'I' for Inactive)
REMARK    1  A    between atoms: C_1  and  O_2
REMARK    2  A    between atoms: O_2  and  C_3
REMARK    3  A    between atoms: C_10  and  C_11
REMARK    4  A    between atoms: N_13  and  C_14
REMARK    5  A    between atoms: C_14  and  C_15
REMARK    6  A    between atoms: C_18  and  N_19
REMARK    7  A    between atoms: N_19  and  C_20
REMARK    8  A    between atoms: C_20  and  C_21
REMARK    9  A    between atoms: C_20  and  C_22
REMARK   10  A    between atoms: C_20  and  C_23
REMARK                            x       y       z     vdW  Elec       q    Type
REMARK                         _______ _______ _______ _____ _____    ______ ____
ROOT
ATOM      1  C   UNL     1      48.505   8.429  15.207  0.00  0.00    +0.000 A 
ATOM      2  C   UNL     1      48.314   8.937  16.494  0.00  0.00    +0.000 A 
ATOM      3  C   UNL     1      48.937   8.343  17.598  0.00  0.00    +0.000 A 
ATOM      4  C   UNL     1      49.783   7.241  17.463  0.00  0.00    +0.000 A 
ATOM      5  C   UNL     1      50.001   6.765  16.162  0.00  0.00    +0.000 A 
ATOM      6  C   UNL     1      49.372   7.344  15.049  0.00  0.00    +0.000 A 
ENDROOT
BRANCH   4   7
ATOM      7  N   UNL     1      50.345   6.547  18.518  0.00  0.00    +0.000 N 
ATOM      8  H   UNL     1      51.034   7.072  19.049  0.00  0.00    +0.000 HD
BRANCH   7   9
ATOM      9  C   UNL     1      49.833   5.338  19.205  0.00  0.00    +0.000 C 
ATOM     10  C   UNL     1      50.428   5.256  20.623  0.00  0.00    +0.000 C 
ATOM     11  C   UNL     1      48.294   5.314  19.219  0.00  0.00    +0.000 C 
BRANCH   9  12
ATOM     12  C   UNL     1      50.264   4.068  18.417  0.00  0.00    +0.000 A 
ATOM     13  C   UNL     1      49.326   3.282  17.745  0.00  0.00    +0.000 A 
ATOM     14  C   UNL     1      49.748   2.139  17.067  0.00  0.00    +0.000 A 
ATOM     15  C   UNL     1      51.089   1.787  17.094  0.00  0.00    +0.000 A 
ATOM     16  C   UNL     1      51.959   2.593  17.803  0.00  0.00    +0.000 A 
ATOM     17  N   UNL     1      51.579   3.710  18.459  0.00  0.00    +0.000 NA
ENDBRANCH   9  12
ENDBRANCH   7   9
ENDBRANCH   4   7
BRANCH   1  18
ATOM     18  C   UNL     1      47.835   9.086  14.028  0.00  0.00    +0.000 C 
BRANCH  18  21
ATOM     19  C   UNL     1      46.767   7.472  12.502  0.00  0.00    +0.000 C 
ATOM     20  O   UNL     1      47.797   7.342  11.848  0.00  0.00    +0.000 OA
ATOM     21  N   UNL     1      46.711   8.302  13.588  0.00  0.00    +0.000 N 
ATOM     22  H   UNL     1      45.857   8.381  14.120  0.00  0.00    +0.000 HD
BRANCH  19  30
ATOM     23  C   UNL     1      45.747   4.197  12.837  0.00  0.00    +0.000 A 
ATOM     24  N   UNL     1      45.081   3.027  12.911  0.00  0.00    +0.000 NA
ATOM     25  C   UNL     1      43.823   2.993  12.463  0.00  0.00    +0.000 A 
ATOM     26  N   UNL     1      43.136   3.997  11.925  0.00  0.00    +0.000 NA
ATOM     27  C   UNL     1      43.832   5.145  11.880  0.00  0.00    +0.000 A 
ATOM     28  S   UNL     1      43.119   6.532  11.208  0.00  0.00    +0.000 S 
ATOM     29  C   UNL     1      44.507   7.460  11.522  0.00  0.00    +0.000 A 
ATOM     30  C   UNL     1      45.529   6.751  12.145  0.00  0.00    +0.000 A 
ATOM     31  C   UNL     1      45.133   5.356  12.328  0.00  0.00    +0.000 A 
BRANCH  23  33
ATOM     32  C   UNL     1      47.116   4.340  14.733  0.00  0.00    +0.000 C 
ATOM     33  O   UNL     1      47.039   4.237  13.314  0.00  0.00    +0.000 OA
ENDBRANCH  23  33
ENDBRANCH  19  30
ENDBRANCH  18  21
ENDBRANCH   1  18
TORSDOF 7
ENDMDL
MODEL 7
REMARK VINA RESULT:    -6.349      3.358      9.085
REMARK INTER + INTRA:         -10.525
REMARK INTER:                  -9.056
REMARK INTRA:                  -1.468
REMARK UNBOUND:                -1.577
REMARK  Name = 
REMARK  10 active torsions:
REMARK  status: ('A' for Active; 'I' for Inactive)
REMARK    1  A    between atoms: C_1  and  O_2
REMARK    2  A    between atoms: O_2  and  C_3
REMARK    3  A    between atoms: C_10  and  C_11
REMARK    4  A    between atoms: N_13  and  C_14
REMARK    5  A    between atoms: C_14  and  C_15
REMARK    6  A    between atoms: C_18  and  N_19
REMARK    7  A    between atoms: N_19  and  C_20
REMARK    8  A    between atoms: C_20  and  C_21
REMARK    9  A    between atoms: C_20  and  C_22
REMARK   10  A    between atoms: C_20  and  C_23
REMARK                            x       y       z     vdW  Elec       q    Type
REMARK                         _______ _______ _______ _____ _____    ______ ____
ROOT
ATOM      1  C   UNL     1      48.493   3.547  17.616  0.00  0.00    +0.000 A 
ATOM      2  C   UNL     1      48.737   4.504  18.604  0.00  0.00    +0.000 A 
ATOM      3  C   UNL     1      50.020   4.668  19.139  0.00  0.00    +0.000 A 
ATOM      4  C   UNL     1      51.105   3.906  18.702  0.00  0.00    +0.000 A 
ATOM      5  C   UNL     1      50.857   2.978  17.681  0.00  0.00    +0.000 A 
ATOM      6  C   UNL     1      49.572   2.795  17.145  0.00  0.00    +0.000 A 
ENDROOT
BRANCH   4   7
ATOM      7  N   UNL     1      52.370   3.947  19.258  0.00  0.00    +0.000 N 
ATOM      8  H   UNL     1      52.544   3.236  19.963  0.00  0.00    +0.000 HD
BRANCH   7   9
ATOM      9  C   UNL     1      53.592   4.594  18.726  0.00  0.00    +0.000 C 
ATOM     10  C   UNL     1      54.537   4.952  19.888  0.00  0.00    +0.000 C 
ATOM     11  C   UNL     1      54.278   3.710  17.669  0.00  0.00    +0.000 C 
BRANCH   9  12
ATOM     12  C   UNL     1      53.206   5.907  17.986  0.00  0.00    +0.000 A 
ATOM     13  C   UNL     1      53.155   5.962  16.591  0.00  0.00    +0.000 A 
ATOM     14  C   UNL     1      52.826   7.162  15.963  0.00  0.00    +0.000 A 
ATOM     15  C   UNL     1      52.579   8.289  16.733  0.00  0.00    +0.000 A 
ATOM     16  C   UNL     1      52.675   8.171  18.106  0.00  0.00    +0.000 A 
ATOM     17  N   UNL     1      52.982   7.020  18.741  0.00  0.00    +0.000 NA
ENDBRANCH   9  12
ENDBRANCH   7   9
ENDBRANCH   4   7
BRANCH   1  18
ATOM     18  C   UNL     1      47.108   3.390  17.042  0.00  0.00    +0.000 C 
BRANCH  18  21
ATOM     19  C   UNL     1      47.018   4.154  14.700  0.00  0.00    +0.000 C 
ATOM     20  O   UNL     1      47.364   3.053  14.283  0.00  0.00    +0.000 OA
ATOM     21  N   UNL     1      46.863   4.393  16.039  0.00  0.00    +0.000 N 
ATOM     22  H   UNL     1      46.562   5.302  16.357  0.00  0.00    +0.000 HD
BRANCH  19  30
ATOM     23  C   UNL     1      44.332   5.059  12.739  0.00  0.00    +0.000 A 
ATOM     24  N   UNL     1      43.421   5.672  11.957  0.00  0.00    +0.000 NA
ATOM     25  C   UNL     1      43.758   6.839  11.401  0.00  0.00    +0.000 A 
ATOM     26  N   UNL     1      44.919   7.477  11.515  0.00  0.00    +0.000 NA
ATOM     27  C   UNL     1      45.794   6.837  12.310  0.00  0.00    +0.000 A 
ATOM     28  S   UNL     1      47.338   7.497  12.560  0.00  0.00    +0.000 S 
ATOM     29  C   UNL     1      47.770   6.223  13.597  0.00  0.00    +0.000 A 
ATOM     30  C   UNL     1      46.763   5.283  13.783  0.00  0.00    +0.000 A 
ATOM     31  C   UNL     1      45.591   5.637  12.985  0.00  0.00    +0.000 A 
BRANCH  23  33
ATOM     32  C   UNL     1      43.586   2.866  12.388  0.00  0.00    +0.000 C 
ATOM     33  O   UNL     1      43.980   3.863  13.327  0.00  0.00    +0.000 OA
ENDBRANCH  23  33
ENDBRANCH  19  30
ENDBRANCH  18  21
ENDBRANCH   1  18
TORSDOF 7
ENDMDL
MODEL 8
REMARK VINA RESULT:    -6.195      3.592      9.078
REMARK INTER + INTRA:         -10.307
REMARK INTER:                  -8.604
REMARK INTRA:                  -1.703
REMARK UNBOUND:                -1.577
REMARK  Name = 
REMARK  10 active torsions:
REMARK  status: ('A' for Active; 'I' for Inactive)
REMARK    1  A    between atoms: C_1  and  O_2
REMARK    2  A    between atoms: O_2  and  C_3
REMARK    3  A    between atoms: C_10  and  C_11
REMARK    4  A    between atoms: N_13  and  C_14
REMARK    5  A    between atoms: C_14  and  C_15
REMARK    6  A    between atoms: C_18  and  N_19
REMARK    7  A    between atoms: N_19  and  C_20
REMARK    8  A    between atoms: C_20  and  C_21
REMARK    9  A    between atoms: C_20  and  C_22
REMARK   10  A    between atoms: C_20  and  C_23
REMARK                            x       y       z     vdW  Elec       q    Type
REMARK                         _______ _______ _______ _____ _____    ______ ____
ROOT
ATOM      1  C   UNL     1      48.534   3.639  17.470  0.00  0.00    +0.000 A 
ATOM      2  C   UNL     1      48.928   4.699  18.290  0.00  0.00    +0.000 A 
ATOM      3  C   UNL     1      50.210   4.731  18.852  0.00  0.00    +0.000 A 
ATOM      4  C   UNL     1      51.148   3.728  18.607  0.00  0.00    +0.000 A 
ATOM      5  C   UNL     1      50.756   2.690  17.749  0.00  0.00    +0.000 A 
ATOM      6  C   UNL     1      49.469   2.639  17.190  0.00  0.00    +0.000 A 
ENDROOT
BRANCH   4   7
ATOM      7  N   UNL     1      52.390   3.647  19.209  0.00  0.00    +0.000 N 
ATOM      8  H   UNL     1      52.398   3.145  20.092  0.00  0.00    +0.000 HD
BRANCH   7   9
ATOM      9  C   UNL     1      53.726   3.835  18.597  0.00  0.00    +0.000 C 
ATOM     10  C   UNL     1      53.610   4.767  17.377  0.00  0.00    +0.000 C 
ATOM     11  C   UNL     1      54.745   4.352  19.628  0.00  0.00    +0.000 C 
BRANCH   9  12
ATOM     12  C   UNL     1      54.276   2.463  18.116  0.00  0.00    +0.000 A 
ATOM     13  C   UNL     1      55.053   2.362  16.959  0.00  0.00    +0.000 A 
ATOM     14  C   UNL     1      55.511   1.112  16.546  0.00  0.00    +0.000 A 
ATOM     15  C   UNL     1      55.167  -0.015  17.277  0.00  0.00    +0.000 A 
ATOM     16  C   UNL     1      54.371   0.153  18.394  0.00  0.00    +0.000 A 
ATOM     17  N   UNL     1      53.922   1.352  18.822  0.00  0.00    +0.000 NA
ENDBRANCH   9  12
ENDBRANCH   7   9
ENDBRANCH   4   7
BRANCH   1  18
ATOM     18  C   UNL     1      47.153   3.625  16.865  0.00  0.00    +0.000 C 
BRANCH  18  21
ATOM     19  C   UNL     1      47.102   4.258  14.483  0.00  0.00    +0.000 C 
ATOM     20  O   UNL     1      47.211   3.089  14.125  0.00  0.00    +0.000 OA
ATOM     21  N   UNL     1      47.059   4.597  15.808  0.00  0.00    +0.000 N 
ATOM     22  H   UNL     1      46.952   5.564  16.078  0.00  0.00    +0.000 HD
BRANCH  19  30
ATOM     23  C   UNL     1      48.871   7.185  14.067  0.00  0.00    +0.000 A 
ATOM     24  N   UNL     1      49.437   8.332  13.638  0.00  0.00    +0.000 NA
ATOM     25  C   UNL     1      48.952   8.892  12.527  0.00  0.00    +0.000 A 
ATOM     26  N   UNL     1      47.941   8.452  11.783  0.00  0.00    +0.000 NA
ATOM     27  C   UNL     1      47.413   7.304  12.239  0.00  0.00    +0.000 A 
ATOM     28  S   UNL     1      46.100   6.601  11.423  0.00  0.00    +0.000 S 
ATOM     29  C   UNL     1      46.053   5.300  12.513  0.00  0.00    +0.000 A 
ATOM     30  C   UNL     1      47.025   5.361  13.505  0.00  0.00    +0.000 A 
ATOM     31  C   UNL     1      47.818   6.581  13.357  0.00  0.00    +0.000 A 
BRANCH  23  33
ATOM     32  C   UNL     1      50.667   7.096  15.569  0.00  0.00    +0.000 C 
ATOM     33  O   UNL     1      49.382   6.598  15.204  0.00  0.00    +0.000 OA
ENDBRANCH  23  33
ENDBRANCH  19  30
ENDBRANCH  18  21
ENDBRANCH   1  18
TORSDOF 7
ENDMDL
MODEL 9
REMARK VINA RESULT:    -5.846      3.493      8.982
REMARK INTER + INTRA:          -9.815
REMARK INTER:                  -8.666
REMARK INTRA:                  -1.149
REMARK UNBOUND:                -1.577
REMARK  Name = 
REMARK  10 active torsions:
REMARK  status: ('A' for Active; 'I' for Inactive)
REMARK    1  A    between atoms: C_1  and  O_2
REMARK    2  A    between atoms: O_2  and  C_3
REMARK    3  A    between atoms: C_10  and  C_11
REMARK    4  A    between atoms: N_13  and  C_14
REMARK    5  A    between atoms: C_14  and  C_15
REMARK    6  A    between atoms: C_18  and  N_19
REMARK    7  A    between atoms: N_19  and  C_20
REMARK    8  A    between atoms: C_20  and  C_21
REMARK    9  A    between atoms: C_20  and  C_22
REMARK   10  A    between atoms: C_20  and  C_23
REMARK                            x       y       z     vdW  Elec       q    Type
REMARK                         _______ _______ _______ _____ _____    ______ ____
ROOT
ATOM      1  C   UNL     1      48.585   3.426  17.259  0.00  0.00    +0.000 A 
ATOM      2  C   UNL     1      49.347   4.313  18.022  0.00  0.00    +0.000 A 
ATOM      3  C   UNL     1      50.666   4.004  18.373  0.00  0.00    +0.000 A 
ATOM      4  C   UNL     1      51.280   2.819  17.965  0.00  0.00    +0.000 A 
ATOM      5  C   UNL     1      50.520   1.956  17.164  0.00  0.00    +0.000 A 
ATOM      6  C   UNL     1      49.191   2.247  16.816  0.00  0.00    +0.000 A 
ENDROOT
BRANCH   4   7
ATOM      7  N   UNL     1      52.540   2.409  18.360  0.00  0.00    +0.000 N 
ATOM      8  H   UNL     1      52.830   1.513  17.980  0.00  0.00    +0.000 HD
BRANCH   7   9
ATOM      9  C   UNL     1      53.643   3.226  18.917  0.00  0.00    +0.000 C 
ATOM     10  C   UNL     1      53.108   4.109  20.060  0.00  0.00    +0.000 C 
ATOM     11  C   UNL     1      54.820   2.342  19.369  0.00  0.00    +0.000 C 
BRANCH   9  12
ATOM     12  C   UNL     1      54.217   4.153  17.808  0.00  0.00    +0.000 A 
ATOM     13  C   UNL     1      55.272   3.736  16.993  0.00  0.00    +0.000 A 
ATOM     14  C   UNL     1      55.774   4.603  16.024  0.00  0.00    +0.000 A 
ATOM     15  C   UNL     1      55.235   5.874  15.902  0.00  0.00    +0.000 A 
ATOM     16  C   UNL     1      54.213   6.232  16.760  0.00  0.00    +0.000 A 
ATOM     17  N   UNL     1      53.701   5.410  17.701  0.00  0.00    +0.000 NA
ENDBRANCH   9  12
ENDBRANCH   7   9
ENDBRANCH   4   7
BRANCH   1  18
ATOM     18  C   UNL     1      47.169   3.778  16.881  0.00  0.00    +0.000 C 
BRANCH  18  21
ATOM     19  C   UNL     1      47.171   4.353  14.484  0.00  0.00    +0.000 C 
ATOM     20  O   UNL     1      47.178   3.170  14.156  0.00  0.00    +0.000 OA
ATOM     21  N   UNL     1      47.159   4.728  15.800  0.00  0.00    +0.000 N 
ATOM     22  H   UNL     1      47.138   5.707  16.045  0.00  0.00    +0.000 HD
BRANCH  19  30
ATOM     23  C   UNL     1      49.228   7.068  13.961  0.00  0.00    +0.000 A 
ATOM     24  N   UNL     1      49.901   8.138  13.492  0.00  0.00    +0.000 NA
ATOM     25  C   UNL     1      49.456   8.718  12.374  0.00  0.00    +0.000 A 
ATOM     26  N   UNL     1      48.391   8.368  11.659  0.00  0.00    +0.000 NA
ATOM     27  C   UNL     1      47.755   7.293  12.155  0.00  0.00    +0.000 A 
ATOM     28  S   UNL     1      46.361   6.711  11.379  0.00  0.00    +0.000 S 
ATOM     29  C   UNL     1      46.200   5.449  12.504  0.00  0.00    +0.000 A 
ATOM     30  C   UNL     1      47.192   5.433  13.478  0.00  0.00    +0.000 A 
ATOM     31  C   UNL     1      48.104   6.559  13.284  0.00  0.00    +0.000 A 
BRANCH  23  33
ATOM     32  C   UNL     1      50.059   7.382  16.128  0.00  0.00    +0.000 C 
ATOM     33  O   UNL     1      49.696   6.459  15.104  0.00  0.00    +0.000 OA
ENDBRANCH  23  33
ENDBRANCH  19  30
ENDBRANCH  18  21
ENDBRANCH   1  18
TORSDOF 7
ENDMDL
