MODEL 1
REMARK VINA RESULT:    -8.108      0.000      0.000
REMARK INTER + INTRA:         -13.004
REMARK INTER:                 -11.899
REMARK INTRA:                  -1.105
REMARK UNBOUND:                -1.105
REMARK  Name = 
REMARK  9 active torsions:
REMARK  status: ('A' for Active; 'I' for Inactive)
REMARK    1  A    between atoms: C_1  and  C_2
REMARK    2  A    between atoms: C_2  and  C_3
REMARK    3  A    between atoms: C_3  and  N_4
REMARK    4  A    between atoms: C_3  and  C_26
REMARK    5  A    between atoms: N_4  and  C_5
REMARK    6  A    between atoms: C_5  and  C_6
REMARK    7  A    between atoms: C_9  and  C_10
REMARK    8  A    between atoms: C_10  and  N_11
REMARK    9  A    between atoms: C_12  and  C_14
REMARK                            x       y       z     vdW  Elec       q    Type
REMARK                         _______ _______ _______ _____ _____    ______ ____
ROOT
ATOM      1  C   UNL     1      44.933   6.330  11.098  0.00  0.00    +0.000 A 
ATOM      2  C   UNL     1      44.493   7.497  11.737  0.00  0.00    +0.000 A 
ATOM      3  C   UNL     1      45.338   8.198  12.604  0.00  0.00    +0.000 A 
ATOM      4  C   UNL     1      46.639   7.743  12.855  0.00  0.00    +0.000 A 
ATOM      5  C   UNL     1      47.067   6.556  12.247  0.00  0.00    +0.000 A 
ATOM      6  C   UNL     1      46.227   5.863  11.374  0.00  0.00    +0.000 A 
ENDROOT
BRANCH   1   7
ATOM      7  C   UNL     1      44.018   5.522  10.199  0.00  0.00    +0.000 C 
BRANCH   7   8
ATOM      8  N   UNL     1      44.740   4.849   9.115  0.00  0.00    +0.000 NA
ATOM      9  H   UNL     1      44.370   5.166   8.224  0.00  0.00    +0.000 HD
BRANCH   8  10
ATOM     10  C   UNL     1      44.634   3.375   9.178  0.00  0.00    +0.000 C 
BRANCH  10  11
ATOM     11  C   UNL     1      45.592   2.665   8.215  0.00  0.00    +0.000 A 
ATOM     12  C   UNL     1      46.138   3.351   7.131  0.00  0.00    +0.000 A 
ATOM     13  C   UNL     1      47.040   2.687   6.301  0.00  0.00    +0.000 A 
ATOM     14  C   UNL     1      47.387   1.370   6.581  0.00  0.00    +0.000 A 
ATOM     15  C   UNL     1      46.817   0.766   7.683  0.00  0.00    +0.000 A 
ATOM     16  N   UNL     1      45.937   1.380   8.501  0.00  0.00    +0.000 NA
ENDBRANCH  10  11
BRANCH  10  18
ATOM     17  C   UNL     1      43.435   2.615  11.345  0.00  0.00    +0.000 C 
ATOM     18  C   UNL     1      44.751   2.766  10.599  0.00  0.00    +0.000 C 
ENDBRANCH  10  18
ENDBRANCH   8  10
ENDBRANCH   7   8
ENDBRANCH   1   7
BRANCH   4  19
ATOM     19  C   UNL     1      47.547   8.480  13.801  0.00  0.00    +0.000 C 
BRANCH  19  20
ATOM     20  N   UNL     1      47.868   7.669  14.946  0.00  0.00    +0.000 N 
ATOM     21  C   UNL     1      49.105   7.093  15.079  0.00  0.00    +0.000 C 
ATOM     22  O   UNL     1      50.001   7.281  14.260  0.00  0.00    +0.000 OA
ATOM     23  H   UNL     1      47.091   7.327  15.503  0.00  0.00    +0.000 HD
BRANCH  21  24
ATOM     24  C   UNL     1      49.328   6.289  16.286  0.00  0.00    +0.000 A 
ATOM     25  C   UNL     1      50.340   6.647  17.168  0.00  0.00    +0.000 A 
ATOM     26  S   UNL     1      50.434   5.645  18.544  0.00  0.00    +0.000 S 
ATOM     27  C   UNL     1      49.160   4.665  17.985  0.00  0.00    +0.000 A 
ATOM     28  N   UNL     1      48.744   3.587  18.698  0.00  0.00    +0.000 NA
ATOM     29  C   UNL     1      47.787   2.917  18.149  0.00  0.00    +0.000 A 
ATOM     30  N   UNL     1      47.209   3.232  16.945  0.00  0.00    +0.000 N 
ATOM     31  C   UNL     1      47.579   4.325  16.200  0.00  0.00    +0.000 A 
ATOM     32  O   UNL     1      47.017   4.597  15.146  0.00  0.00    +0.000 OA
ATOM     33  C   UNL     1      48.657   5.105  16.776  0.00  0.00    +0.000 A 
ATOM     34  H   UNL     1      46.459   2.668  16.569  0.00  0.00    +0.000 HD
ENDBRANCH  21  24
ENDBRANCH  19  20
ENDBRANCH   4  19
TORSDOF 8
ENDMDL
MODEL 2
REMARK VINA RESULT:    -7.509      2.842      3.655
REMARK INTER + INTRA:         -12.126
REMARK INTER:                 -11.157
REMARK INTRA:                  -0.970
REMARK UNBOUND:                -1.105
REMARK  Name = 
REMARK  9 active torsions:
REMARK  status: ('A' for Active; 'I' for Inactive)
REMARK    1  A    between atoms: C_1  and  C_2
REMARK    2  A    between atoms: C_2  and  C_3
REMARK    3  A    between atoms: C_3  and  N_4
REMARK    4  A    between atoms: C_3  and  C_26
REMARK    5  A    between atoms: N_4  and  C_5
REMARK    6  A    between atoms: C_5  and  C_6
REMARK    7  A    between atoms: C_9  and  C_10
REMARK    8  A    between atoms: C_10  and  N_11
REMARK    9  A    between atoms: C_12  and  C_14
REMARK                            x       y       z     vdW  Elec       q    Type
REMARK                         _______ _______ _______ _____ _____    ______ ____
ROOT
ATOM      1  C   UNL     1      46.728   5.024  13.608  0.00  0.00    +0.000 A 
ATOM      2  C   UNL     1      47.491   6.179  13.389  0.00  0.00    +0.000 A 
ATOM      3  C   UNL     1      48.353   6.664  14.378  0.00  0.00    +0.000 A 
ATOM      4  C   UNL     1      48.466   6.007  15.610  0.00  0.00    +0.000 A 
ATOM      5  C   UNL     1      47.677   4.874  15.845  0.00  0.00    +0.000 A 
ATOM      6  C   UNL     1      46.824   4.385  14.854  0.00  0.00    +0.000 A 
ENDROOT
BRANCH   1   7
ATOM      7  C   UNL     1      45.744   4.512  12.575  0.00  0.00    +0.000 C 
BRANCH   7   8
ATOM      8  N   UNL     1      45.503   5.476  11.497  0.00  0.00    +0.000 NA
ATOM      9  H   UNL     1      45.189   6.353  11.902  0.00  0.00    +0.000 HD
BRANCH   8  10
ATOM     10  C   UNL     1      44.492   5.011  10.523  0.00  0.00    +0.000 C 
BRANCH  10  11
ATOM     11  C   UNL     1      45.065   4.039   9.486  0.00  0.00    +0.000 A 
ATOM     12  C   UNL     1      45.780   4.518   8.389  0.00  0.00    +0.000 A 
ATOM     13  C   UNL     1      46.325   3.602   7.490  0.00  0.00    +0.000 A 
ATOM     14  C   UNL     1      46.160   2.240   7.714  0.00  0.00    +0.000 A 
ATOM     15  C   UNL     1      45.454   1.844   8.832  0.00  0.00    +0.000 A 
ATOM     16  N   UNL     1      44.910   2.706   9.717  0.00  0.00    +0.000 NA
ENDBRANCH  10  11
BRANCH  10  18
ATOM     17  C   UNL     1      42.298   5.451  11.827  0.00  0.00    +0.000 C 
ATOM     18  C   UNL     1      43.195   4.432  11.143  0.00  0.00    +0.000 C 
ENDBRANCH  10  18
ENDBRANCH   8  10
ENDBRANCH   7   8
ENDBRANCH   1   7
BRANCH   4  19
ATOM     19  C   UNL     1      49.377   6.533  16.685  0.00  0.00    +0.000 C 
BRANCH  19  20
ATOM     20  N   UNL     1      50.376   5.558  17.038  0.00  0.00    +0.000 N 
ATOM     21  C   UNL     1      50.949   5.552  18.283  0.00  0.00    +0.000 C 
ATOM     22  O   UNL     1      50.607   6.342  19.160  0.00  0.00    +0.000 OA
ATOM     23  H   UNL     1      50.821   5.056  16.276  0.00  0.00    +0.000 HD
BRANCH  21  24
ATOM     24  C   UNL     1      51.952   4.513  18.539  0.00  0.00    +0.000 A 
ATOM     25  C   UNL     1      53.098   4.830  19.257  0.00  0.00    +0.000 A 
ATOM     26  S   UNL     1      54.135   3.502  19.515  0.00  0.00    +0.000 S 
ATOM     27  C   UNL     1      53.115   2.465  18.631  0.00  0.00    +0.000 A 
ATOM     28  N   UNL     1      53.438   1.159  18.446  0.00  0.00    +0.000 NA
ATOM     29  C   UNL     1      52.591   0.492  17.737  0.00  0.00    +0.000 A 
ATOM     30  N   UNL     1      51.446   1.019  17.195  0.00  0.00    +0.000 N 
ATOM     31  C   UNL     1      51.064   2.326  17.375  0.00  0.00    +0.000 A 
ATOM     32  O   UNL     1      50.016   2.754  16.907  0.00  0.00    +0.000 OA
ATOM     33  C   UNL     1      51.991   3.117  18.162  0.00  0.00    +0.000 A 
ATOM     34  H   UNL     1      50.819   0.442  16.651  0.00  0.00    +0.000 HD
ENDBRANCH  21  24
ENDBRANCH  19  20
ENDBRANCH   4  19
TORSDOF 8
ENDMDL
MODEL 3
REMARK VINA RESULT:    -7.454      1.904      2.373
REMARK INTER + INTRA:         -12.045
REMARK INTER:                 -11.232
REMARK INTRA:                  -0.813
REMARK UNBOUND:                -1.105
REMARK  Name = 
REMARK  9 active torsions:
REMARK  status: ('A' for Active; 'I' for Inactive)
REMARK    1  A    between atoms: C_1  and  C_2
REMARK    2  A    between atoms: C_2  and  C_3
REMARK    3  A    between atoms: C_3  and  N_4
REMARK    4  A    between atoms: C_3  and  C_26
REMARK    5  A    between atoms: N_4  and  C_5
REMARK    6  A    between atoms: C_5  and  C_6
REMARK    7  A    between atoms: C_9  and  C_10
REMARK    8  A    between atoms: C_10  and  N_11
REMARK    9  A    between atoms: C_12  and  C_14
REMARK                            x       y       z     vdW  Elec       q    Type
REMARK                         _______ _______ _______ _____ _____    ______ ____
ROOT
ATOM      1  C   UNL     1      45.007   6.306  11.597  0.00  0.00    +0.000 A 
ATOM      2  C   UNL     1      45.981   5.546  12.261  0.00  0.00    +0.000 A 
ATOM      3  C   UNL     1      46.934   6.164  13.078  0.00  0.00    +0.000 A 
ATOM      4  C   UNL     1      46.936   7.555  13.245  0.00  0.00    +0.000 A 
ATOM      5  C   UNL     1      45.989   8.319  12.553  0.00  0.00    +0.000 A 
ATOM      6  C   UNL     1      45.032   7.701  11.745  0.00  0.00    +0.000 A 
ENDROOT
BRANCH   1   7
ATOM      7  C   UNL     1      44.001   5.667  10.661  0.00  0.00    +0.000 C 
BRANCH   7   8
ATOM      8  N   UNL     1      44.632   5.034   9.499  0.00  0.00    +0.000 NA
ATOM      9  H   UNL     1      44.201   5.393   8.652  0.00  0.00    +0.000 HD
BRANCH   8  10
ATOM     10  C   UNL     1      44.511   3.560   9.507  0.00  0.00    +0.000 C 
BRANCH  10  11
ATOM     11  C   UNL     1      45.445   2.879   8.501  0.00  0.00    +0.000 A 
ATOM     12  C   UNL     1      46.041   3.618   7.480  0.00  0.00    +0.000 A 
ATOM     13  C   UNL     1      46.920   2.975   6.609  0.00  0.00    +0.000 A 
ATOM     14  C   UNL     1      47.194   1.624   6.787  0.00  0.00    +0.000 A 
ATOM     15  C   UNL     1      46.578   0.965   7.832  0.00  0.00    +0.000 A 
ATOM     16  N   UNL     1      45.719   1.559   8.687  0.00  0.00    +0.000 NA
ENDBRANCH  10  11
BRANCH  10  18
ATOM     17  C   UNL     1      43.335   2.469  11.541  0.00  0.00    +0.000 C 
ATOM     18  C   UNL     1      44.647   2.895  10.901  0.00  0.00    +0.000 C 
ENDBRANCH  10  18
ENDBRANCH   8  10
ENDBRANCH   7   8
ENDBRANCH   1   7
BRANCH   4  19
ATOM     19  C   UNL     1      47.969   8.228  14.107  0.00  0.00    +0.000 C 
BRANCH  19  20
ATOM     20  N   UNL     1      47.992   7.655  15.427  0.00  0.00    +0.000 N 
ATOM     21  C   UNL     1      49.069   6.928  15.863  0.00  0.00    +0.000 C 
ATOM     22  O   UNL     1      50.073   6.774  15.172  0.00  0.00    +0.000 OA
ATOM     23  H   UNL     1      47.105   7.582  15.915  0.00  0.00    +0.000 HD
BRANCH  21  24
ATOM     24  C   UNL     1      48.991   6.393  17.227  0.00  0.00    +0.000 A 
ATOM     25  C   UNL     1      49.447   5.106  17.483  0.00  0.00    +0.000 A 
ATOM     26  S   UNL     1      49.337   4.654  19.124  0.00  0.00    +0.000 S 
ATOM     27  C   UNL     1      48.627   6.144  19.542  0.00  0.00    +0.000 A 
ATOM     28  N   UNL     1      48.258   6.406  20.822  0.00  0.00    +0.000 NA
ATOM     29  C   UNL     1      47.710   7.562  20.997  0.00  0.00    +0.000 A 
ATOM     30  N   UNL     1      47.499   8.481  20.000  0.00  0.00    +0.000 N 
ATOM     31  C   UNL     1      47.879   8.271  18.696  0.00  0.00    +0.000 A 
ATOM     32  O   UNL     1      47.708   9.129  17.838  0.00  0.00    +0.000 OA
ATOM     33  C   UNL     1      48.493   6.981  18.451  0.00  0.00    +0.000 A 
ATOM     34  H   UNL     1      47.068   9.372  20.202  0.00  0.00    +0.000 HD
ENDBRANCH  21  24
ENDBRANCH  19  20
ENDBRANCH   4  19
TORSDOF 8
ENDMDL
MODEL 4
REMARK VINA RESULT:    -7.430      1.561      2.115
REMARK INTER + INTRA:         -12.009
REMARK INTER:                 -10.664
REMARK INTRA:                  -1.345
REMARK UNBOUND:                -1.105
REMARK  Name = 
REMARK  9 active torsions:
REMARK  status: ('A' for Active; 'I' for Inactive)
REMARK    1  A    between atoms: C_1  and  C_2
REMARK    2  A    between atoms: C_2  and  C_3
REMARK    3  A    between atoms: C_3  and  N_4
REMARK    4  A    between atoms: C_3  and  C_26
REMARK    5  A    between atoms: N_4  and  C_5
REMARK    6  A    between atoms: C_5  and  C_6
REMARK    7  A    between atoms: C_9  and  C_10
REMARK    8  A    between atoms: C_10  and  N_11
REMARK    9  A    between atoms: C_12  and  C_14
REMARK                            x       y       z     vdW  Elec       q    Type
REMARK                         _______ _______ _______ _____ _____    ______ ____
ROOT
ATOM      1  C   UNL     1      46.322   6.384  11.970  0.00  0.00    +0.000 A 
ATOM      2  C   UNL     1      47.259   7.253  11.394  0.00  0.00    +0.000 A 
ATOM      3  C   UNL     1      48.433   7.591  12.075  0.00  0.00    +0.000 A 
ATOM      4  C   UNL     1      48.692   7.072  13.350  0.00  0.00    +0.000 A 
ATOM      5  C   UNL     1      47.740   6.234  13.943  0.00  0.00    +0.000 A 
ATOM      6  C   UNL     1      46.573   5.888  13.258  0.00  0.00    +0.000 A 
ENDROOT
BRANCH   1   7
ATOM      7  C   UNL     1      45.017   6.048  11.276  0.00  0.00    +0.000 C 
BRANCH   7   8
ATOM      8  N   UNL     1      45.214   5.535   9.917  0.00  0.00    +0.000 NA
ATOM      9  H   UNL     1      44.678   6.104   9.268  0.00  0.00    +0.000 HD
BRANCH   8  10
ATOM     10  C   UNL     1      44.801   4.123   9.767  0.00  0.00    +0.000 C 
BRANCH  10  11
ATOM     11  C   UNL     1      45.618   3.372   8.710  0.00  0.00    +0.000 A 
ATOM     12  C   UNL     1      45.809   1.995   8.813  0.00  0.00    +0.000 A 
ATOM     13  C   UNL     1      46.519   1.337   7.810  0.00  0.00    +0.000 A 
ATOM     14  C   UNL     1      47.004   2.061   6.727  0.00  0.00    +0.000 A 
ATOM     15  C   UNL     1      46.759   3.419   6.688  0.00  0.00    +0.000 A 
ATOM     16  N   UNL     1      46.080   4.084   7.646  0.00  0.00    +0.000 NA
ENDBRANCH  10  11
BRANCH  10  18
ATOM     17  C   UNL     1      43.358   2.869  11.515  0.00  0.00    +0.000 C 
ATOM     18  C   UNL     1      44.749   3.308  11.084  0.00  0.00    +0.000 C 
ENDBRANCH  10  18
ENDBRANCH   8  10
ENDBRANCH   7   8
ENDBRANCH   1   7
BRANCH   4  19
ATOM     19  C   UNL     1      49.943   7.445  14.097  0.00  0.00    +0.000 C 
BRANCH  19  20
ATOM     20  N   UNL     1      49.790   7.210  15.509  0.00  0.00    +0.000 N 
ATOM     21  C   UNL     1      50.872   6.921  16.299  0.00  0.00    +0.000 C 
ATOM     22  O   UNL     1      52.016   6.897  15.851  0.00  0.00    +0.000 OA
ATOM     23  H   UNL     1      48.854   7.009  15.846  0.00  0.00    +0.000 HD
BRANCH  21  24
ATOM     24  C   UNL     1      50.606   6.704  17.725  0.00  0.00    +0.000 A 
ATOM     25  C   UNL     1      51.179   7.551  18.665  0.00  0.00    +0.000 A 
ATOM     26  S   UNL     1      50.728   7.197  20.271  0.00  0.00    +0.000 S 
ATOM     27  C   UNL     1      49.792   5.866  19.772  0.00  0.00    +0.000 A 
ATOM     28  N   UNL     1      49.137   5.095  20.678  0.00  0.00    +0.000 NA
ATOM     29  C   UNL     1      48.485   4.104  20.167  0.00  0.00    +0.000 A 
ATOM     30  N   UNL     1      48.431   3.817  18.826  0.00  0.00    +0.000 N 
ATOM     31  C   UNL     1      49.055   4.582  17.871  0.00  0.00    +0.000 A 
ATOM     32  O   UNL     1      48.956   4.318  16.679  0.00  0.00    +0.000 OA
ATOM     33  C   UNL     1      49.807   5.704  18.400  0.00  0.00    +0.000 A 
ATOM     34  H   UNL     1      47.898   3.028  18.488  0.00  0.00    +0.000 HD
ENDBRANCH  21  24
ENDBRANCH  19  20
ENDBRANCH   4  19
TORSDOF 8
ENDMDL
MODEL 5
REMARK VINA RESULT:    -7.190      2.880      8.131
REMARK INTER + INTRA:         -11.658
REMARK INTER:                  -9.911
REMARK INTRA:                  -1.747
REMARK UNBOUND:                -1.105
REMARK  Name = 
REMARK  9 active torsions:
REMARK  status: ('A' for Active; 'I' for Inactive)
REMARK    1  A    between atoms: C_1  and  C_2
REMARK    2  A    between atoms: C_2  and  C_3
REMARK    3  A    between atoms: C_3  and  N_4
REMARK    4  A    between atoms: C_3  and  C_26
REMARK    5  A    between atoms: N_4  and  C_5
REMARK    6  A    between atoms: C_5  and  C_6
REMARK    7  A    between atoms: C_9  and  C_10
REMARK    8  A    between atoms: C_10  and  N_11
REMARK    9  A    between atoms: C_12  and  C_14
REMARK                            x       y       z     vdW  Elec       q    Type
REMARK                         _______ _______ _______ _____ _____    ______ ____
ROOT
ATOM      1  C   UNL     1      49.630   8.292  15.766  0.00  0.00    +0.000 A 
ATOM      2  C   UNL     1      50.221   7.516  14.758  0.00  0.00    +0.000 A 
ATOM      3  C   UNL     1      49.627   7.414  13.496  0.00  0.00    +0.000 A 
ATOM      4  C   UNL     1      48.427   8.081  13.216  0.00  0.00    +0.000 A 
ATOM      5  C   UNL     1      47.816   8.825  14.232  0.00  0.00    +0.000 A 
ATOM      6  C   UNL     1      48.415   8.935  15.489  0.00  0.00    +0.000 A 
ENDROOT
BRANCH   1   7
ATOM      7  C   UNL     1      50.223   8.372  17.159  0.00  0.00    +0.000 C 
BRANCH   7   8
ATOM      8  N   UNL     1      50.054   7.129  17.918  0.00  0.00    +0.000 NA
ATOM      9  H   UNL     1      50.664   6.417  17.528  0.00  0.00    +0.000 HD
BRANCH   8  10
ATOM     10  C   UNL     1      48.663   6.627  17.901  0.00  0.00    +0.000 C 
BRANCH  10  11
ATOM     11  C   UNL     1      48.566   5.153  17.495  0.00  0.00    +0.000 A 
ATOM     12  C   UNL     1      47.736   4.763  16.446  0.00  0.00    +0.000 A 
ATOM     13  C   UNL     1      47.706   3.419  16.075  0.00  0.00    +0.000 A 
ATOM     14  C   UNL     1      48.512   2.506  16.745  0.00  0.00    +0.000 A 
ATOM     15  C   UNL     1      49.319   2.972  17.762  0.00  0.00    +0.000 A 
ATOM     16  N   UNL     1      49.366   4.265  18.147  0.00  0.00    +0.000 NA
ENDBRANCH  10  11
BRANCH  10  18
ATOM     17  C   UNL     1      47.213   8.258  19.296  0.00  0.00    +0.000 C 
ATOM     18  C   UNL     1      47.853   6.883  19.197  0.00  0.00    +0.000 C 
ENDBRANCH  10  18
ENDBRANCH   8  10
ENDBRANCH   7   8
ENDBRANCH   1   7
BRANCH   4  19
ATOM     19  C   UNL     1      47.773   7.960  11.867  0.00  0.00    +0.000 C 
BRANCH  19  20
ATOM     20  N   UNL     1      47.054   6.718  11.751  0.00  0.00    +0.000 N 
ATOM     21  C   UNL     1      45.685   6.686  11.801  0.00  0.00    +0.000 C 
ATOM     22  O   UNL     1      45.014   7.711  11.900  0.00  0.00    +0.000 OA
ATOM     23  H   UNL     1      47.583   5.863  11.893  0.00  0.00    +0.000 HD
BRANCH  21  24
ATOM     24  C   UNL     1      45.053   5.369  11.669  0.00  0.00    +0.000 A 
ATOM     25  C   UNL     1      44.401   4.811  12.760  0.00  0.00    +0.000 A 
ATOM     26  S   UNL     1      43.675   3.304  12.427  0.00  0.00    +0.000 S 
ATOM     27  C   UNL     1      44.251   3.320  10.826  0.00  0.00    +0.000 A 
ATOM     28  N   UNL     1      43.996   2.287   9.983  0.00  0.00    +0.000 NA
ATOM     29  C   UNL     1      44.512   2.414   8.806  0.00  0.00    +0.000 A 
ATOM     30  N   UNL     1      45.263   3.488   8.399  0.00  0.00    +0.000 N 
ATOM     31  C   UNL     1      45.525   4.568   9.207  0.00  0.00    +0.000 A 
ATOM     32  O   UNL     1      46.169   5.527   8.799  0.00  0.00    +0.000 OA
ATOM     33  C   UNL     1      44.971   4.465  10.543  0.00  0.00    +0.000 A 
ATOM     34  H   UNL     1      45.636   3.531   7.461  0.00  0.00    +0.000 HD
ENDBRANCH  21  24
ENDBRANCH  19  20
ENDBRANCH   4  19
TORSDOF 8
ENDMDL
MODEL 6
REMARK VINA RESULT:    -7.186      1.617      2.116
REMARK INTER + INTRA:         -11.652
REMARK INTER:                 -10.389
REMARK INTRA:                  -1.262
REMARK UNBOUND:                -1.105
REMARK  Name = 
REMARK  9 active torsions:
REMARK  status: ('A' for Active; 'I' for Inactive)
REMARK    1  A    between atoms: C_1  and  C_2
REMARK    2  A    between atoms: C_2  and  C_3
REMARK    3  A    between atoms: C_3  and  N_4
REMARK    4  A    between atoms: C_3  and  C_26
REMARK    5  A    between atoms: N_4  and  C_5
REMARK    6  A    between atoms: C_5  and  C_6
REMARK    7  A    between atoms: C_9  and  C_10
REMARK    8  A    between atoms: C_10  and  N_11
REMARK    9  A    between atoms: C_12  and  C_14
REMARK                            x       y       z     vdW  Elec       q    Type
REMARK                         _______ _______ _______ _____ _____    ______ ____
ROOT
ATOM      1  C   UNL     1      45.679   7.123  11.946  0.00  0.00    +0.000 A 
ATOM      2  C   UNL     1      45.673   8.187  12.859  0.00  0.00    +0.000 A 
ATOM      3  C   UNL     1      46.872   8.772  13.281  0.00  0.00    +0.000 A 
ATOM      4  C   UNL     1      48.102   8.302  12.805  0.00  0.00    +0.000 A 
ATOM      5  C   UNL     1      48.112   7.214  11.923  0.00  0.00    +0.000 A 
ATOM      6  C   UNL     1      46.915   6.637  11.494  0.00  0.00    +0.000 A 
ENDROOT
BRANCH   1   7
ATOM      7  C   UNL     1      44.398   6.435  11.518  0.00  0.00    +0.000 C 
BRANCH   7   8
ATOM      8  N   UNL     1      44.503   5.821  10.191  0.00  0.00    +0.000 NA
ATOM      9  H   UNL     1      43.785   6.212   9.587  0.00  0.00    +0.000 HD
BRANCH   8  10
ATOM     10  C   UNL     1      44.350   4.350  10.222  0.00  0.00    +0.000 C 
BRANCH  10  11
ATOM     11  C   UNL     1      45.196   3.640   9.159  0.00  0.00    +0.000 A 
ATOM     12  C   UNL     1      45.278   2.249   9.137  0.00  0.00    +0.000 A 
ATOM     13  C   UNL     1      46.021   1.635   8.129  0.00  0.00    +0.000 A 
ATOM     14  C   UNL     1      46.646   2.417   7.165  0.00  0.00    +0.000 A 
ATOM     15  C   UNL     1      46.504   3.788   7.246  0.00  0.00    +0.000 A 
ATOM     16  N   UNL     1      45.796   4.411   8.212  0.00  0.00    +0.000 NA
ENDBRANCH  10  11
BRANCH  10  18
ATOM     17  C   UNL     1      43.400   2.863  12.118  0.00  0.00    +0.000 C 
ATOM     18  C   UNL     1      44.568   3.693  11.608  0.00  0.00    +0.000 C 
ENDBRANCH  10  18
ENDBRANCH   8  10
ENDBRANCH   7   8
ENDBRANCH   1   7
BRANCH   4  19
ATOM     19  C   UNL     1      49.396   8.913  13.269  0.00  0.00    +0.000 C 
BRANCH  19  20
ATOM     20  N   UNL     1      50.156   7.976  14.054  0.00  0.00    +0.000 N 
ATOM     21  C   UNL     1      50.235   8.097  15.417  0.00  0.00    +0.000 C 
ATOM     22  O   UNL     1      49.627   8.972  16.028  0.00  0.00    +0.000 OA
ATOM     23  H   UNL     1      50.829   7.398  13.560  0.00  0.00    +0.000 HD
BRANCH  21  24
ATOM     24  C   UNL     1      51.032   7.086  16.121  0.00  0.00    +0.000 A 
ATOM     25  C   UNL     1      52.414   7.218  16.170  0.00  0.00    +0.000 A 
ATOM     26  S   UNL     1      53.187   5.993  17.069  0.00  0.00    +0.000 S 
ATOM     27  C   UNL     1      51.707   5.214  17.382  0.00  0.00    +0.000 A 
ATOM     28  N   UNL     1      51.663   4.063  18.101  0.00  0.00    +0.000 NA
ATOM     29  C   UNL     1      50.481   3.563  18.243  0.00  0.00    +0.000 A 
ATOM     30  N   UNL     1      49.336   4.117  17.728  0.00  0.00    +0.000 N 
ATOM     31  C   UNL     1      49.328   5.292  17.016  0.00  0.00    +0.000 A 
ATOM     32  O   UNL     1      48.282   5.777  16.602  0.00  0.00    +0.000 OA
ATOM     33  C   UNL     1      50.636   5.886  16.826  0.00  0.00    +0.000 A 
ATOM     34  H   UNL     1      48.438   3.679  17.878  0.00  0.00    +0.000 HD
ENDBRANCH  21  24
ENDBRANCH  19  20
ENDBRANCH   4  19
TORSDOF 8
ENDMDL
MODEL 7
REMARK VINA RESULT:    -6.749      3.429      8.082
REMARK INTER + INTRA:         -11.011
REMARK INTER:                  -8.650
REMARK INTRA:                  -2.361
REMARK UNBOUND:                -1.105
REMARK  Name = 
REMARK  9 active torsions:
REMARK  status: ('A' for Active; 'I' for Inactive)
REMARK    1  A    between atoms: C_1  and  C_2
REMARK    2  A    between atoms: C_2  and  C_3
REMARK    3  A    between atoms: C_3  and  N_4
REMARK    4  A    between atoms: C_3  and  C_26
REMARK    5  A    between atoms: N_4  and  C_5
REMARK    6  A    between atoms: C_5  and  C_6
REMARK    7  A    between atoms: C_9  and  C_10
REMARK    8  A    between atoms: C_10  and  N_11
REMARK    9  A    between atoms: C_12  and  C_14
REMARK                            x       y       z     vdW  Elec       q    Type
REMARK                         _______ _______ _______ _____ _____    ______ ____
ROOT
ATOM      1  C   UNL     1      51.072   7.099  17.312  0.00  0.00    +0.000 A 
ATOM      2  C   UNL     1      51.066   6.918  15.922  0.00  0.00    +0.000 A 
ATOM      3  C   UNL     1      50.135   7.586  15.119  0.00  0.00    +0.000 A 
ATOM      4  C   UNL     1      49.187   8.445  15.691  0.00  0.00    +0.000 A 
ATOM      5  C   UNL     1      49.167   8.597  17.082  0.00  0.00    +0.000 A 
ATOM      6  C   UNL     1      50.103   7.938  17.882  0.00  0.00    +0.000 A 
ENDROOT
BRANCH   1   7
ATOM      7  C   UNL     1      52.032   6.342  18.208  0.00  0.00    +0.000 C 
BRANCH   7   8
ATOM      8  N   UNL     1      51.344   5.509  19.199  0.00  0.00    +0.000 NA
ATOM      9  H   UNL     1      51.905   5.468  20.045  0.00  0.00    +0.000 HD
BRANCH   8  10
ATOM     10  C   UNL     1      51.098   4.130  18.723  0.00  0.00    +0.000 C 
BRANCH  10  11
ATOM     11  C   UNL     1      49.687   3.938  18.155  0.00  0.00    +0.000 A 
ATOM     12  C   UNL     1      48.630   4.724  18.611  0.00  0.00    +0.000 A 
ATOM     13  C   UNL     1      47.370   4.553  18.041  0.00  0.00    +0.000 A 
ATOM     14  C   UNL     1      47.198   3.620  17.025  0.00  0.00    +0.000 A 
ATOM     15  C   UNL     1      48.298   2.892  16.616  0.00  0.00    +0.000 A 
ATOM     16  N   UNL     1      49.529   3.031  17.153  0.00  0.00    +0.000 NA
ENDBRANCH  10  11
BRANCH  10  18
ATOM     17  C   UNL     1      52.946   2.380  18.242  0.00  0.00    +0.000 C 
ATOM     18  C   UNL     1      52.155   3.575  17.734  0.00  0.00    +0.000 C 
ENDBRANCH  10  18
ENDBRANCH   8  10
ENDBRANCH   7   8
ENDBRANCH   1   7
BRANCH   4  19
ATOM     19  C   UNL     1      48.171   9.153  14.836  0.00  0.00    +0.000 C 
BRANCH  19  20
ATOM     20  N   UNL     1      47.214   8.223  14.295  0.00  0.00    +0.000 N 
ATOM     21  C   UNL     1      47.034   8.102  12.942  0.00  0.00    +0.000 C 
ATOM     22  O   UNL     1      47.706   8.741  12.137  0.00  0.00    +0.000 OA
ATOM     23  H   UNL     1      46.511   7.861  14.932  0.00  0.00    +0.000 HD
BRANCH  21  24
ATOM     24  C   UNL     1      46.037   7.121  12.498  0.00  0.00    +0.000 A 
ATOM     25  C   UNL     1      44.925   7.551  11.786  0.00  0.00    +0.000 A 
ATOM     26  S   UNL     1      43.893   6.285  11.297  0.00  0.00    +0.000 S 
ATOM     27  C   UNL     1      44.869   5.121  12.064  0.00  0.00    +0.000 A 
ATOM     28  N   UNL     1      44.532   3.806  12.046  0.00  0.00    +0.000 NA
ATOM     29  C   UNL     1      45.345   3.034  12.686  0.00  0.00    +0.000 A 
ATOM     30  N   UNL     1      46.469   3.465  13.345  0.00  0.00    +0.000 N 
ATOM     31  C   UNL     1      46.864   4.780  13.370  0.00  0.00    +0.000 A 
ATOM     32  O   UNL     1      47.894   5.125  13.938  0.00  0.00    +0.000 OA
ATOM     33  C   UNL     1      45.976   5.686  12.668  0.00  0.00    +0.000 A 
ATOM     34  H   UNL     1      47.069   2.809  13.825  0.00  0.00    +0.000 HD
ENDBRANCH  21  24
ENDBRANCH  19  20
ENDBRANCH   4  19
TORSDOF 8
ENDMDL
MODEL 8
REMARK VINA RESULT:    -6.734      5.106      6.658
REMARK INTER + INTRA:         -10.988
REMARK INTER:                  -9.973
REMARK INTRA:                  -1.015
REMARK UNBOUND:                -1.105
REMARK  Name = 
REMARK  9 active torsions:
REMARK  status: ('A' for Active; 'I' for Inactive)
REMARK    1  A    between atoms: C_1  and  C_2
REMARK    2  A    between atoms: C_2  and  C_3
REMARK    3  A    between atoms: C_3  and  N_4
REMARK    4  A    between atoms: C_3  and  C_26
REMARK    5  A    between atoms: N_4  and  C_5
REMARK    6  A    between atoms: C_5  and  C_6
REMARK    7  A    between atoms: C_9  and  C_10
REMARK    8  A    between atoms: C_10  and  N_11
REMARK    9  A    between atoms: C_12  and  C_14
REMARK                            x       y       z     vdW  Elec       q    Type
REMARK                         _______ _______ _______ _____ _____    ______ ____
ROOT
ATOM      1  C   UNL     1      47.063   7.279  12.461  0.00  0.00    +0.000 A 
ATOM      2  C   UNL     1      47.202   8.624  12.092  0.00  0.00    +0.000 A 
ATOM      3  C   UNL     1      48.458   9.151  11.774  0.00  0.00    +0.000 A 
ATOM      4  C   UNL     1      49.602   8.345  11.823  0.00  0.00    +0.000 A 
ATOM      5  C   UNL     1      49.471   7.011  12.228  0.00  0.00    +0.000 A 
ATOM      6  C   UNL     1      48.216   6.483  12.535  0.00  0.00    +0.000 A 
ENDROOT
BRANCH   1   7
ATOM      7  C   UNL     1      45.722   6.699  12.865  0.00  0.00    +0.000 C 
BRANCH   7   8
ATOM      8  N   UNL     1      45.448   5.408  12.226  0.00  0.00    +0.000 NA
ATOM      9  H   UNL     1      46.328   4.934  12.047  0.00  0.00    +0.000 HD
BRANCH   8  10
ATOM     10  C   UNL     1      44.709   5.541  10.951  0.00  0.00    +0.000 C 
BRANCH  10  11
ATOM     11  C   UNL     1      45.115   4.489   9.914  0.00  0.00    +0.000 A 
ATOM     12  C   UNL     1      44.773   3.150  10.096  0.00  0.00    +0.000 A 
ATOM     13  C   UNL     1      45.120   2.227   9.110  0.00  0.00    +0.000 A 
ATOM     14  C   UNL     1      45.781   2.661   7.967  0.00  0.00    +0.000 A 
ATOM     15  C   UNL     1      46.069   4.006   7.852  0.00  0.00    +0.000 A 
ATOM     16  N   UNL     1      45.751   4.922   8.791  0.00  0.00    +0.000 NA
ENDBRANCH  10  11
BRANCH  10  18
ATOM     17  C   UNL     1      42.623   5.180  12.444  0.00  0.00    +0.000 C 
ATOM     18  C   UNL     1      43.166   5.595  11.086  0.00  0.00    +0.000 C 
ENDBRANCH  10  18
ENDBRANCH   8  10
ENDBRANCH   7   8
ENDBRANCH   1   7
BRANCH   4  19
ATOM     19  C   UNL     1      50.959   8.910  11.501  0.00  0.00    +0.000 C 
BRANCH  19  20
ATOM     20  N   UNL     1      51.890   7.861  11.174  0.00  0.00    +0.000 N 
ATOM     21  C   UNL     1      52.656   7.925  10.040  0.00  0.00    +0.000 C 
ATOM     22  O   UNL     1      52.619   8.893   9.284  0.00  0.00    +0.000 OA
ATOM     23  H   UNL     1      51.774   6.974  11.654  0.00  0.00    +0.000 HD
BRANCH  21  24
ATOM     24  C   UNL     1      53.575   6.805   9.804  0.00  0.00    +0.000 A 
ATOM     25  C   UNL     1      54.513   6.475  10.773  0.00  0.00    +0.000 A 
ATOM     26  S   UNL     1      55.467   5.120  10.369  0.00  0.00    +0.000 S 
ATOM     27  C   UNL     1      54.695   4.958   8.862  0.00  0.00    +0.000 A 
ATOM     28  N   UNL     1      55.060   3.982   7.992  0.00  0.00    +0.000 NA
ATOM     29  C   UNL     1      54.411   3.987   6.875  0.00  0.00    +0.000 A 
ATOM     30  N   UNL     1      53.426   4.886   6.553  0.00  0.00    +0.000 N 
ATOM     31  C   UNL     1      53.004   5.874   7.410  0.00  0.00    +0.000 A 
ATOM     32  O   UNL     1      52.096   6.637   7.104  0.00  0.00    +0.000 OA
ATOM     33  C   UNL     1      53.711   5.911   8.675  0.00  0.00    +0.000 A 
ATOM     34  H   UNL     1      52.951   4.834   5.663  0.00  0.00    +0.000 HD
ENDBRANCH  21  24
ENDBRANCH  19  20
ENDBRANCH   4  19
TORSDOF 8
ENDMDL
MODEL 9
REMARK VINA RESULT:    -6.684      3.252      8.719
REMARK INTER + INTRA:         -10.915
REMARK INTER:                  -9.743
REMARK INTRA:                  -1.172
REMARK UNBOUND:                -1.105
REMARK  Name = 
REMARK  9 active torsions:
REMARK  status: ('A' for Active; 'I' for Inactive)
REMARK    1  A    between atoms: C_1  and  C_2
REMARK    2  A    between atoms: C_2  and  C_3
REMARK    3  A    between atoms: C_3  and  N_4
REMARK    4  A    between atoms: C_3  and  C_26
REMARK    5  A    between atoms: N_4  and  C_5
REMARK    6  A    between atoms: C_5  and  C_6
REMARK    7  A    between atoms: C_9  and  C_10
REMARK    8  A    between atoms: C_10  and  N_11
REMARK    9  A    between atoms: C_12  and  C_14
REMARK                            x       y       z     vdW  Elec       q    Type
REMARK                         _______ _______ _______ _____ _____    ______ ____
ROOT
ATOM      1  C   UNL     1      49.979   7.463  15.512  0.00  0.00    +0.000 A 
ATOM      2  C   UNL     1      48.858   6.631  15.383  0.00  0.00    +0.000 A 
ATOM      3  C   UNL     1      48.024   6.725  14.263  0.00  0.00    +0.000 A 
ATOM      4  C   UNL     1      48.291   7.656  13.252  0.00  0.00    +0.000 A 
ATOM      5  C   UNL     1      49.388   8.514  13.397  0.00  0.00    +0.000 A 
ATOM      6  C   UNL     1      50.226   8.413  14.509  0.00  0.00    +0.000 A 
ENDROOT
BRANCH   1   7
ATOM      7  C   UNL     1      50.864   7.420  16.741  0.00  0.00    +0.000 C 
BRANCH   7   8
ATOM      8  N   UNL     1      51.572   6.144  16.885  0.00  0.00    +0.000 NA
ATOM      9  H   UNL     1      51.543   5.649  15.999  0.00  0.00    +0.000 HD
BRANCH   8  10
ATOM     10  C   UNL     1      50.993   5.278  17.935  0.00  0.00    +0.000 C 
BRANCH  10  11
ATOM     11  C   UNL     1      51.334   3.796  17.742  0.00  0.00    +0.000 A 
ATOM     12  C   UNL     1      52.540   3.283  18.215  0.00  0.00    +0.000 A 
ATOM     13  C   UNL     1      52.799   1.922  18.061  0.00  0.00    +0.000 A 
ATOM     14  C   UNL     1      51.847   1.108  17.458  0.00  0.00    +0.000 A 
ATOM     15  C   UNL     1      50.670   1.688  17.031  0.00  0.00    +0.000 A 
ATOM     16  N   UNL     1      50.393   3.003  17.161  0.00  0.00    +0.000 NA
ENDBRANCH  10  11
BRANCH  10  18
ATOM     17  C   UNL     1      50.150   5.523  20.372  0.00  0.00    +0.000 C 
ATOM     18  C   UNL     1      51.296   5.714  19.391  0.00  0.00    +0.000 C 
ENDBRANCH  10  18
ENDBRANCH   8  10
ENDBRANCH   7   8
ENDBRANCH   1   7
BRANCH   4  19
ATOM     19  C   UNL     1      47.388   7.776  12.054  0.00  0.00    +0.000 C 
BRANCH  19  20
ATOM     20  N   UNL     1      46.741   6.523  11.768  0.00  0.00    +0.000 N 
ATOM     21  C   UNL     1      45.377   6.436  11.679  0.00  0.00    +0.000 C 
ATOM     22  O   UNL     1      44.654   7.424  11.791  0.00  0.00    +0.000 OA
ATOM     23  H   UNL     1      47.292   5.679  11.893  0.00  0.00    +0.000 HD
BRANCH  21  24
ATOM     24  C   UNL     1      44.820   5.112  11.379  0.00  0.00    +0.000 A 
ATOM     25  C   UNL     1      44.049   4.462  12.334  0.00  0.00    +0.000 A 
ATOM     26  S   UNL     1      43.434   2.960  11.811  0.00  0.00    +0.000 S 
ATOM     27  C   UNL     1      44.220   3.101  10.308  0.00  0.00    +0.000 A 
ATOM     28  N   UNL     1      44.121   2.120   9.375  0.00  0.00    +0.000 NA
ATOM     29  C   UNL     1      44.785   2.342   8.290  0.00  0.00    +0.000 A 
ATOM     30  N   UNL     1      45.541   3.463   8.057  0.00  0.00    +0.000 N 
ATOM     31  C   UNL     1      45.650   4.493   8.959  0.00  0.00    +0.000 A 
ATOM     32  O   UNL     1      46.304   5.497   8.704  0.00  0.00    +0.000 OA
ATOM     33  C   UNL     1      44.925   4.284  10.198  0.00  0.00    +0.000 A 
ATOM     34  H   UNL     1      46.035   3.581   7.183  0.00  0.00    +0.000 HD
ENDBRANCH  21  24
ENDBRANCH  19  20
ENDBRANCH   4  19
TORSDOF 8
ENDMDL
