MODEL 1
REMARK VINA RESULT:    -8.158      0.000      0.000
REMARK INTER + INTRA:         -12.072
REMARK INTER:                 -11.258
REMARK INTRA:                  -0.813
REMARK UNBOUND:                -0.813
REMARK  Name = 
REMARK  10 active torsions:
REMARK  status: ('A' for Active; 'I' for Inactive)
REMARK    1  A    between atoms: C_1  and  C_2
REMARK    2  A    between atoms: C_2  and  C_3
REMARK    3  A    between atoms: C_2  and  C_4
REMARK    4  A    between atoms: C_2  and  C_5
REMARK    5  A    between atoms: C_7  and  O_8
REMARK    6  A    between atoms: O_8  and  C_9
REMARK    7  A    between atoms: C_9  and  C_10
REMARK    8  A    between atoms: C_13  and  C_14
REMARK    9  A    between atoms: C_14  and  N_15
REMARK   10  A    between atoms: C_19  and  C_20
REMARK                            x       y       z     vdW  Elec       q    Type
REMARK                         _______ _______ _______ _____ _____    ______ ____
ROOT
ATOM      1  C   UNL     1      47.657   7.066  12.530  0.00  0.00    +0.000 A 
ATOM      2  C   UNL     1      46.595   6.931  11.617  0.00  0.00    +0.000 A 
ATOM      3  C   UNL     1      45.676   5.880  11.686  0.00  0.00    +0.000 A 
ATOM      4  C   UNL     1      45.801   4.929  12.695  0.00  0.00    +0.000 A 
ATOM      5  C   UNL     1      46.840   5.033  13.626  0.00  0.00    +0.000 A 
ATOM      6  C   UNL     1      47.760   6.094  13.539  0.00  0.00    +0.000 A 
ENDROOT
BRANCH   5   7
ATOM      7  C   UNL     1      47.033   4.013  14.691  0.00  0.00    +0.000 C 
ATOM      8  N   UNL     1      46.716   4.366  15.973  0.00  0.00    +0.000 N 
ATOM      9  O   UNL     1      47.481   2.902  14.441  0.00  0.00    +0.000 OA
ATOM     10  H   UNL     1      46.544   5.319  16.260  0.00  0.00    +0.000 HD
ATOM     11  H   UNL     1      46.916   3.684  16.695  0.00  0.00    +0.000 HD
ENDBRANCH   5   7
BRANCH   1  13
ATOM     12  C   UNL     1      49.786   7.817  11.396  0.00  0.00    +0.000 C 
ATOM     13  C   UNL     1      48.644   8.230  12.354  0.00  0.00    +0.000 C 
ATOM     14  C   UNL     1      49.249   8.588  13.731  0.00  0.00    +0.000 C 
ATOM     15  C   UNL     1      48.008   9.511  11.780  0.00  0.00    +0.000 C 
ENDBRANCH   1  13
BRANCH   3  16
ATOM     16  O   UNL     1      44.636   5.689  10.812  0.00  0.00    +0.000 OA
BRANCH  16  17
ATOM     17  C   UNL     1      44.244   4.326  10.616  0.00  0.00    +0.000 C 
BRANCH  17  18
ATOM     18  C   UNL     1      45.011   3.679   9.491  0.00  0.00    +0.000 A 
ATOM     19  C   UNL     1      45.664   4.493   8.554  0.00  0.00    +0.000 A 
ATOM     20  C   UNL     1      46.421   3.930   7.527  0.00  0.00    +0.000 A 
ATOM     21  C   UNL     1      46.550   2.539   7.423  0.00  0.00    +0.000 A 
ATOM     22  C   UNL     1      45.918   1.728   8.376  0.00  0.00    +0.000 A 
ATOM     23  C   UNL     1      45.161   2.292   9.405  0.00  0.00    +0.000 A 
BRANCH  21  24
ATOM     24  C   UNL     1      47.329   1.925   6.291  0.00  0.00    +0.000 C 
BRANCH  24  25
ATOM     25  N   UNL     1      48.666   2.496   6.181  0.00  0.00    +0.000 NA
ATOM     26  H   UNL     1      48.666   3.416   6.621  0.00  0.00    +0.000 HD
ATOM     27  H   UNL     1      48.883   2.644   5.199  0.00  0.00    +0.000 HD
ENDBRANCH  24  25
ENDBRANCH  21  24
ENDBRANCH  17  18
ENDBRANCH  16  17
ENDBRANCH   3  16
TORSDOF 7
ENDMDL
MODEL 2
REMARK VINA RESULT:    -7.751      2.292      3.510
REMARK INTER + INTRA:         -11.509
REMARK INTER:                 -10.577
REMARK INTRA:                  -0.932
REMARK UNBOUND:                -0.813
REMARK  Name = 
REMARK  10 active torsions:
REMARK  status: ('A' for Active; 'I' for Inactive)
REMARK    1  A    between atoms: C_1  and  C_2
REMARK    2  A    between atoms: C_2  and  C_3
REMARK    3  A    between atoms: C_2  and  C_4
REMARK    4  A    between atoms: C_2  and  C_5
REMARK    5  A    between atoms: C_7  and  O_8
REMARK    6  A    between atoms: O_8  and  C_9
REMARK    7  A    between atoms: C_9  and  C_10
REMARK    8  A    between atoms: C_13  and  C_14
REMARK    9  A    between atoms: C_14  and  N_15
REMARK   10  A    between atoms: C_19  and  C_20
REMARK                            x       y       z     vdW  Elec       q    Type
REMARK                         _______ _______ _______ _____ _____    ______ ____
ROOT
ATOM      1  C   UNL     1      46.749   7.239  12.780  0.00  0.00    +0.000 A 
ATOM      2  C   UNL     1      46.247   5.945  12.551  0.00  0.00    +0.000 A 
ATOM      3  C   UNL     1      45.065   5.714  11.843  0.00  0.00    +0.000 A 
ATOM      4  C   UNL     1      44.352   6.796  11.333  0.00  0.00    +0.000 A 
ATOM      5  C   UNL     1      44.823   8.097  11.533  0.00  0.00    +0.000 A 
ATOM      6  C   UNL     1      46.012   8.313  12.254  0.00  0.00    +0.000 A 
ENDROOT
BRANCH   5   7
ATOM      7  C   UNL     1      44.067   9.281  11.043  0.00  0.00    +0.000 C 
ATOM      8  N   UNL     1      42.742   9.111  10.750  0.00  0.00    +0.000 N 
ATOM      9  O   UNL     1      44.609  10.367  10.883  0.00  0.00    +0.000 OA
ATOM     10  H   UNL     1      42.304   8.205  10.666  0.00  0.00    +0.000 HD
ATOM     11  H   UNL     1      42.259   9.908  10.355  0.00  0.00    +0.000 HD
ENDBRANCH   5   7
BRANCH   1  13
ATOM     12  C   UNL     1      48.177   6.228  14.603  0.00  0.00    +0.000 C 
ATOM     13  C   UNL     1      48.035   7.401  13.605  0.00  0.00    +0.000 C 
ATOM     14  C   UNL     1      47.960   8.727  14.396  0.00  0.00    +0.000 C 
ATOM     15  C   UNL     1      49.323   7.439  12.758  0.00  0.00    +0.000 C 
ENDBRANCH   1  13
BRANCH   3  16
ATOM     16  O   UNL     1      44.520   4.477  11.608  0.00  0.00    +0.000 OA
BRANCH  16  17
ATOM     17  C   UNL     1      43.940   4.300  10.310  0.00  0.00    +0.000 C 
BRANCH  17  18
ATOM     18  C   UNL     1      44.907   3.659   9.348  0.00  0.00    +0.000 A 
ATOM     19  C   UNL     1      45.064   2.265   9.367  0.00  0.00    +0.000 A 
ATOM     20  C   UNL     1      45.914   1.633   8.460  0.00  0.00    +0.000 A 
ATOM     21  C   UNL     1      46.616   2.380   7.506  0.00  0.00    +0.000 A 
ATOM     22  C   UNL     1      46.437   3.771   7.473  0.00  0.00    +0.000 A 
ATOM     23  C   UNL     1      45.586   4.404   8.380  0.00  0.00    +0.000 A 
BRANCH  21  24
ATOM     24  C   UNL     1      47.568   1.708   6.555  0.00  0.00    +0.000 C 
BRANCH  24  25
ATOM     25  N   UNL     1      48.750   2.523   6.305  0.00  0.00    +0.000 NA
ATOM     26  H   UNL     1      49.132   2.828   7.199  0.00  0.00    +0.000 HD
ATOM     27  H   UNL     1      48.473   3.365   5.805  0.00  0.00    +0.000 HD
ENDBRANCH  24  25
ENDBRANCH  21  24
ENDBRANCH  17  18
ENDBRANCH  16  17
ENDBRANCH   3  16
TORSDOF 7
ENDMDL
MODEL 3
REMARK VINA RESULT:    -6.629      3.359      7.427
REMARK INTER + INTRA:          -9.961
REMARK INTER:                  -9.199
REMARK INTRA:                  -0.762
REMARK UNBOUND:                -0.813
REMARK  Name = 
REMARK  10 active torsions:
REMARK  status: ('A' for Active; 'I' for Inactive)
REMARK    1  A    between atoms: C_1  and  C_2
REMARK    2  A    between atoms: C_2  and  C_3
REMARK    3  A    between atoms: C_2  and  C_4
REMARK    4  A    between atoms: C_2  and  C_5
REMARK    5  A    between atoms: C_7  and  O_8
REMARK    6  A    between atoms: O_8  and  C_9
REMARK    7  A    between atoms: C_9  and  C_10
REMARK    8  A    between atoms: C_13  and  C_14
REMARK    9  A    between atoms: C_14  and  N_15
REMARK   10  A    between atoms: C_19  and  C_20
REMARK                            x       y       z     vdW  Elec       q    Type
REMARK                         _______ _______ _______ _____ _____    ______ ____
ROOT
ATOM      1  C   UNL     1      45.581   5.101  12.077  0.00  0.00    +0.000 A 
ATOM      2  C   UNL     1      45.650   4.371  13.277  0.00  0.00    +0.000 A 
ATOM      3  C   UNL     1      46.639   4.601  14.238  0.00  0.00    +0.000 A 
ATOM      4  C   UNL     1      47.592   5.592  14.013  0.00  0.00    +0.000 A 
ATOM      5  C   UNL     1      47.551   6.343  12.834  0.00  0.00    +0.000 A 
ATOM      6  C   UNL     1      46.552   6.095  11.875  0.00  0.00    +0.000 A 
ENDROOT
BRANCH   5   7
ATOM      7  C   UNL     1      48.577   7.379  12.538  0.00  0.00    +0.000 C 
ATOM      8  N   UNL     1      49.780   7.284  13.181  0.00  0.00    +0.000 N 
ATOM      9  O   UNL     1      48.353   8.301  11.764  0.00  0.00    +0.000 OA
ATOM     10  H   UNL     1      49.940   6.675  13.971  0.00  0.00    +0.000 HD
ATOM     11  H   UNL     1      50.442   8.032  13.019  0.00  0.00    +0.000 HD
ENDBRANCH   5   7
BRANCH   1  13
ATOM     12  C   UNL     1      43.911   3.347  11.357  0.00  0.00    +0.000 C 
ATOM     13  C   UNL     1      44.483   4.752  11.058  0.00  0.00    +0.000 C 
ATOM     14  C   UNL     1      45.096   4.754   9.640  0.00  0.00    +0.000 C 
ATOM     15  C   UNL     1      43.297   5.737  11.053  0.00  0.00    +0.000 C 
ENDBRANCH   1  13
BRANCH   3  16
ATOM     16  O   UNL     1      46.766   3.908  15.415  0.00  0.00    +0.000 OA
BRANCH  16  17
ATOM     17  C   UNL     1      47.455   4.601  16.462  0.00  0.00    +0.000 C 
BRANCH  17  18
ATOM     18  C   UNL     1      48.719   3.888  16.868  0.00  0.00    +0.000 A 
ATOM     19  C   UNL     1      48.824   2.506  16.651  0.00  0.00    +0.000 A 
ATOM     20  C   UNL     1      49.996   1.822  16.971  0.00  0.00    +0.000 A 
ATOM     21  C   UNL     1      51.094   2.508  17.505  0.00  0.00    +0.000 A 
ATOM     22  C   UNL     1      50.996   3.894  17.697  0.00  0.00    +0.000 A 
ATOM     23  C   UNL     1      49.824   4.579  17.375  0.00  0.00    +0.000 A 
BRANCH  21  24
ATOM     24  C   UNL     1      52.345   1.768  17.893  0.00  0.00    +0.000 C 
BRANCH  24  25
ATOM     25  N   UNL     1      52.090   0.349  18.108  0.00  0.00    +0.000 NA
ATOM     26  H   UNL     1      52.112  -0.127  17.207  0.00  0.00    +0.000 HD
ATOM     27  H   UNL     1      51.149   0.233  18.475  0.00  0.00    +0.000 HD
ENDBRANCH  24  25
ENDBRANCH  21  24
ENDBRANCH  17  18
ENDBRANCH  16  17
ENDBRANCH   3  16
TORSDOF 7
ENDMDL
MODEL 4
REMARK VINA RESULT:    -6.486      3.555      6.870
REMARK INTER + INTRA:          -9.765
REMARK INTER:                  -8.982
REMARK INTRA:                  -0.783
REMARK UNBOUND:                -0.813
REMARK  Name = 
REMARK  10 active torsions:
REMARK  status: ('A' for Active; 'I' for Inactive)
REMARK    1  A    between atoms: C_1  and  C_2
REMARK    2  A    between atoms: C_2  and  C_3
REMARK    3  A    between atoms: C_2  and  C_4
REMARK    4  A    between atoms: C_2  and  C_5
REMARK    5  A    between atoms: C_7  and  O_8
REMARK    6  A    between atoms: O_8  and  C_9
REMARK    7  A    between atoms: C_9  and  C_10
REMARK    8  A    between atoms: C_13  and  C_14
REMARK    9  A    between atoms: C_14  and  N_15
REMARK   10  A    between atoms: C_19  and  C_20
REMARK                            x       y       z     vdW  Elec       q    Type
REMARK                         _______ _______ _______ _____ _____    ______ ____
ROOT
ATOM      1  C   UNL     1      47.203   6.715  12.812  0.00  0.00    +0.000 A 
ATOM      2  C   UNL     1      47.436   5.745  13.803  0.00  0.00    +0.000 A 
ATOM      3  C   UNL     1      46.561   4.678  14.028  0.00  0.00    +0.000 A 
ATOM      4  C   UNL     1      45.416   4.557  13.244  0.00  0.00    +0.000 A 
ATOM      5  C   UNL     1      45.154   5.498  12.243  0.00  0.00    +0.000 A 
ATOM      6  C   UNL     1      46.043   6.569  12.034  0.00  0.00    +0.000 A 
ENDROOT
BRANCH   5   7
ATOM      7  C   UNL     1      43.921   5.428  11.415  0.00  0.00    +0.000 C 
ATOM      8  N   UNL     1      43.304   6.605  11.093  0.00  0.00    +0.000 N 
ATOM      9  O   UNL     1      43.454   4.357  11.048  0.00  0.00    +0.000 OA
ATOM     10  H   UNL     1      43.524   7.485  11.537  0.00  0.00    +0.000 HD
ATOM     11  H   UNL     1      42.430   6.536  10.586  0.00  0.00    +0.000 HD
ENDBRANCH   5   7
BRANCH   1  13
ATOM     12  C   UNL     1      47.433   9.213  12.515  0.00  0.00    +0.000 C 
ATOM     13  C   UNL     1      48.198   7.877  12.662  0.00  0.00    +0.000 C 
ATOM     14  C   UNL     1      49.053   7.645  11.396  0.00  0.00    +0.000 C 
ATOM     15  C   UNL     1      49.165   8.032  13.853  0.00  0.00    +0.000 C 
ENDBRANCH   1  13
BRANCH   3  16
ATOM     16  O   UNL     1      46.727   3.716  14.992  0.00  0.00    +0.000 OA
BRANCH  16  17
ATOM     17  C   UNL     1      47.138   4.201  16.275  0.00  0.00    +0.000 C 
BRANCH  17  18
ATOM     18  C   UNL     1      48.438   3.580  16.719  0.00  0.00    +0.000 A 
ATOM     19  C   UNL     1      48.732   2.264  16.333  0.00  0.00    +0.000 A 
ATOM     20  C   UNL     1      49.946   1.674  16.686  0.00  0.00    +0.000 A 
ATOM     21  C   UNL     1      50.896   2.392  17.422  0.00  0.00    +0.000 A 
ATOM     22  C   UNL     1      50.610   3.716  17.785  0.00  0.00    +0.000 A 
ATOM     23  C   UNL     1      49.396   4.308  17.431  0.00  0.00    +0.000 A 
BRANCH  21  24
ATOM     24  C   UNL     1      52.187   1.745  17.843  0.00  0.00    +0.000 C 
BRANCH  24  25
ATOM     25  N   UNL     1      52.002   0.342  18.191  0.00  0.00    +0.000 NA
ATOM     26  H   UNL     1      52.550   0.138  19.026  0.00  0.00    +0.000 HD
ATOM     27  H   UNL     1      52.381  -0.238  17.446  0.00  0.00    +0.000 HD
ENDBRANCH  24  25
ENDBRANCH  21  24
ENDBRANCH  17  18
ENDBRANCH  16  17
ENDBRANCH   3  16
TORSDOF 7
ENDMDL
MODEL 5
REMARK VINA RESULT:    -6.266      2.650      4.371
REMARK INTER + INTRA:          -9.460
REMARK INTER:                  -8.801
REMARK INTRA:                  -0.659
REMARK UNBOUND:                -0.813
REMARK  Name = 
REMARK  10 active torsions:
REMARK  status: ('A' for Active; 'I' for Inactive)
REMARK    1  A    between atoms: C_1  and  C_2
REMARK    2  A    between atoms: C_2  and  C_3
REMARK    3  A    between atoms: C_2  and  C_4
REMARK    4  A    between atoms: C_2  and  C_5
REMARK    5  A    between atoms: C_7  and  O_8
REMARK    6  A    between atoms: O_8  and  C_9
REMARK    7  A    between atoms: C_9  and  C_10
REMARK    8  A    between atoms: C_13  and  C_14
REMARK    9  A    between atoms: C_14  and  N_15
REMARK   10  A    between atoms: C_19  and  C_20
REMARK                            x       y       z     vdW  Elec       q    Type
REMARK                         _______ _______ _______ _____ _____    ______ ____
ROOT
ATOM      1  C   UNL     1      48.165   5.138  16.310  0.00  0.00    +0.000 A 
ATOM      2  C   UNL     1      47.131   4.408  15.697  0.00  0.00    +0.000 A 
ATOM      3  C   UNL     1      46.671   4.697  14.409  0.00  0.00    +0.000 A 
ATOM      4  C   UNL     1      47.255   5.739  13.693  0.00  0.00    +0.000 A 
ATOM      5  C   UNL     1      48.292   6.483  14.267  0.00  0.00    +0.000 A 
ATOM      6  C   UNL     1      48.739   6.183  15.567  0.00  0.00    +0.000 A 
ENDROOT
BRANCH   5   7
ATOM      7  C   UNL     1      48.910   7.631  13.552  0.00  0.00    +0.000 C 
ATOM      8  N   UNL     1      49.994   7.376  12.759  0.00  0.00    +0.000 N 
ATOM      9  O   UNL     1      48.485   8.772  13.681  0.00  0.00    +0.000 OA
ATOM     10  H   UNL     1      50.505   6.505  12.781  0.00  0.00    +0.000 HD
ATOM     11  H   UNL     1      50.444   8.177  12.332  0.00  0.00    +0.000 HD
ENDBRANCH   5   7
BRANCH   1  13
ATOM     12  C   UNL     1      47.631   5.461  18.758  0.00  0.00    +0.000 C 
ATOM     13  C   UNL     1      48.579   4.778  17.746  0.00  0.00    +0.000 C 
ATOM     14  C   UNL     1      50.021   5.276  17.993  0.00  0.00    +0.000 C 
ATOM     15  C   UNL     1      48.553   3.265  18.045  0.00  0.00    +0.000 C 
ENDBRANCH   1  13
BRANCH   3  16
ATOM     16  O   UNL     1      45.655   4.032  13.772  0.00  0.00    +0.000 OA
BRANCH  16  17
ATOM     17  C   UNL     1      44.860   4.832  12.889  0.00  0.00    +0.000 C 
BRANCH  17  18
ATOM     18  C   UNL     1      45.110   4.488  11.443  0.00  0.00    +0.000 A 
ATOM     19  C   UNL     1      44.859   3.180  11.000  0.00  0.00    +0.000 A 
ATOM     20  C   UNL     1      45.034   2.837   9.660  0.00  0.00    +0.000 A 
ATOM     21  C   UNL     1      45.453   3.798   8.731  0.00  0.00    +0.000 A 
ATOM     22  C   UNL     1      45.678   5.111   9.171  0.00  0.00    +0.000 A 
ATOM     23  C   UNL     1      45.501   5.455  10.513  0.00  0.00    +0.000 A 
BRANCH  21  24
ATOM     24  C   UNL     1      45.686   3.423   7.293  0.00  0.00    +0.000 C 
BRANCH  24  25
ATOM     25  N   UNL     1      47.098   3.489   6.938  0.00  0.00    +0.000 NA
ATOM     26  H   UNL     1      47.192   3.316   5.938  0.00  0.00    +0.000 HD
ATOM     27  H   UNL     1      47.594   2.738   7.411  0.00  0.00    +0.000 HD
ENDBRANCH  24  25
ENDBRANCH  21  24
ENDBRANCH  17  18
ENDBRANCH  16  17
ENDBRANCH   3  16
TORSDOF 7
ENDMDL
MODEL 6
REMARK VINA RESULT:    -5.930      3.543      5.329
REMARK INTER + INTRA:          -8.997
REMARK INTER:                  -8.328
REMARK INTRA:                  -0.669
REMARK UNBOUND:                -0.813
REMARK  Name = 
REMARK  10 active torsions:
REMARK  status: ('A' for Active; 'I' for Inactive)
REMARK    1  A    between atoms: C_1  and  C_2
REMARK    2  A    between atoms: C_2  and  C_3
REMARK    3  A    between atoms: C_2  and  C_4
REMARK    4  A    between atoms: C_2  and  C_5
REMARK    5  A    between atoms: C_7  and  O_8
REMARK    6  A    between atoms: O_8  and  C_9
REMARK    7  A    between atoms: C_9  and  C_10
REMARK    8  A    between atoms: C_13  and  C_14
REMARK    9  A    between atoms: C_14  and  N_15
REMARK   10  A    between atoms: C_19  and  C_20
REMARK                            x       y       z     vdW  Elec       q    Type
REMARK                         _______ _______ _______ _____ _____    ______ ____
ROOT
ATOM      1  C   UNL     1      48.405   7.073  18.003  0.00  0.00    +0.000 A 
ATOM      2  C   UNL     1      48.616   7.212  16.619  0.00  0.00    +0.000 A 
ATOM      3  C   UNL     1      48.485   6.141  15.730  0.00  0.00    +0.000 A 
ATOM      4  C   UNL     1      48.126   4.888  16.219  0.00  0.00    +0.000 A 
ATOM      5  C   UNL     1      47.900   4.713  17.588  0.00  0.00    +0.000 A 
ATOM      6  C   UNL     1      48.042   5.800  18.470  0.00  0.00    +0.000 A 
ENDROOT
BRANCH   5   7
ATOM      7  C   UNL     1      47.558   3.381  18.154  0.00  0.00    +0.000 C 
ATOM      8  N   UNL     1      48.226   2.977  19.277  0.00  0.00    +0.000 N 
ATOM      9  O   UNL     1      46.725   2.654  17.628  0.00  0.00    +0.000 OA
ATOM     10  H   UNL     1      49.055   3.438  19.625  0.00  0.00    +0.000 HD
ATOM     11  H   UNL     1      48.030   2.042  19.611  0.00  0.00    +0.000 HD
ENDBRANCH   5   7
BRANCH   1  13
ATOM     12  C   UNL     1      47.978   8.038  20.299  0.00  0.00    +0.000 C 
ATOM     13  C   UNL     1      48.612   8.296  18.911  0.00  0.00    +0.000 C 
ATOM     14  C   UNL     1      47.927   9.522  18.267  0.00  0.00    +0.000 C 
ATOM     15  C   UNL     1      50.091   8.661  19.145  0.00  0.00    +0.000 C 
ENDBRANCH   1  13
BRANCH   3  16
ATOM     16  O   UNL     1      48.699   6.214  14.377  0.00  0.00    +0.000 OA
BRANCH  16  17
ATOM     17  C   UNL     1      47.777   7.040  13.656  0.00  0.00    +0.000 C 
BRANCH  17  18
ATOM     18  C   UNL     1      46.877   6.226  12.762  0.00  0.00    +0.000 A 
ATOM     19  C   UNL     1      46.274   5.067  13.274  0.00  0.00    +0.000 A 
ATOM     20  C   UNL     1      45.398   4.316  12.492  0.00  0.00    +0.000 A 
ATOM     21  C   UNL     1      45.097   4.713  11.183  0.00  0.00    +0.000 A 
ATOM     22  C   UNL     1      45.681   5.886  10.682  0.00  0.00    +0.000 A 
ATOM     23  C   UNL     1      46.557   6.640  11.466  0.00  0.00    +0.000 A 
BRANCH  21  24
ATOM     24  C   UNL     1      44.188   3.882  10.320  0.00  0.00    +0.000 C 
BRANCH  24  25
ATOM     25  N   UNL     1      43.806   4.585   9.102  0.00  0.00    +0.000 NA
ATOM     26  H   UNL     1      43.234   5.390   9.355  0.00  0.00    +0.000 HD
ATOM     27  H   UNL     1      43.217   3.977   8.538  0.00  0.00    +0.000 HD
ENDBRANCH  24  25
ENDBRANCH  21  24
ENDBRANCH  17  18
ENDBRANCH  16  17
ENDBRANCH   3  16
TORSDOF 7
ENDMDL
MODEL 7
REMARK VINA RESULT:    -5.694      3.900      7.565
REMARK INTER + INTRA:          -8.671
REMARK INTER:                  -7.747
REMARK INTRA:                  -0.923
REMARK UNBOUND:                -0.813
REMARK  Name = 
REMARK  10 active torsions:
REMARK  status: ('A' for Active; 'I' for Inactive)
REMARK    1  A    between atoms: C_1  and  C_2
REMARK    2  A    between atoms: C_2  and  C_3
REMARK    3  A    between atoms: C_2  and  C_4
REMARK    4  A    between atoms: C_2  and  C_5
REMARK    5  A    between atoms: C_7  and  O_8
REMARK    6  A    between atoms: O_8  and  C_9
REMARK    7  A    between atoms: C_9  and  C_10
REMARK    8  A    between atoms: C_13  and  C_14
REMARK    9  A    between atoms: C_14  and  N_15
REMARK   10  A    between atoms: C_19  and  C_20
REMARK                            x       y       z     vdW  Elec       q    Type
REMARK                         _______ _______ _______ _____ _____    ______ ____
ROOT
ATOM      1  C   UNL     1      47.259   6.320  13.003  0.00  0.00    +0.000 A 
ATOM      2  C   UNL     1      47.440   6.229  14.395  0.00  0.00    +0.000 A 
ATOM      3  C   UNL     1      48.567   6.746  15.039  0.00  0.00    +0.000 A 
ATOM      4  C   UNL     1      49.551   7.384  14.287  0.00  0.00    +0.000 A 
ATOM      5  C   UNL     1      49.402   7.501  12.902  0.00  0.00    +0.000 A 
ATOM      6  C   UNL     1      48.263   6.969  12.268  0.00  0.00    +0.000 A 
ENDROOT
BRANCH   5   7
ATOM      7  C   UNL     1      50.451   8.135  12.059  0.00  0.00    +0.000 C 
ATOM      8  N   UNL     1      51.212   7.318  11.270  0.00  0.00    +0.000 N 
ATOM      9  O   UNL     1      50.648   9.343  12.081  0.00  0.00    +0.000 OA
ATOM     10  H   UNL     1      51.231   6.313  11.368  0.00  0.00    +0.000 HD
ATOM     11  H   UNL     1      51.964   7.757  10.753  0.00  0.00    +0.000 HD
ENDBRANCH   5   7
BRANCH   1  13
ATOM     12  C   UNL     1      44.735   6.400  12.891  0.00  0.00    +0.000 C 
ATOM     13  C   UNL     1      46.007   5.687  12.374  0.00  0.00    +0.000 C 
ATOM     14  C   UNL     1      45.944   4.195  12.775  0.00  0.00    +0.000 C 
ATOM     15  C   UNL     1      45.975   5.755  10.835  0.00  0.00    +0.000 C 
ENDBRANCH   1  13
BRANCH   3  16
ATOM     16  O   UNL     1      48.806   6.668  16.388  0.00  0.00    +0.000 OA
BRANCH  16  17
ATOM     17  C   UNL     1      48.254   5.519  17.041  0.00  0.00    +0.000 C 
BRANCH  17  18
ATOM     18  C   UNL     1      49.251   4.393  17.132  0.00  0.00    +0.000 A 
ATOM     19  C   UNL     1      50.578   4.683  17.479  0.00  0.00    +0.000 A 
ATOM     20  C   UNL     1      51.517   3.662  17.618  0.00  0.00    +0.000 A 
ATOM     21  C   UNL     1      51.145   2.326  17.424  0.00  0.00    +0.000 A 
ATOM     22  C   UNL     1      49.811   2.036  17.102  0.00  0.00    +0.000 A 
ATOM     23  C   UNL     1      48.871   3.058  16.964  0.00  0.00    +0.000 A 
BRANCH  21  24
ATOM     24  C   UNL     1      52.164   1.224  17.529  0.00  0.00    +0.000 C 
BRANCH  24  25
ATOM     25  N   UNL     1      51.624   0.050  18.203  0.00  0.00    +0.000 NA
ATOM     26  H   UNL     1      52.245  -0.200  18.972  0.00  0.00    +0.000 HD
ATOM     27  H   UNL     1      51.631  -0.736  17.557  0.00  0.00    +0.000 HD
ENDBRANCH  24  25
ENDBRANCH  21  24
ENDBRANCH  17  18
ENDBRANCH  16  17
ENDBRANCH   3  16
TORSDOF 7
ENDMDL
MODEL 8
REMARK VINA RESULT:    -5.663      3.615      5.515
REMARK INTER + INTRA:          -8.629
REMARK INTER:                  -7.913
REMARK INTRA:                  -0.715
REMARK UNBOUND:                -0.813
REMARK  Name = 
REMARK  10 active torsions:
REMARK  status: ('A' for Active; 'I' for Inactive)
REMARK    1  A    between atoms: C_1  and  C_2
REMARK    2  A    between atoms: C_2  and  C_3
REMARK    3  A    between atoms: C_2  and  C_4
REMARK    4  A    between atoms: C_2  and  C_5
REMARK    5  A    between atoms: C_7  and  O_8
REMARK    6  A    between atoms: O_8  and  C_9
REMARK    7  A    between atoms: C_9  and  C_10
REMARK    8  A    between atoms: C_13  and  C_14
REMARK    9  A    between atoms: C_14  and  N_15
REMARK   10  A    between atoms: C_19  and  C_20
REMARK                            x       y       z     vdW  Elec       q    Type
REMARK                         _______ _______ _______ _____ _____    ______ ____
ROOT
ATOM      1  C   UNL     1      50.806   5.739  17.008  0.00  0.00    +0.000 A 
ATOM      2  C   UNL     1      50.190   6.534  16.025  0.00  0.00    +0.000 A 
ATOM      3  C   UNL     1      48.854   6.362  15.651  0.00  0.00    +0.000 A 
ATOM      4  C   UNL     1      48.093   5.375  16.272  0.00  0.00    +0.000 A 
ATOM      5  C   UNL     1      48.669   4.569  17.260  0.00  0.00    +0.000 A 
ATOM      6  C   UNL     1      50.017   4.752  17.620  0.00  0.00    +0.000 A 
ENDROOT
BRANCH   5   7
ATOM      7  C   UNL     1      47.903   3.476  17.914  0.00  0.00    +0.000 C 
ATOM      8  N   UNL     1      48.328   3.048  19.141  0.00  0.00    +0.000 N 
ATOM      9  O   UNL     1      46.937   2.955  17.371  0.00  0.00    +0.000 OA
ATOM     10  H   UNL     1      49.226   3.294  19.533  0.00  0.00    +0.000 HD
ATOM     11  H   UNL     1      47.837   2.259  19.543  0.00  0.00    +0.000 HD
ENDBRANCH   5   7
BRANCH   1  13
ATOM     12  C   UNL     1      52.432   6.938  18.525  0.00  0.00    +0.000 C 
ATOM     13  C   UNL     1      52.292   5.971  17.326  0.00  0.00    +0.000 C 
ATOM     14  C   UNL     1      52.978   6.599  16.092  0.00  0.00    +0.000 C 
ATOM     15  C   UNL     1      53.066   4.686  17.683  0.00  0.00    +0.000 C 
ENDBRANCH   1  13
BRANCH   3  16
ATOM     16  O   UNL     1      48.209   7.094  14.687  0.00  0.00    +0.000 OA
BRANCH  16  17
ATOM     17  C   UNL     1      48.408   6.645  13.342  0.00  0.00    +0.000 C 
BRANCH  17  18
ATOM     18  C   UNL     1      47.135   6.115  12.734  0.00  0.00    +0.000 A 
ATOM     19  C   UNL     1      46.607   6.748  11.598  0.00  0.00    +0.000 A 
ATOM     20  C   UNL     1      45.457   6.257  10.981  0.00  0.00    +0.000 A 
ATOM     21  C   UNL     1      44.816   5.116  11.479  0.00  0.00    +0.000 A 
ATOM     22  C   UNL     1      45.361   4.470  12.599  0.00  0.00    +0.000 A 
ATOM     23  C   UNL     1      46.513   4.960  13.216  0.00  0.00    +0.000 A 
BRANCH  21  24
ATOM     24  C   UNL     1      43.550   4.609  10.844  0.00  0.00    +0.000 C 
BRANCH  24  25
ATOM     25  N   UNL     1      42.370   4.989  11.610  0.00  0.00    +0.000 NA
ATOM     26  H   UNL     1      42.489   4.673  12.572  0.00  0.00    +0.000 HD
ATOM     27  H   UNL     1      41.561   4.495  11.240  0.00  0.00    +0.000 HD
ENDBRANCH  24  25
ENDBRANCH  21  24
ENDBRANCH  17  18
ENDBRANCH  16  17
ENDBRANCH   3  16
TORSDOF 7
ENDMDL
MODEL 9
REMARK VINA RESULT:    -5.622      2.420      3.528
REMARK INTER + INTRA:          -8.571
REMARK INTER:                  -7.851
REMARK INTRA:                  -0.720
REMARK UNBOUND:                -0.813
REMARK  Name = 
REMARK  10 active torsions:
REMARK  status: ('A' for Active; 'I' for Inactive)
REMARK    1  A    between atoms: C_1  and  C_2
REMARK    2  A    between atoms: C_2  and  C_3
REMARK    3  A    between atoms: C_2  and  C_4
REMARK    4  A    between atoms: C_2  and  C_5
REMARK    5  A    between atoms: C_7  and  O_8
REMARK    6  A    between atoms: O_8  and  C_9
REMARK    7  A    between atoms: C_9  and  C_10
REMARK    8  A    between atoms: C_13  and  C_14
REMARK    9  A    between atoms: C_14  and  N_15
REMARK   10  A    between atoms: C_19  and  C_20
REMARK                            x       y       z     vdW  Elec       q    Type
REMARK                         _______ _______ _______ _____ _____    ______ ____
ROOT
ATOM      1  C   UNL     1      49.634   6.983  15.841  0.00  0.00    +0.000 A 
ATOM      2  C   UNL     1      49.090   7.210  14.565  0.00  0.00    +0.000 A 
ATOM      3  C   UNL     1      48.020   6.463  14.063  0.00  0.00    +0.000 A 
ATOM      4  C   UNL     1      47.460   5.459  14.849  0.00  0.00    +0.000 A 
ATOM      5  C   UNL     1      47.970   5.209  16.127  0.00  0.00    +0.000 A 
ATOM      6  C   UNL     1      49.051   5.966  16.615  0.00  0.00    +0.000 A 
ENDROOT
BRANCH   5   7
ATOM      7  C   UNL     1      47.428   4.116  16.979  0.00  0.00    +0.000 C 
ATOM      8  N   UNL     1      47.121   4.416  18.277  0.00  0.00    +0.000 N 
ATOM      9  O   UNL     1      47.279   2.980  16.548  0.00  0.00    +0.000 OA
ATOM     10  H   UNL     1      47.415   5.268  18.734  0.00  0.00    +0.000 HD
ATOM     11  H   UNL     1      46.817   3.647  18.861  0.00  0.00    +0.000 HD
ENDBRANCH   5   7
BRANCH   1  13
ATOM     12  C   UNL     1      52.153   7.058  16.026  0.00  0.00    +0.000 C 
ATOM     13  C   UNL     1      50.837   7.825  16.296  0.00  0.00    +0.000 C 
ATOM     14  C   UNL     1      50.716   8.096  17.813  0.00  0.00    +0.000 C 
ATOM     15  C   UNL     1      50.950   9.190  15.588  0.00  0.00    +0.000 C 
ENDBRANCH   1  13
BRANCH   3  16
ATOM     16  O   UNL     1      47.463   6.627  12.820  0.00  0.00    +0.000 OA
BRANCH  16  17
ATOM     17  C   UNL     1      46.037   6.508  12.768  0.00  0.00    +0.000 C 
BRANCH  17  18
ATOM     18  C   UNL     1      45.599   5.422  11.819  0.00  0.00    +0.000 A 
ATOM     19  C   UNL     1      45.676   5.651  10.437  0.00  0.00    +0.000 A 
ATOM     20  C   UNL     1      45.324   4.653   9.530  0.00  0.00    +0.000 A 
ATOM     21  C   UNL     1      44.898   3.399   9.985  0.00  0.00    +0.000 A 
ATOM     22  C   UNL     1      44.847   3.163  11.367  0.00  0.00    +0.000 A 
ATOM     23  C   UNL     1      45.201   4.162  12.276  0.00  0.00    +0.000 A 
BRANCH  21  24
ATOM     24  C   UNL     1      44.475   2.333   9.011  0.00  0.00    +0.000 C 
BRANCH  24  25
ATOM     25  N   UNL     1      45.519   1.336   8.813  0.00  0.00    +0.000 NA
ATOM     26  H   UNL     1      45.943   1.123   9.714  0.00  0.00    +0.000 HD
ATOM     27  H   UNL     1      46.253   1.735   8.233  0.00  0.00    +0.000 HD
ENDBRANCH  24  25
ENDBRANCH  21  24
ENDBRANCH  17  18
ENDBRANCH  16  17
ENDBRANCH   3  16
TORSDOF 7
ENDMDL
