MODEL 1
REMARK VINA RESULT:    -8.115      0.000      0.000
REMARK INTER + INTRA:         -10.874
REMARK INTER:                 -10.013
REMARK INTRA:                  -0.861
REMARK UNBOUND:                -0.861
REMARK  Name = 
REMARK  5 active torsions:
REMARK  status: ('A' for Active; 'I' for Inactive)
REMARK    1  A    between atoms: C_1  and  C_2
REMARK    2  A    between atoms: C_2  and  O_3
REMARK    3  A    between atoms: C_2  and  C_13
REMARK    4  A    between atoms: O_3  and  C_4
REMARK    5  A    between atoms: C_7  and  C_8
REMARK                            x       y       z     vdW  Elec       q    Type
REMARK                         _______ _______ _______ _____ _____    ______ ____
ROOT
ATOM      1  C   UNL     1      44.515   3.865   9.302  0.00  0.00    +0.000 A 
ATOM      2  C   UNL     1      45.416   4.443   8.402  0.00  0.00    +0.000 A 
ATOM      3  C   UNL     1      46.309   3.650   7.678  0.00  0.00    +0.000 A 
ATOM      4  C   UNL     1      46.327   2.265   7.867  0.00  0.00    +0.000 A 
ATOM      5  C   UNL     1      45.430   1.684   8.772  0.00  0.00    +0.000 A 
ATOM      6  C   UNL     1      44.527   2.484   9.489  0.00  0.00    +0.000 A 
ENDROOT
BRANCH   4   7
ATOM      7  C   UNL     1      47.296   1.460   7.080  0.00  0.00    +0.000 C 
ATOM      8  N   UNL     1      48.376   2.111   6.552  0.00  0.00    +0.000 N 
ATOM      9  O   UNL     1      47.122   0.265   6.873  0.00  0.00    +0.000 OA
ATOM     10  H   UNL     1      48.419   3.114   6.477  0.00  0.00    +0.000 HD
ATOM     11  H   UNL     1      48.951   1.569   5.919  0.00  0.00    +0.000 HD
ENDBRANCH   4   7
BRANCH   1  12
ATOM     12  O   UNL     1      43.709   4.759   9.942  0.00  0.00    +0.000 OA
BRANCH  12  14
ATOM     13  C   UNL     1      42.338   5.545  11.801  0.00  0.00    +0.000 C 
ATOM     14  C   UNL     1      43.481   4.630  11.353  0.00  0.00    +0.000 C 
BRANCH  14  15
ATOM     15  C   UNL     1      44.754   5.044  12.084  0.00  0.00    +0.000 A 
ATOM     16  C   UNL     1      45.278   6.335  11.901  0.00  0.00    +0.000 A 
ATOM     17  C   UNL     1      46.476   6.709  12.514  0.00  0.00    +0.000 A 
ATOM     18  C   UNL     1      47.165   5.801  13.317  0.00  0.00    +0.000 A 
ATOM     19  C   UNL     1      46.656   4.519  13.509  0.00  0.00    +0.000 A 
ATOM     20  C   UNL     1      45.460   4.141  12.894  0.00  0.00    +0.000 A 
ENDBRANCH  14  15
ENDBRANCH  12  14
ENDBRANCH   1  12
TORSDOF 4
ENDMDL
MODEL 2
REMARK VINA RESULT:    -6.691      1.351      2.231
REMARK INTER + INTRA:          -9.117
REMARK INTER:                  -8.459
REMARK INTRA:                  -0.658
REMARK UNBOUND:                -0.861
REMARK  Name = 
REMARK  5 active torsions:
REMARK  status: ('A' for Active; 'I' for Inactive)
REMARK    1  A    between atoms: C_1  and  C_2
REMARK    2  A    between atoms: C_2  and  O_3
REMARK    3  A    between atoms: C_2  and  C_13
REMARK    4  A    between atoms: O_3  and  C_4
REMARK    5  A    between atoms: C_7  and  C_8
REMARK                            x       y       z     vdW  Elec       q    Type
REMARK                         _______ _______ _______ _____ _____    ______ ____
ROOT
ATOM      1  C   UNL     1      45.017   4.062   9.771  0.00  0.00    +0.000 A 
ATOM      2  C   UNL     1      45.756   4.804   8.846  0.00  0.00    +0.000 A 
ATOM      3  C   UNL     1      46.401   4.174   7.778  0.00  0.00    +0.000 A 
ATOM      4  C   UNL     1      46.334   2.785   7.642  0.00  0.00    +0.000 A 
ATOM      5  C   UNL     1      45.599   2.038   8.571  0.00  0.00    +0.000 A 
ATOM      6  C   UNL     1      44.944   2.677   9.636  0.00  0.00    +0.000 A 
ENDROOT
BRANCH   4   7
ATOM      7  C   UNL     1      47.038   2.156   6.495  0.00  0.00    +0.000 C 
ATOM      8  N   UNL     1      47.329   2.948   5.421  0.00  0.00    +0.000 N 
ATOM      9  O   UNL     1      47.317   0.962   6.487  0.00  0.00    +0.000 OA
ATOM     10  H   UNL     1      46.896   3.847   5.279  0.00  0.00    +0.000 HD
ATOM     11  H   UNL     1      47.694   2.471   4.606  0.00  0.00    +0.000 HD
ENDBRANCH   4   7
BRANCH   1  12
ATOM     12  O   UNL     1      44.448   4.806  10.763  0.00  0.00    +0.000 OA
BRANCH  12  14
ATOM     13  C   UNL     1      44.535   4.590  13.191  0.00  0.00    +0.000 C 
ATOM     14  C   UNL     1      45.210   5.140  11.932  0.00  0.00    +0.000 C 
BRANCH  14  15
ATOM     15  C   UNL     1      45.282   6.659  12.039  0.00  0.00    +0.000 A 
ATOM     16  C   UNL     1      46.116   7.256  12.998  0.00  0.00    +0.000 A 
ATOM     17  C   UNL     1      46.146   8.643  13.151  0.00  0.00    +0.000 A 
ATOM     18  C   UNL     1      45.345   9.453  12.347  0.00  0.00    +0.000 A 
ATOM     19  C   UNL     1      44.515   8.876  11.389  0.00  0.00    +0.000 A 
ATOM     20  C   UNL     1      44.480   7.489  11.238  0.00  0.00    +0.000 A 
ENDBRANCH  14  15
ENDBRANCH  12  14
ENDBRANCH   1  12
TORSDOF 4
ENDMDL
MODEL 3
REMARK VINA RESULT:    -6.470      3.014      6.146
REMARK INTER + INTRA:          -8.844
REMARK INTER:                  -8.585
REMARK INTRA:                  -0.259
REMARK UNBOUND:                -0.861
REMARK  Name = 
REMARK  5 active torsions:
REMARK  status: ('A' for Active; 'I' for Inactive)
REMARK    1  A    between atoms: C_1  and  C_2
REMARK    2  A    between atoms: C_2  and  O_3
REMARK    3  A    between atoms: C_2  and  C_13
REMARK    4  A    between atoms: O_3  and  C_4
REMARK    5  A    between atoms: C_7  and  C_8
REMARK                            x       y       z     vdW  Elec       q    Type
REMARK                         _______ _______ _______ _____ _____    ______ ____
ROOT
ATOM      1  C   UNL     1      44.790   5.316  10.660  0.00  0.00    +0.000 A 
ATOM      2  C   UNL     1      46.047   5.846  10.356  0.00  0.00    +0.000 A 
ATOM      3  C   UNL     1      46.754   6.594  11.301  0.00  0.00    +0.000 A 
ATOM      4  C   UNL     1      46.194   6.842  12.558  0.00  0.00    +0.000 A 
ATOM      5  C   UNL     1      44.932   6.318  12.863  0.00  0.00    +0.000 A 
ATOM      6  C   UNL     1      44.231   5.558  11.914  0.00  0.00    +0.000 A 
ENDROOT
BRANCH   4   7
ATOM      7  C   UNL     1      46.978   7.646  13.530  0.00  0.00    +0.000 C 
ATOM      8  N   UNL     1      46.512   8.893  13.839  0.00  0.00    +0.000 N 
ATOM      9  O   UNL     1      48.025   7.231  14.013  0.00  0.00    +0.000 OA
ATOM     10  H   UNL     1      45.818   9.365  13.282  0.00  0.00    +0.000 HD
ATOM     11  H   UNL     1      47.126   9.466  14.405  0.00  0.00    +0.000 HD
ENDBRANCH   4   7
BRANCH   1  12
ATOM     12  O   UNL     1      44.214   4.614   9.643  0.00  0.00    +0.000 OA
BRANCH  12  14
ATOM     13  C   UNL     1      44.859   2.654  10.943  0.00  0.00    +0.000 C 
ATOM     14  C   UNL     1      44.327   3.184   9.609  0.00  0.00    +0.000 C 
BRANCH  14  15
ATOM     15  C   UNL     1      45.311   2.807   8.507  0.00  0.00    +0.000 A 
ATOM     16  C   UNL     1      45.910   1.537   8.505  0.00  0.00    +0.000 A 
ATOM     17  C   UNL     1      46.859   1.199   7.538  0.00  0.00    +0.000 A 
ATOM     18  C   UNL     1      47.221   2.124   6.560  0.00  0.00    +0.000 A 
ATOM     19  C   UNL     1      46.634   3.386   6.547  0.00  0.00    +0.000 A 
ATOM     20  C   UNL     1      45.688   3.728   7.515  0.00  0.00    +0.000 A 
ENDBRANCH  14  15
ENDBRANCH  12  14
ENDBRANCH   1  12
TORSDOF 4
ENDMDL
MODEL 4
REMARK VINA RESULT:    -6.419      3.372      6.491
REMARK INTER + INTRA:          -8.782
REMARK INTER:                  -8.083
REMARK INTRA:                  -0.698
REMARK UNBOUND:                -0.861
REMARK  Name = 
REMARK  5 active torsions:
REMARK  status: ('A' for Active; 'I' for Inactive)
REMARK    1  A    between atoms: C_1  and  C_2
REMARK    2  A    between atoms: C_2  and  O_3
REMARK    3  A    between atoms: C_2  and  C_13
REMARK    4  A    between atoms: O_3  and  C_4
REMARK    5  A    between atoms: C_7  and  C_8
REMARK                            x       y       z     vdW  Elec       q    Type
REMARK                         _______ _______ _______ _____ _____    ______ ____
ROOT
ATOM      1  C   UNL     1      45.586   5.801  11.664  0.00  0.00    +0.000 A 
ATOM      2  C   UNL     1      44.466   6.614  11.469  0.00  0.00    +0.000 A 
ATOM      3  C   UNL     1      44.562   8.002  11.592  0.00  0.00    +0.000 A 
ATOM      4  C   UNL     1      45.780   8.592  11.939  0.00  0.00    +0.000 A 
ATOM      5  C   UNL     1      46.903   7.779  12.140  0.00  0.00    +0.000 A 
ATOM      6  C   UNL     1      46.805   6.386  12.006  0.00  0.00    +0.000 A 
ENDROOT
BRANCH   4   7
ATOM      7  C   UNL     1      45.836  10.071  12.063  0.00  0.00    +0.000 C 
ATOM      8  N   UNL     1      44.649  10.743  12.145  0.00  0.00    +0.000 N 
ATOM      9  O   UNL     1      46.901  10.678  12.053  0.00  0.00    +0.000 OA
ATOM     10  H   UNL     1      43.770  10.319  11.898  0.00  0.00    +0.000 HD
ATOM     11  H   UNL     1      44.710  11.753  12.104  0.00  0.00    +0.000 HD
ENDBRANCH   4   7
BRANCH   1  12
ATOM     12  O   UNL     1      45.346   4.466  11.519  0.00  0.00    +0.000 OA
BRANCH  12  14
ATOM     13  C   UNL     1      43.527   2.889  11.126  0.00  0.00    +0.000 C 
ATOM     14  C   UNL     1      44.389   4.015  10.549  0.00  0.00    +0.000 C 
BRANCH  14  15
ATOM     15  C   UNL     1      45.147   3.481   9.340  0.00  0.00    +0.000 A 
ATOM     16  C   UNL     1      45.353   2.099   9.195  0.00  0.00    +0.000 A 
ATOM     17  C   UNL     1      46.099   1.599   8.126  0.00  0.00    +0.000 A 
ATOM     18  C   UNL     1      46.648   2.471   7.187  0.00  0.00    +0.000 A 
ATOM     19  C   UNL     1      46.449   3.843   7.315  0.00  0.00    +0.000 A 
ATOM     20  C   UNL     1      45.708   4.346   8.386  0.00  0.00    +0.000 A 
ENDBRANCH  14  15
ENDBRANCH  12  14
ENDBRANCH   1  12
TORSDOF 4
ENDMDL
MODEL 5
REMARK VINA RESULT:    -6.280      3.382      6.498
REMARK INTER + INTRA:          -8.610
REMARK INTER:                  -7.930
REMARK INTRA:                  -0.680
REMARK UNBOUND:                -0.861
REMARK  Name = 
REMARK  5 active torsions:
REMARK  status: ('A' for Active; 'I' for Inactive)
REMARK    1  A    between atoms: C_1  and  C_2
REMARK    2  A    between atoms: C_2  and  O_3
REMARK    3  A    between atoms: C_2  and  C_13
REMARK    4  A    between atoms: O_3  and  C_4
REMARK    5  A    between atoms: C_7  and  C_8
REMARK                            x       y       z     vdW  Elec       q    Type
REMARK                         _______ _______ _______ _____ _____    ______ ____
ROOT
ATOM      1  C   UNL     1      45.748   5.255  12.422  0.00  0.00    +0.000 A 
ATOM      2  C   UNL     1      46.965   5.250  13.109  0.00  0.00    +0.000 A 
ATOM      3  C   UNL     1      47.526   6.442  13.575  0.00  0.00    +0.000 A 
ATOM      4  C   UNL     1      46.884   7.659  13.335  0.00  0.00    +0.000 A 
ATOM      5  C   UNL     1      45.667   7.668  12.641  0.00  0.00    +0.000 A 
ATOM      6  C   UNL     1      45.102   6.468  12.184  0.00  0.00    +0.000 A 
ENDROOT
BRANCH   4   7
ATOM      7  C   UNL     1      47.517   8.902  13.844  0.00  0.00    +0.000 C 
ATOM      8  N   UNL     1      47.452   9.139  15.189  0.00  0.00    +0.000 N 
ATOM      9  O   UNL     1      48.047   9.711  13.091  0.00  0.00    +0.000 OA
ATOM     10  H   UNL     1      46.815   8.646  15.794  0.00  0.00    +0.000 HD
ATOM     11  H   UNL     1      47.779  10.047  15.493  0.00  0.00    +0.000 HD
ENDBRANCH   4   7
BRANCH   1  12
ATOM     12  O   UNL     1      45.324   4.023  12.020  0.00  0.00    +0.000 OA
BRANCH  12  14
ATOM     13  C   UNL     1      43.295   2.835  11.370  0.00  0.00    +0.000 C 
ATOM     14  C   UNL     1      44.319   3.912  11.002  0.00  0.00    +0.000 C 
BRANCH  14  15
ATOM     15  C   UNL     1      45.000   3.513   9.698  0.00  0.00    +0.000 A 
ATOM     16  C   UNL     1      45.203   2.156   9.398  0.00  0.00    +0.000 A 
ATOM     17  C   UNL     1      45.880   1.777   8.238  0.00  0.00    +0.000 A 
ATOM     18  C   UNL     1      46.363   2.747   7.361  0.00  0.00    +0.000 A 
ATOM     19  C   UNL     1      46.167   4.097   7.642  0.00  0.00    +0.000 A 
ATOM     20  C   UNL     1      45.494   4.478   8.805  0.00  0.00    +0.000 A 
ENDBRANCH  14  15
ENDBRANCH  12  14
ENDBRANCH   1  12
TORSDOF 4
ENDMDL
MODEL 6
REMARK VINA RESULT:    -6.055      3.052      5.946
REMARK INTER + INTRA:          -8.332
REMARK INTER:                  -8.923
REMARK INTRA:                   0.590
REMARK UNBOUND:                -0.861
REMARK  Name = 
REMARK  5 active torsions:
REMARK  status: ('A' for Active; 'I' for Inactive)
REMARK    1  A    between atoms: C_1  and  C_2
REMARK    2  A    between atoms: C_2  and  O_3
REMARK    3  A    between atoms: C_2  and  C_13
REMARK    4  A    between atoms: O_3  and  C_4
REMARK    5  A    between atoms: C_7  and  C_8
REMARK                            x       y       z     vdW  Elec       q    Type
REMARK                         _______ _______ _______ _____ _____    ______ ____
ROOT
ATOM      1  C   UNL     1      45.547   4.822  11.398  0.00  0.00    +0.000 A 
ATOM      2  C   UNL     1      46.063   5.978  11.990  0.00  0.00    +0.000 A 
ATOM      3  C   UNL     1      46.679   5.924  13.243  0.00  0.00    +0.000 A 
ATOM      4  C   UNL     1      46.762   4.710  13.931  0.00  0.00    +0.000 A 
ATOM      5  C   UNL     1      46.239   3.551  13.342  0.00  0.00    +0.000 A 
ATOM      6  C   UNL     1      45.631   3.609  12.079  0.00  0.00    +0.000 A 
ENDROOT
BRANCH   4   7
ATOM      7  C   UNL     1      47.421   4.698  15.262  0.00  0.00    +0.000 C 
ATOM      8  N   UNL     1      46.929   3.837  16.202  0.00  0.00    +0.000 N 
ATOM      9  O   UNL     1      48.346   5.457  15.529  0.00  0.00    +0.000 OA
ATOM     10  H   UNL     1      46.027   3.397  16.114  0.00  0.00    +0.000 HD
ATOM     11  H   UNL     1      47.312   3.937  17.134  0.00  0.00    +0.000 HD
ENDBRANCH   4   7
BRANCH   1  12
ATOM     12  O   UNL     1      44.969   5.024  10.180  0.00  0.00    +0.000 OA
BRANCH  12  14
ATOM     13  C   UNL     1      43.752   2.939  10.528  0.00  0.00    +0.000 C 
ATOM     14  C   UNL     1      44.314   3.936   9.511  0.00  0.00    +0.000 C 
BRANCH  14  15
ATOM     15  C   UNL     1      45.341   3.221   8.641  0.00  0.00    +0.000 A 
ATOM     16  C   UNL     1      46.049   3.936   7.661  0.00  0.00    +0.000 A 
ATOM     17  C   UNL     1      46.948   3.283   6.814  0.00  0.00    +0.000 A 
ATOM     18  C   UNL     1      47.151   1.909   6.936  0.00  0.00    +0.000 A 
ATOM     19  C   UNL     1      46.459   1.187   7.905  0.00  0.00    +0.000 A 
ATOM     20  C   UNL     1      45.557   1.837   8.749  0.00  0.00    +0.000 A 
ENDBRANCH  14  15
ENDBRANCH  12  14
ENDBRANCH   1  12
TORSDOF 4
ENDMDL
MODEL 7
REMARK VINA RESULT:    -5.596      3.254      6.219
REMARK INTER + INTRA:          -7.766
REMARK INTER:                  -7.024
REMARK INTRA:                  -0.742
REMARK UNBOUND:                -0.861
REMARK  Name = 
REMARK  5 active torsions:
REMARK  status: ('A' for Active; 'I' for Inactive)
REMARK    1  A    between atoms: C_1  and  C_2
REMARK    2  A    between atoms: C_2  and  O_3
REMARK    3  A    between atoms: C_2  and  C_13
REMARK    4  A    between atoms: O_3  and  C_4
REMARK    5  A    between atoms: C_7  and  C_8
REMARK                            x       y       z     vdW  Elec       q    Type
REMARK                         _______ _______ _______ _____ _____    ______ ____
ROOT
ATOM      1  C   UNL     1      46.199   6.013  12.401  0.00  0.00    +0.000 A 
ATOM      2  C   UNL     1      45.826   7.300  12.005  0.00  0.00    +0.000 A 
ATOM      3  C   UNL     1      46.709   8.374  12.145  0.00  0.00    +0.000 A 
ATOM      4  C   UNL     1      47.972   8.173  12.709  0.00  0.00    +0.000 A 
ATOM      5  C   UNL     1      48.346   6.885  13.112  0.00  0.00    +0.000 A 
ATOM      6  C   UNL     1      47.460   5.808  12.960  0.00  0.00    +0.000 A 
ENDROOT
BRANCH   4   7
ATOM      7  C   UNL     1      48.877   9.343  12.843  0.00  0.00    +0.000 C 
ATOM      8  N   UNL     1      50.201   9.151  12.564  0.00  0.00    +0.000 N 
ATOM      9  O   UNL     1      48.468  10.433  13.226  0.00  0.00    +0.000 OA
ATOM     10  H   UNL     1      50.614   8.235  12.503  0.00  0.00    +0.000 HD
ATOM     11  H   UNL     1      50.814   9.927  12.782  0.00  0.00    +0.000 HD
ENDBRANCH   4   7
BRANCH   1  12
ATOM     12  O   UNL     1      45.237   5.065  12.213  0.00  0.00    +0.000 OA
BRANCH  12  14
ATOM     13  C   UNL     1      42.980   4.637  11.394  0.00  0.00    +0.000 C 
ATOM     14  C   UNL     1      44.390   5.128  11.057  0.00  0.00    +0.000 C 
BRANCH  14  15
ATOM     15  C   UNL     1      44.979   4.221   9.981  0.00  0.00    +0.000 A 
ATOM     16  C   UNL     1      45.643   4.782   8.878  0.00  0.00    +0.000 A 
ATOM     17  C   UNL     1      46.133   3.969   7.854  0.00  0.00    +0.000 A 
ATOM     18  C   UNL     1      45.968   2.587   7.919  0.00  0.00    +0.000 A 
ATOM     19  C   UNL     1      45.314   2.015   9.008  0.00  0.00    +0.000 A 
ATOM     20  C   UNL     1      44.819   2.827  10.031  0.00  0.00    +0.000 A 
ENDBRANCH  14  15
ENDBRANCH  12  14
ENDBRANCH   1  12
TORSDOF 4
ENDMDL
MODEL 8
REMARK VINA RESULT:    -5.595      3.492      5.767
REMARK INTER + INTRA:          -7.765
REMARK INTER:                  -7.248
REMARK INTRA:                  -0.517
REMARK UNBOUND:                -0.861
REMARK  Name = 
REMARK  5 active torsions:
REMARK  status: ('A' for Active; 'I' for Inactive)
REMARK    1  A    between atoms: C_1  and  C_2
REMARK    2  A    between atoms: C_2  and  O_3
REMARK    3  A    between atoms: C_2  and  C_13
REMARK    4  A    between atoms: O_3  and  C_4
REMARK    5  A    between atoms: C_7  and  C_8
REMARK                            x       y       z     vdW  Elec       q    Type
REMARK                         _______ _______ _______ _____ _____    ______ ____
ROOT
ATOM      1  C   UNL     1      47.210   5.270  13.197  0.00  0.00    +0.000 A 
ATOM      2  C   UNL     1      46.627   4.006  13.323  0.00  0.00    +0.000 A 
ATOM      3  C   UNL     1      45.552   3.632  12.511  0.00  0.00    +0.000 A 
ATOM      4  C   UNL     1      45.032   4.533  11.579  0.00  0.00    +0.000 A 
ATOM      5  C   UNL     1      45.611   5.803  11.454  0.00  0.00    +0.000 A 
ATOM      6  C   UNL     1      46.697   6.170  12.264  0.00  0.00    +0.000 A 
ENDROOT
BRANCH   4   7
ATOM      7  C   UNL     1      43.887   4.096  10.740  0.00  0.00    +0.000 C 
ATOM      8  N   UNL     1      43.811   4.590   9.468  0.00  0.00    +0.000 N 
ATOM      9  O   UNL     1      43.017   3.352  11.177  0.00  0.00    +0.000 OA
ATOM     10  H   UNL     1      44.346   5.388   9.165  0.00  0.00    +0.000 HD
ATOM     11  H   UNL     1      42.961   4.377   8.962  0.00  0.00    +0.000 HD
ENDBRANCH   4   7
BRANCH   1  12
ATOM     12  O   UNL     1      48.244   5.501  14.055  0.00  0.00    +0.000 OA
BRANCH  12  14
ATOM     13  C   UNL     1      48.941   7.277  15.575  0.00  0.00    +0.000 C 
ATOM     14  C   UNL     1      47.989   6.102  15.333  0.00  0.00    +0.000 C 
BRANCH  14  15
ATOM     15  C   UNL     1      48.225   5.051  16.413  0.00  0.00    +0.000 A 
ATOM     16  C   UNL     1      47.252   4.068  16.658  0.00  0.00    +0.000 A 
ATOM     17  C   UNL     1      47.425   3.137  17.684  0.00  0.00    +0.000 A 
ATOM     18  C   UNL     1      48.570   3.175  18.477  0.00  0.00    +0.000 A 
ATOM     19  C   UNL     1      49.545   4.142  18.244  0.00  0.00    +0.000 A 
ATOM     20  C   UNL     1      49.372   5.077  17.222  0.00  0.00    +0.000 A 
ENDBRANCH  14  15
ENDBRANCH  12  14
ENDBRANCH   1  12
TORSDOF 4
ENDMDL
MODEL 9
REMARK VINA RESULT:    -5.359      3.225      5.462
REMARK INTER + INTRA:          -7.474
REMARK INTER:                  -6.841
REMARK INTRA:                  -0.633
REMARK UNBOUND:                -0.861
REMARK  Name = 
REMARK  5 active torsions:
REMARK  status: ('A' for Active; 'I' for Inactive)
REMARK    1  A    between atoms: C_1  and  C_2
REMARK    2  A    between atoms: C_2  and  O_3
REMARK    3  A    between atoms: C_2  and  C_13
REMARK    4  A    between atoms: O_3  and  C_4
REMARK    5  A    between atoms: C_7  and  C_8
REMARK                            x       y       z     vdW  Elec       q    Type
REMARK                         _______ _______ _______ _____ _____    ______ ____
ROOT
ATOM      1  C   UNL     1      46.427   6.074  12.642  0.00  0.00    +0.000 A 
ATOM      2  C   UNL     1      46.305   4.837  13.280  0.00  0.00    +0.000 A 
ATOM      3  C   UNL     1      45.559   3.807  12.703  0.00  0.00    +0.000 A 
ATOM      4  C   UNL     1      44.901   4.015  11.488  0.00  0.00    +0.000 A 
ATOM      5  C   UNL     1      45.016   5.257  10.849  0.00  0.00    +0.000 A 
ATOM      6  C   UNL     1      45.776   6.285  11.427  0.00  0.00    +0.000 A 
ENDROOT
BRANCH   4   7
ATOM      7  C   UNL     1      44.114   2.895  10.912  0.00  0.00    +0.000 C 
ATOM      8  N   UNL     1      44.657   2.219   9.856  0.00  0.00    +0.000 N 
ATOM      9  O   UNL     1      43.001   2.605  11.336  0.00  0.00    +0.000 OA
ATOM     10  H   UNL     1      45.430   2.582   9.321  0.00  0.00    +0.000 HD
ATOM     11  H   UNL     1      44.051   1.545   9.404  0.00  0.00    +0.000 HD
ENDBRANCH   4   7
BRANCH   1  12
ATOM     12  O   UNL     1      47.179   6.987  13.322  0.00  0.00    +0.000 OA
BRANCH  12  14
ATOM     13  C   UNL     1      49.347   7.105  14.433  0.00  0.00    +0.000 C 
ATOM     14  C   UNL     1      48.595   7.050  13.101  0.00  0.00    +0.000 C 
BRANCH  14  15
ATOM     15  C   UNL     1      48.901   8.320  12.315  0.00  0.00    +0.000 A 
ATOM     16  C   UNL     1      50.183   8.520  11.777  0.00  0.00    +0.000 A 
ATOM     17  C   UNL     1      50.497   9.705  11.108  0.00  0.00    +0.000 A 
ATOM     18  C   UNL     1      49.535  10.705  10.967  0.00  0.00    +0.000 A 
ATOM     19  C   UNL     1      48.258  10.519  11.492  0.00  0.00    +0.000 A 
ATOM     20  C   UNL     1      47.944   9.337  12.165  0.00  0.00    +0.000 A 
ENDBRANCH  14  15
ENDBRANCH  12  14
ENDBRANCH   1  12
TORSDOF 4
ENDMDL
