MODEL 1
REMARK VINA RESULT:    -8.214      0.000      0.000
REMARK INTER + INTRA:         -10.885
REMARK INTER:                 -10.615
REMARK INTRA:                  -0.270
REMARK UNBOUND:                -0.270
REMARK  Name = 
REMARK  5 active torsions:
REMARK  status: ('A' for Active; 'I' for Inactive)
REMARK    1  A    between atoms: C_2  and  C_3
REMARK    2  A    between atoms: C_6  and  C_7
REMARK    3  A    between atoms: C_11  and  C_12
REMARK    4  A    between atoms: C_12  and  N_13
REMARK    5  A    between atoms: C_17  and  C_18
REMARK                            x       y       z     vdW  Elec       q    Type
REMARK                         _______ _______ _______ _____ _____    ______ ____
ROOT
ATOM      1  C   UNL     1      44.303   4.282  11.479  0.00  0.00    +0.000 C 
ATOM      2  C   UNL     1      43.036   4.954  10.971  0.00  0.00    +0.000 C 
ATOM      3  C   UNL     1      43.017   4.273  12.298  0.00  0.00    +0.000 C 
ENDROOT
BRANCH   1   4
ATOM      4  N   UNL     1      44.738   3.039  10.836  0.00  0.00    +0.000 N 
ATOM      5  C   UNL     1      45.371   2.950   9.596  0.00  0.00    +0.000 A 
ATOM      6  C   UNL     1      45.764   4.067   8.864  0.00  0.00    +0.000 A 
ATOM      7  C   UNL     1      46.450   3.907   7.659  0.00  0.00    +0.000 A 
ATOM      8  C   UNL     1      46.725   2.623   7.204  0.00  0.00    +0.000 A 
ATOM      9  C   UNL     1      46.310   1.560   7.990  0.00  0.00    +0.000 A 
ATOM     10  N   UNL     1      45.633   1.699   9.162  0.00  0.00    +0.000 NA
ATOM     11  H   UNL     1      44.447   2.125  11.159  0.00  0.00    +0.000 HD
BRANCH   8  12
ATOM     12  C   UNL     1      47.448   2.359   5.942  0.00  0.00    +0.000 C 
ATOM     13  N   UNL     1      47.141   3.151   4.869  0.00  0.00    +0.000 N 
ATOM     14  O   UNL     1      48.266   1.455   5.851  0.00  0.00    +0.000 OA
ATOM     15  H   UNL     1      46.323   3.742   4.840  0.00  0.00    +0.000 HD
ATOM     16  H   UNL     1      47.571   2.904   3.987  0.00  0.00    +0.000 HD
ENDBRANCH   8  12
ENDBRANCH   1   4
BRANCH   1  21
ATOM     17  C   UNL     1      46.974   5.727  13.604  0.00  0.00    +0.000 A 
ATOM     18  N   UNL     1      47.396   6.833  12.966  0.00  0.00    +0.000 NA
ATOM     19  C   UNL     1      46.814   7.094  11.785  0.00  0.00    +0.000 A 
ATOM     20  C   UNL     1      45.831   6.304  11.231  0.00  0.00    +0.000 A 
ATOM     21  C   UNL     1      45.435   5.193  11.957  0.00  0.00    +0.000 A 
ATOM     22  N   UNL     1      46.021   4.901  13.140  0.00  0.00    +0.000 NA
BRANCH  17  26
ATOM     23  C   UNL     1      48.526   4.836  17.522  0.00  0.00    +0.000 A 
ATOM     24  C   UNL     1      48.974   5.966  16.831  0.00  0.00    +0.000 A 
ATOM     25  C   UNL     1      48.485   6.247  15.550  0.00  0.00    +0.000 A 
ATOM     26  C   UNL     1      47.536   5.413  14.929  0.00  0.00    +0.000 A 
ATOM     27  C   UNL     1      47.117   4.271  15.644  0.00  0.00    +0.000 A 
ATOM     28  C   UNL     1      47.601   3.982  16.919  0.00  0.00    +0.000 A 
BRANCH  23  30
ATOM     29  N   UNL     1      49.382   4.336  19.912  0.00  0.00    +0.000 NA
ATOM     30  C   UNL     1      49.002   4.560  18.838  0.00  0.00    +0.000 C 
ENDBRANCH  23  30
ENDBRANCH  17  26
ENDBRANCH   1  21
TORSDOF 5
ENDMDL
MODEL 2
REMARK VINA RESULT:    -8.137      2.320      4.302
REMARK INTER + INTRA:         -10.785
REMARK INTER:                 -10.219
REMARK INTRA:                  -0.566
REMARK UNBOUND:                -0.270
REMARK  Name = 
REMARK  5 active torsions:
REMARK  status: ('A' for Active; 'I' for Inactive)
REMARK    1  A    between atoms: C_2  and  C_3
REMARK    2  A    between atoms: C_6  and  C_7
REMARK    3  A    between atoms: C_11  and  C_12
REMARK    4  A    between atoms: C_12  and  N_13
REMARK    5  A    between atoms: C_17  and  C_18
REMARK                            x       y       z     vdW  Elec       q    Type
REMARK                         _______ _______ _______ _____ _____    ______ ____
ROOT
ATOM      1  C   UNL     1      44.129   4.692  11.714  0.00  0.00    +0.000 C 
ATOM      2  C   UNL     1      43.298   5.812  11.107  0.00  0.00    +0.000 C 
ATOM      3  C   UNL     1      42.735   5.019  12.237  0.00  0.00    +0.000 C 
ENDROOT
BRANCH   1   4
ATOM      4  N   UNL     1      44.321   3.466  10.934  0.00  0.00    +0.000 N 
ATOM      5  C   UNL     1      45.009   3.376   9.725  0.00  0.00    +0.000 A 
ATOM      6  C   UNL     1      45.698   4.449   9.164  0.00  0.00    +0.000 A 
ATOM      7  C   UNL     1      46.419   4.274   7.983  0.00  0.00    +0.000 A 
ATOM      8  C   UNL     1      46.431   3.024   7.376  0.00  0.00    +0.000 A 
ATOM      9  C   UNL     1      45.730   2.002   7.996  0.00  0.00    +0.000 A 
ATOM     10  N   UNL     1      45.014   2.158   9.143  0.00  0.00    +0.000 NA
ATOM     11  H   UNL     1      43.808   2.613  11.122  0.00  0.00    +0.000 HD
BRANCH   8  12
ATOM     12  C   UNL     1      47.170   2.748   6.126  0.00  0.00    +0.000 C 
ATOM     13  N   UNL     1      48.484   2.387   6.245  0.00  0.00    +0.000 N 
ATOM     14  O   UNL     1      46.639   2.865   5.031  0.00  0.00    +0.000 OA
ATOM     15  H   UNL     1      49.010   2.503   7.099  0.00  0.00    +0.000 HD
ATOM     16  H   UNL     1      49.007   2.291   5.383  0.00  0.00    +0.000 HD
ENDBRANCH   8  12
ENDBRANCH   1   4
BRANCH   1  21
ATOM     17  C   UNL     1      47.171   6.455  12.887  0.00  0.00    +0.000 A 
ATOM     18  N   UNL     1      47.553   5.826  14.012  0.00  0.00    +0.000 NA
ATOM     19  C   UNL     1      46.769   4.816  14.420  0.00  0.00    +0.000 A 
ATOM     20  C   UNL     1      45.638   4.411  13.746  0.00  0.00    +0.000 A 
ATOM     21  C   UNL     1      45.321   5.096  12.585  0.00  0.00    +0.000 A 
ATOM     22  N   UNL     1      46.085   6.128  12.165  0.00  0.00    +0.000 NA
BRANCH  17  26
ATOM     23  C   UNL     1      49.707   9.616  11.427  0.00  0.00    +0.000 A 
ATOM     24  C   UNL     1      48.411   9.904  11.867  0.00  0.00    +0.000 A 
ATOM     25  C   UNL     1      47.580   8.876  12.324  0.00  0.00    +0.000 A 
ATOM     26  C   UNL     1      48.018   7.539  12.358  0.00  0.00    +0.000 A 
ATOM     27  C   UNL     1      49.323   7.278  11.890  0.00  0.00    +0.000 A 
ATOM     28  C   UNL     1      50.158   8.295  11.430  0.00  0.00    +0.000 A 
BRANCH  23  30
ATOM     29  N   UNL     1      51.273  11.516  10.630  0.00  0.00    +0.000 NA
ATOM     30  C   UNL     1      50.567  10.665  10.985  0.00  0.00    +0.000 C 
ENDBRANCH  23  30
ENDBRANCH  17  26
ENDBRANCH   1  21
TORSDOF 5
ENDMDL
MODEL 3
REMARK VINA RESULT:    -7.150      3.183      7.962
REMARK INTER + INTRA:          -9.510
REMARK INTER:                  -9.176
REMARK INTRA:                  -0.333
REMARK UNBOUND:                -0.270
REMARK  Name = 
REMARK  5 active torsions:
REMARK  status: ('A' for Active; 'I' for Inactive)
REMARK    1  A    between atoms: C_2  and  C_3
REMARK    2  A    between atoms: C_6  and  C_7
REMARK    3  A    between atoms: C_11  and  C_12
REMARK    4  A    between atoms: C_12  and  N_13
REMARK    5  A    between atoms: C_17  and  C_18
REMARK                            x       y       z     vdW  Elec       q    Type
REMARK                         _______ _______ _______ _____ _____    ______ ____
ROOT
ATOM      1  C   UNL     1      45.962   5.088  13.624  0.00  0.00    +0.000 C 
ATOM      2  C   UNL     1      47.314   4.469  13.943  0.00  0.00    +0.000 C 
ATOM      3  C   UNL     1      46.216   4.376  14.948  0.00  0.00    +0.000 C 
ENDROOT
BRANCH   1   4
ATOM      4  N   UNL     1      45.850   6.549  13.619  0.00  0.00    +0.000 N 
ATOM      5  C   UNL     1      46.743   7.427  13.004  0.00  0.00    +0.000 A 
ATOM      6  C   UNL     1      47.808   6.995  12.218  0.00  0.00    +0.000 A 
ATOM      7  C   UNL     1      48.627   7.927  11.579  0.00  0.00    +0.000 A 
ATOM      8  C   UNL     1      48.368   9.283  11.748  0.00  0.00    +0.000 A 
ATOM      9  C   UNL     1      47.286   9.636  12.538  0.00  0.00    +0.000 A 
ATOM     10  N   UNL     1      46.483   8.740  13.174  0.00  0.00    +0.000 NA
ATOM     11  H   UNL     1      45.209   7.051  14.222  0.00  0.00    +0.000 HD
BRANCH   8  12
ATOM     12  C   UNL     1      49.180  10.338  11.107  0.00  0.00    +0.000 C 
ATOM     13  N   UNL     1      50.537  10.266  11.271  0.00  0.00    +0.000 N 
ATOM     14  O   UNL     1      48.662  11.252  10.482  0.00  0.00    +0.000 OA
ATOM     15  H   UNL     1      50.977   9.672  11.959  0.00  0.00    +0.000 HD
ATOM     16  H   UNL     1      51.078  11.043  10.909  0.00  0.00    +0.000 HD
ENDBRANCH   8  12
ENDBRANCH   1   4
BRANCH   1  21
ATOM     17  C   UNL     1      44.881   3.453  10.479  0.00  0.00    +0.000 A 
ATOM     18  N   UNL     1      43.572   3.184  10.632  0.00  0.00    +0.000 NA
ATOM     19  C   UNL     1      43.036   3.515  11.817  0.00  0.00    +0.000 A 
ATOM     20  C   UNL     1      43.749   4.107  12.836  0.00  0.00    +0.000 A 
ATOM     21  C   UNL     1      45.087   4.370  12.595  0.00  0.00    +0.000 A 
ATOM     22  N   UNL     1      45.653   4.028  11.416  0.00  0.00    +0.000 NA
BRANCH  17  26
ATOM     23  C   UNL     1      46.832   2.575   6.740  0.00  0.00    +0.000 A 
ATOM     24  C   UNL     1      46.521   3.897   7.074  0.00  0.00    +0.000 A 
ATOM     25  C   UNL     1      45.870   4.182   8.280  0.00  0.00    +0.000 A 
ATOM     26  C   UNL     1      45.518   3.161   9.182  0.00  0.00    +0.000 A 
ATOM     27  C   UNL     1      45.829   1.836   8.808  0.00  0.00    +0.000 A 
ATOM     28  C   UNL     1      46.474   1.542   7.608  0.00  0.00    +0.000 A 
BRANCH  23  30
ATOM     29  N   UNL     1      48.084   2.042   4.539  0.00  0.00    +0.000 NA
ATOM     30  C   UNL     1      47.518   2.283   5.524  0.00  0.00    +0.000 C 
ENDBRANCH  23  30
ENDBRANCH  17  26
ENDBRANCH   1  21
TORSDOF 5
ENDMDL
MODEL 4
REMARK VINA RESULT:    -7.028      3.632      8.836
REMARK INTER + INTRA:          -9.353
REMARK INTER:                  -8.747
REMARK INTRA:                  -0.606
REMARK UNBOUND:                -0.270
REMARK  Name = 
REMARK  5 active torsions:
REMARK  status: ('A' for Active; 'I' for Inactive)
REMARK    1  A    between atoms: C_2  and  C_3
REMARK    2  A    between atoms: C_6  and  C_7
REMARK    3  A    between atoms: C_11  and  C_12
REMARK    4  A    between atoms: C_12  and  N_13
REMARK    5  A    between atoms: C_17  and  C_18
REMARK                            x       y       z     vdW  Elec       q    Type
REMARK                         _______ _______ _______ _____ _____    ______ ____
ROOT
ATOM      1  C   UNL     1      49.316   5.726  17.899  0.00  0.00    +0.000 C 
ATOM      2  C   UNL     1      48.092   4.992  18.425  0.00  0.00    +0.000 C 
ATOM      3  C   UNL     1      48.359   6.385  18.887  0.00  0.00    +0.000 C 
ENDROOT
BRANCH   1   4
ATOM      4  N   UNL     1      50.637   5.305  18.370  0.00  0.00    +0.000 N 
ATOM      5  C   UNL     1      51.194   4.039  18.189  0.00  0.00    +0.000 A 
ATOM      6  C   UNL     1      50.583   3.044  17.431  0.00  0.00    +0.000 A 
ATOM      7  C   UNL     1      51.224   1.819  17.238  0.00  0.00    +0.000 A 
ATOM      8  C   UNL     1      52.469   1.609  17.820  0.00  0.00    +0.000 A 
ATOM      9  C   UNL     1      53.018   2.648  18.554  0.00  0.00    +0.000 A 
ATOM     10  N   UNL     1      52.402   3.844  18.759  0.00  0.00    +0.000 NA
ATOM     11  H   UNL     1      51.182   5.848  19.029  0.00  0.00    +0.000 HD
BRANCH   8  12
ATOM     12  C   UNL     1      53.220   0.346  17.666  0.00  0.00    +0.000 C 
ATOM     13  N   UNL     1      52.967  -0.645  18.574  0.00  0.00    +0.000 N 
ATOM     14  O   UNL     1      54.054   0.202  16.783  0.00  0.00    +0.000 OA
ATOM     15  H   UNL     1      52.468  -0.485  19.437  0.00  0.00    +0.000 HD
ATOM     16  H   UNL     1      53.552  -1.470  18.519  0.00  0.00    +0.000 HD
ENDBRANCH   8  12
ENDBRANCH   1   4
BRANCH   1  21
ATOM     17  C   UNL     1      48.285   6.085  14.356  0.00  0.00    +0.000 A 
ATOM     18  N   UNL     1      49.175   6.923  13.795  0.00  0.00    +0.000 NA
ATOM     19  C   UNL     1      50.120   7.416  14.611  0.00  0.00    +0.000 A 
ATOM     20  C   UNL     1      50.212   7.096  15.948  0.00  0.00    +0.000 A 
ATOM     21  C   UNL     1      49.271   6.211  16.448  0.00  0.00    +0.000 A 
ATOM     22  N   UNL     1      48.300   5.717  15.649  0.00  0.00    +0.000 NA
BRANCH  17  26
ATOM     23  C   UNL     1      45.344   4.225  11.818  0.00  0.00    +0.000 A 
ATOM     24  C   UNL     1      45.734   5.548  11.586  0.00  0.00    +0.000 A 
ATOM     25  C   UNL     1      46.675   6.160  12.421  0.00  0.00    +0.000 A 
ATOM     26  C   UNL     1      47.254   5.470  13.502  0.00  0.00    +0.000 A 
ATOM     27  C   UNL     1      46.828   4.143  13.722  0.00  0.00    +0.000 A 
ATOM     28  C   UNL     1      45.888   3.525  12.897  0.00  0.00    +0.000 A 
BRANCH  23  30
ATOM     29  N   UNL     1      43.639   3.064  10.255  0.00  0.00    +0.000 NA
ATOM     30  C   UNL     1      44.405   3.589  10.953  0.00  0.00    +0.000 C 
ENDBRANCH  23  30
ENDBRANCH  17  26
ENDBRANCH   1  21
TORSDOF 5
ENDMDL
MODEL 5
REMARK VINA RESULT:    -6.626      3.859      5.876
REMARK INTER + INTRA:          -8.833
REMARK INTER:                  -8.185
REMARK INTRA:                  -0.649
REMARK UNBOUND:                -0.270
REMARK  Name = 
REMARK  5 active torsions:
REMARK  status: ('A' for Active; 'I' for Inactive)
REMARK    1  A    between atoms: C_2  and  C_3
REMARK    2  A    between atoms: C_6  and  C_7
REMARK    3  A    between atoms: C_11  and  C_12
REMARK    4  A    between atoms: C_12  and  N_13
REMARK    5  A    between atoms: C_17  and  C_18
REMARK                            x       y       z     vdW  Elec       q    Type
REMARK                         _______ _______ _______ _____ _____    ______ ____
ROOT
ATOM      1  C   UNL     1      48.731   8.066  13.860  0.00  0.00    +0.000 C 
ATOM      2  C   UNL     1      49.759   7.578  12.852  0.00  0.00    +0.000 C 
ATOM      3  C   UNL     1      49.718   9.027  13.205  0.00  0.00    +0.000 C 
ENDROOT
BRANCH   1   4
ATOM      4  N   UNL     1      47.324   8.114  13.453  0.00  0.00    +0.000 N 
ATOM      5  C   UNL     1      46.525   7.005  13.176  0.00  0.00    +0.000 A 
ATOM      6  C   UNL     1      46.957   5.695  13.364  0.00  0.00    +0.000 A 
ATOM      7  C   UNL     1      46.085   4.632  13.127  0.00  0.00    +0.000 A 
ATOM      8  C   UNL     1      44.791   4.902  12.696  0.00  0.00    +0.000 A 
ATOM      9  C   UNL     1      44.430   6.230  12.540  0.00  0.00    +0.000 A 
ATOM     10  N   UNL     1      45.271   7.278  12.758  0.00  0.00    +0.000 NA
ATOM     11  H   UNL     1      46.868   8.970  13.161  0.00  0.00    +0.000 HD
BRANCH   8  12
ATOM     12  C   UNL     1      43.800   3.839  12.425  0.00  0.00    +0.000 C 
ATOM     13  N   UNL     1      42.784   4.140  11.559  0.00  0.00    +0.000 N 
ATOM     14  O   UNL     1      43.867   2.748  12.972  0.00  0.00    +0.000 OA
ATOM     15  H   UNL     1      42.567   5.084  11.273  0.00  0.00    +0.000 HD
ATOM     16  H   UNL     1      42.060   3.441  11.451  0.00  0.00    +0.000 HD
ENDBRANCH   8  12
ENDBRANCH   1   4
BRANCH   1  21
ATOM     17  C   UNL     1      49.837   6.231  16.884  0.00  0.00    +0.000 A 
ATOM     18  N   UNL     1      49.344   6.914  17.933  0.00  0.00    +0.000 NA
ATOM     19  C   UNL     1      48.660   8.031  17.642  0.00  0.00    +0.000 A 
ATOM     20  C   UNL     1      48.445   8.478  16.357  0.00  0.00    +0.000 A 
ATOM     21  C   UNL     1      48.967   7.710  15.330  0.00  0.00    +0.000 A 
ATOM     22  N   UNL     1      49.675   6.591  15.600  0.00  0.00    +0.000 NA
BRANCH  17  26
ATOM     23  C   UNL     1      51.885   2.532  17.710  0.00  0.00    +0.000 A 
ATOM     24  C   UNL     1      52.598   3.734  17.670  0.00  0.00    +0.000 A 
ATOM     25  C   UNL     1      51.937   4.934  17.384  0.00  0.00    +0.000 A 
ATOM     26  C   UNL     1      50.553   4.967  17.134  0.00  0.00    +0.000 A 
ATOM     27  C   UNL     1      49.864   3.736  17.163  0.00  0.00    +0.000 A 
ATOM     28  C   UNL     1      50.514   2.535  17.445  0.00  0.00    +0.000 A 
BRANCH  23  30
ATOM     29  N   UNL     1      53.098   0.319  18.282  0.00  0.00    +0.000 NA
ATOM     30  C   UNL     1      52.550   1.311  18.027  0.00  0.00    +0.000 C 
ENDBRANCH  23  30
ENDBRANCH  17  26
ENDBRANCH   1  21
TORSDOF 5
ENDMDL
MODEL 6
REMARK VINA RESULT:    -6.550      3.743      7.857
REMARK INTER + INTRA:          -8.735
REMARK INTER:                  -8.529
REMARK INTRA:                  -0.206
REMARK UNBOUND:                -0.270
REMARK  Name = 
REMARK  5 active torsions:
REMARK  status: ('A' for Active; 'I' for Inactive)
REMARK    1  A    between atoms: C_2  and  C_3
REMARK    2  A    between atoms: C_6  and  C_7
REMARK    3  A    between atoms: C_11  and  C_12
REMARK    4  A    between atoms: C_12  and  N_13
REMARK    5  A    between atoms: C_17  and  C_18
REMARK                            x       y       z     vdW  Elec       q    Type
REMARK                         _______ _______ _______ _____ _____    ______ ____
ROOT
ATOM      1  C   UNL     1      44.413   8.177  11.767  0.00  0.00    +0.000 C 
ATOM      2  C   UNL     1      43.363   9.221  11.420  0.00  0.00    +0.000 C 
ATOM      3  C   UNL     1      44.567   9.082  10.550  0.00  0.00    +0.000 C 
ENDROOT
BRANCH   1   4
ATOM      4  N   UNL     1      45.269   8.411  12.933  0.00  0.00    +0.000 N 
ATOM      5  C   UNL     1      46.657   8.277  12.957  0.00  0.00    +0.000 A 
ATOM      6  C   UNL     1      47.410   8.002  11.818  0.00  0.00    +0.000 A 
ATOM      7  C   UNL     1      48.802   7.943  11.900  0.00  0.00    +0.000 A 
ATOM      8  C   UNL     1      49.417   8.153  13.129  0.00  0.00    +0.000 A 
ATOM      9  C   UNL     1      48.603   8.430  14.215  0.00  0.00    +0.000 A 
ATOM     10  N   UNL     1      47.244   8.482  14.154  0.00  0.00    +0.000 NA
ATOM     11  H   UNL     1      44.900   8.512  13.871  0.00  0.00    +0.000 HD
BRANCH   8  12
ATOM     12  C   UNL     1      50.883   8.113  13.307  0.00  0.00    +0.000 C 
ATOM     13  N   UNL     1      51.646   7.985  12.178  0.00  0.00    +0.000 N 
ATOM     14  O   UNL     1      51.394   8.163  14.417  0.00  0.00    +0.000 OA
ATOM     15  H   UNL     1      51.262   7.712  11.284  0.00  0.00    +0.000 HD
ATOM     16  H   UNL     1      52.642   7.864  12.316  0.00  0.00    +0.000 HD
ENDBRANCH   8  12
ENDBRANCH   1   4
BRANCH   1  21
ATOM     17  C   UNL     1      44.453   4.761  10.330  0.00  0.00    +0.000 A 
ATOM     18  N   UNL     1      43.419   4.110  10.893  0.00  0.00    +0.000 NA
ATOM     19  C   UNL     1      42.709   4.800  11.799  0.00  0.00    +0.000 A 
ATOM     20  C   UNL     1      42.986   6.103  12.151  0.00  0.00    +0.000 A 
ATOM     21  C   UNL     1      44.054   6.711  11.513  0.00  0.00    +0.000 A 
ATOM     22  N   UNL     1      44.794   6.030  10.610  0.00  0.00    +0.000 NA
BRANCH  17  26
ATOM     23  C   UNL     1      46.822   2.728   7.362  0.00  0.00    +0.000 A 
ATOM     24  C   UNL     1      46.782   4.126   7.390  0.00  0.00    +0.000 A 
ATOM     25  C   UNL     1      45.998   4.787   8.342  0.00  0.00    +0.000 A 
ATOM     26  C   UNL     1      45.240   4.076   9.289  0.00  0.00    +0.000 A 
ATOM     27  C   UNL     1      45.286   2.667   9.224  0.00  0.00    +0.000 A 
ATOM     28  C   UNL     1      46.062   1.999   8.278  0.00  0.00    +0.000 A 
BRANCH  23  30
ATOM     29  N   UNL     1      48.310   1.493   5.642  0.00  0.00    +0.000 NA
ATOM     30  C   UNL     1      47.641   2.050   6.410  0.00  0.00    +0.000 C 
ENDBRANCH  23  30
ENDBRANCH  17  26
ENDBRANCH   1  21
TORSDOF 5
ENDMDL
MODEL 7
REMARK VINA RESULT:    -6.255      3.015      9.006
REMARK INTER + INTRA:          -8.354
REMARK INTER:                  -9.817
REMARK INTRA:                   1.463
REMARK UNBOUND:                -0.270
REMARK  Name = 
REMARK  5 active torsions:
REMARK  status: ('A' for Active; 'I' for Inactive)
REMARK    1  A    between atoms: C_2  and  C_3
REMARK    2  A    between atoms: C_6  and  C_7
REMARK    3  A    between atoms: C_11  and  C_12
REMARK    4  A    between atoms: C_12  and  N_13
REMARK    5  A    between atoms: C_17  and  C_18
REMARK                            x       y       z     vdW  Elec       q    Type
REMARK                         _______ _______ _______ _____ _____    ______ ____
ROOT
ATOM      1  C   UNL     1      46.114   5.093  13.716  0.00  0.00    +0.000 C 
ATOM      2  C   UNL     1      46.339   6.597  13.736  0.00  0.00    +0.000 C 
ATOM      3  C   UNL     1      47.429   5.705  13.245  0.00  0.00    +0.000 C 
ENDROOT
BRANCH   1   4
ATOM      4  N   UNL     1      46.087   4.376  14.993  0.00  0.00    +0.000 N 
ATOM      5  C   UNL     1      47.077   4.434  15.974  0.00  0.00    +0.000 A 
ATOM      6  C   UNL     1      48.177   5.283  15.890  0.00  0.00    +0.000 A 
ATOM      7  C   UNL     1      49.099   5.337  16.936  0.00  0.00    +0.000 A 
ATOM      8  C   UNL     1      48.906   4.529  18.050  0.00  0.00    +0.000 A 
ATOM      9  C   UNL     1      47.784   3.716  18.066  0.00  0.00    +0.000 A 
ATOM     10  N   UNL     1      46.881   3.644  17.051  0.00  0.00    +0.000 NA
ATOM     11  H   UNL     1      45.428   3.632  15.189  0.00  0.00    +0.000 HD
BRANCH   8  12
ATOM     12  C   UNL     1      49.828   4.524  19.204  0.00  0.00    +0.000 C 
ATOM     13  N   UNL     1      49.302   4.190  20.422  0.00  0.00    +0.000 N 
ATOM     14  O   UNL     1      51.006   4.832  19.083  0.00  0.00    +0.000 OA
ATOM     15  H   UNL     1      48.309   4.157  20.601  0.00  0.00    +0.000 HD
ATOM     16  H   UNL     1      49.918   4.280  21.221  0.00  0.00    +0.000 HD
ENDBRANCH   8  12
ENDBRANCH   1   4
BRANCH   1  21
ATOM     17  C   UNL     1      44.893   3.724  10.495  0.00  0.00    +0.000 A 
ATOM     18  N   UNL     1      43.555   3.646  10.609  0.00  0.00    +0.000 NA
ATOM     19  C   UNL     1      43.040   4.018  11.792  0.00  0.00    +0.000 A 
ATOM     20  C   UNL     1      43.803   4.470  12.846  0.00  0.00    +0.000 A 
ATOM     21  C   UNL     1      45.172   4.540  12.644  0.00  0.00    +0.000 A 
ATOM     22  N   UNL     1      45.714   4.153  11.469  0.00  0.00    +0.000 NA
BRANCH  17  26
ATOM     23  C   UNL     1      46.802   2.686   6.776  0.00  0.00    +0.000 A 
ATOM     24  C   UNL     1      46.564   4.027   7.091  0.00  0.00    +0.000 A 
ATOM     25  C   UNL     1      45.927   4.365   8.291  0.00  0.00    +0.000 A 
ATOM     26  C   UNL     1      45.516   3.379   9.205  0.00  0.00    +0.000 A 
ATOM     27  C   UNL     1      45.754   2.034   8.851  0.00  0.00    +0.000 A 
ATOM     28  C   UNL     1      46.385   1.687   7.658  0.00  0.00    +0.000 A 
BRANCH  23  30
ATOM     29  N   UNL     1      48.017   2.060   4.578  0.00  0.00    +0.000 NA
ATOM     30  C   UNL     1      47.475   2.338   5.567  0.00  0.00    +0.000 C 
ENDBRANCH  23  30
ENDBRANCH  17  26
ENDBRANCH   1  21
TORSDOF 5
ENDMDL
MODEL 8
REMARK VINA RESULT:    -6.086      3.878      8.367
REMARK INTER + INTRA:          -8.135
REMARK INTER:                  -8.036
REMARK INTRA:                  -0.099
REMARK UNBOUND:                -0.270
REMARK  Name = 
REMARK  5 active torsions:
REMARK  status: ('A' for Active; 'I' for Inactive)
REMARK    1  A    between atoms: C_2  and  C_3
REMARK    2  A    between atoms: C_6  and  C_7
REMARK    3  A    between atoms: C_11  and  C_12
REMARK    4  A    between atoms: C_12  and  N_13
REMARK    5  A    between atoms: C_17  and  C_18
REMARK                            x       y       z     vdW  Elec       q    Type
REMARK                         _______ _______ _______ _____ _____    ______ ____
ROOT
ATOM      1  C   UNL     1      50.807   8.438  15.152  0.00  0.00    +0.000 C 
ATOM      2  C   UNL     1      50.346   9.544  16.089  0.00  0.00    +0.000 C 
ATOM      3  C   UNL     1      51.651   9.688  15.381  0.00  0.00    +0.000 C 
ENDROOT
BRANCH   1   4
ATOM      4  N   UNL     1      51.252   7.171  15.737  0.00  0.00    +0.000 N 
ATOM      5  C   UNL     1      50.442   6.274  16.434  0.00  0.00    +0.000 A 
ATOM      6  C   UNL     1      49.065   6.439  16.561  0.00  0.00    +0.000 A 
ATOM      7  C   UNL     1      48.303   5.472  17.218  0.00  0.00    +0.000 A 
ATOM      8  C   UNL     1      48.940   4.354  17.746  0.00  0.00    +0.000 A 
ATOM      9  C   UNL     1      50.311   4.254  17.572  0.00  0.00    +0.000 A 
ATOM     10  N   UNL     1      51.069   5.192  16.943  0.00  0.00    +0.000 NA
ATOM     11  H   UNL     1      52.230   6.929  15.841  0.00  0.00    +0.000 HD
BRANCH   8  12
ATOM     12  C   UNL     1      48.213   3.279  18.453  0.00  0.00    +0.000 C 
ATOM     13  N   UNL     1      48.449   3.144  19.794  0.00  0.00    +0.000 N 
ATOM     14  O   UNL     1      47.454   2.524  17.861  0.00  0.00    +0.000 OA
ATOM     15  H   UNL     1      49.226   3.587  20.262  0.00  0.00    +0.000 HD
ATOM     16  H   UNL     1      48.020   2.348  20.251  0.00  0.00    +0.000 HD
ENDBRANCH   8  12
ENDBRANCH   1   4
BRANCH   1  21
ATOM     17  C   UNL     1      48.418   7.313  12.552  0.00  0.00    +0.000 A 
ATOM     18  N   UNL     1      48.796   7.921  11.413  0.00  0.00    +0.000 NA
ATOM     19  C   UNL     1      49.844   8.755  11.509  0.00  0.00    +0.000 A 
ATOM     20  C   UNL     1      50.524   8.991  12.683  0.00  0.00    +0.000 A 
ATOM     21  C   UNL     1      50.087   8.312  13.808  0.00  0.00    +0.000 A 
ATOM     22  N   UNL     1      49.023   7.482  13.740  0.00  0.00    +0.000 NA
BRANCH  17  26
ATOM     23  C   UNL     1      45.241   4.408  12.396  0.00  0.00    +0.000 A 
ATOM     24  C   UNL     1      45.399   5.330  11.357  0.00  0.00    +0.000 A 
ATOM     25  C   UNL     1      46.419   6.287  11.415  0.00  0.00    +0.000 A 
ATOM     26  C   UNL     1      47.307   6.345  12.504  0.00  0.00    +0.000 A 
ATOM     27  C   UNL     1      47.112   5.414  13.546  0.00  0.00    +0.000 A 
ATOM     28  C   UNL     1      46.097   4.459  13.498  0.00  0.00    +0.000 A 
BRANCH  23  30
ATOM     29  N   UNL     1      43.386   2.609  12.266  0.00  0.00    +0.000 NA
ATOM     30  C   UNL     1      44.219   3.415  12.329  0.00  0.00    +0.000 C 
ENDBRANCH  23  30
ENDBRANCH  17  26
ENDBRANCH   1  21
TORSDOF 5
ENDMDL
MODEL 9
REMARK VINA RESULT:    -5.724      3.385      7.931
REMARK INTER + INTRA:          -7.668
REMARK INTER:                  -7.519
REMARK INTRA:                  -0.149
REMARK UNBOUND:                -0.270
REMARK  Name = 
REMARK  5 active torsions:
REMARK  status: ('A' for Active; 'I' for Inactive)
REMARK    1  A    between atoms: C_2  and  C_3
REMARK    2  A    between atoms: C_6  and  C_7
REMARK    3  A    between atoms: C_11  and  C_12
REMARK    4  A    between atoms: C_12  and  N_13
REMARK    5  A    between atoms: C_17  and  C_18
REMARK                            x       y       z     vdW  Elec       q    Type
REMARK                         _______ _______ _______ _____ _____    ______ ____
ROOT
ATOM      1  C   UNL     1      49.660   6.883  16.527  0.00  0.00    +0.000 C 
ATOM      2  C   UNL     1      51.132   6.572  16.309  0.00  0.00    +0.000 C 
ATOM      3  C   UNL     1      50.629   6.770  17.699  0.00  0.00    +0.000 C 
ENDROOT
BRANCH   1   4
ATOM      4  N   UNL     1      49.164   8.208  16.147  0.00  0.00    +0.000 N 
ATOM      5  C   UNL     1      49.277   8.780  14.880  0.00  0.00    +0.000 A 
ATOM      6  C   UNL     1      49.792   8.095  13.783  0.00  0.00    +0.000 A 
ATOM      7  C   UNL     1      49.819   8.705  12.528  0.00  0.00    +0.000 A 
ATOM      8  C   UNL     1      49.335  10.001  12.396  0.00  0.00    +0.000 A 
ATOM      9  C   UNL     1      48.830  10.617  13.530  0.00  0.00    +0.000 A 
ATOM     10  N   UNL     1      48.805  10.039  14.762  0.00  0.00    +0.000 NA
ATOM     11  H   UNL     1      48.860   8.894  16.827  0.00  0.00    +0.000 HD
BRANCH   8  12
ATOM     12  C   UNL     1      49.321  10.723  11.107  0.00  0.00    +0.000 C 
ATOM     13  N   UNL     1      50.531  10.966  10.515  0.00  0.00    +0.000 N 
ATOM     14  O   UNL     1      48.277  11.112  10.603  0.00  0.00    +0.000 OA
ATOM     15  H   UNL     1      51.410  10.869  11.002  0.00  0.00    +0.000 HD
ATOM     16  H   UNL     1      50.519  11.541   9.681  0.00  0.00    +0.000 HD
ENDBRANCH   8  12
ENDBRANCH   1   4
BRANCH   1  21
ATOM     17  C   UNL     1      47.157   4.658  14.938  0.00  0.00    +0.000 A 
ATOM     18  N   UNL     1      46.773   3.792  15.893  0.00  0.00    +0.000 NA
ATOM     19  C   UNL     1      47.380   3.917  17.084  0.00  0.00    +0.000 A 
ATOM     20  C   UNL     1      48.336   4.870  17.353  0.00  0.00    +0.000 A 
ATOM     21  C   UNL     1      48.664   5.738  16.325  0.00  0.00    +0.000 A 
ATOM     22  N   UNL     1      48.079   5.619  15.113  0.00  0.00    +0.000 NA
BRANCH  17  26
ATOM     23  C   UNL     1      45.291   4.450  11.061  0.00  0.00    +0.000 A 
ATOM     24  C   UNL     1      45.841   5.655  11.511  0.00  0.00    +0.000 A 
ATOM     25  C   UNL     1      46.432   5.729  12.777  0.00  0.00    +0.000 A 
ATOM     26  C   UNL     1      46.491   4.607  13.624  0.00  0.00    +0.000 A 
ATOM     27  C   UNL     1      45.912   3.411  13.151  0.00  0.00    +0.000 A 
ATOM     28  C   UNL     1      45.320   3.328  11.891  0.00  0.00    +0.000 A 
BRANCH  23  30
ATOM     29  N   UNL     1      44.234   4.295   8.704  0.00  0.00    +0.000 NA
ATOM     30  C   UNL     1      44.713   4.363   9.760  0.00  0.00    +0.000 C 
ENDBRANCH  23  30
ENDBRANCH  17  26
ENDBRANCH   1  21
TORSDOF 5
ENDMDL
