MODEL 1
REMARK VINA RESULT:    -8.248      0.000      0.000
REMARK INTER + INTRA:         -11.887
REMARK INTER:                 -11.623
REMARK INTRA:                  -0.264
REMARK UNBOUND:                -0.264
REMARK  Name = 
REMARK  8 active torsions:
REMARK  status: ('A' for Active; 'I' for Inactive)
REMARK    1  A    between atoms: C_1  and  O_2
REMARK    2  A    between atoms: O_2  and  C_3
REMARK    3  A    between atoms: C_8  and  N_9
REMARK    4  A    between atoms: N_9  and  C_10
REMARK    5  A    between atoms: C_10  and  C_11
REMARK    6  A    between atoms: C_14  and  C_15
REMARK    7  A    between atoms: C_15  and  N_16
REMARK    8  A    between atoms: C_17  and  C_19
REMARK                            x       y       z     vdW  Elec       q    Type
REMARK                         _______ _______ _______ _____ _____    ______ ____
ROOT
ATOM      1  C   UNL     1      44.898   3.920  10.727  0.00  0.00    +0.000 A 
ATOM      2  C   UNL     1      45.049   5.184  10.139  0.00  0.00    +0.000 A 
ATOM      3  C   UNL     1      45.652   6.229  10.842  0.00  0.00    +0.000 A 
ATOM      4  C   UNL     1      46.141   6.027  12.138  0.00  0.00    +0.000 A 
ATOM      5  C   UNL     1      45.970   4.769  12.736  0.00  0.00    +0.000 A 
ATOM      6  C   UNL     1      45.370   3.719  12.031  0.00  0.00    +0.000 A 
ENDROOT
BRANCH   1   7
ATOM      7  C   UNL     1      44.184   2.820   9.973  0.00  0.00    +0.000 C 
BRANCH   7   8
ATOM      8  N   UNL     1      45.122   1.830   9.462  0.00  0.00    +0.000 N 
ATOM      9  H   UNL     1      44.726   0.894   9.428  0.00  0.00    +0.000 HD
BRANCH   8  15
ATOM     10  C   UNL     1      46.706   1.205   7.603  0.00  0.00    +0.000 A 
ATOM     11  C   UNL     1      47.407   1.624   6.459  0.00  0.00    +0.000 A 
ATOM     12  C   UNL     1      47.258   2.917   5.963  0.00  0.00    +0.000 A 
ATOM     13  C   UNL     1      46.399   3.801   6.596  0.00  0.00    +0.000 A 
ATOM     14  C   UNL     1      45.724   3.405   7.755  0.00  0.00    +0.000 A 
ATOM     15  C   UNL     1      45.891   2.120   8.315  0.00  0.00    +0.000 A 
BRANCH  10  17
ATOM     16  C   UNL     1      46.452  -1.148   7.219  0.00  0.00    +0.000 C 
ATOM     17  O   UNL     1      46.801  -0.078   8.083  0.00  0.00    +0.000 OA
ENDBRANCH  10  17
ENDBRANCH   8  15
ENDBRANCH   7   8
ENDBRANCH   1   7
BRANCH   4  18
ATOM     18  C   UNL     1      46.844   7.138  12.876  0.00  0.00    +0.000 C 
BRANCH  18  19
ATOM     19  N   UNL     1      47.165   6.771  14.233  0.00  0.00    +0.000 N 
ATOM     20  C   UNL     1      48.470   6.628  14.637  0.00  0.00    +0.000 C 
ATOM     21  O   UNL     1      49.418   6.882  13.903  0.00  0.00    +0.000 OA
ATOM     22  H   UNL     1      46.421   6.358  14.781  0.00  0.00    +0.000 HD
BRANCH  20  23
ATOM     23  C   UNL     1      48.665   6.228  16.038  0.00  0.00    +0.000 A 
ATOM     24  C   UNL     1      49.225   7.119  16.945  0.00  0.00    +0.000 A 
ATOM     25  S   UNL     1      49.353   6.487  18.526  0.00  0.00    +0.000 S 
ATOM     26  C   UNL     1      48.709   4.988  18.041  0.00  0.00    +0.000 A 
ATOM     27  N   UNL     1      48.571   3.962  18.925  0.00  0.00    +0.000 NA
ATOM     28  C   UNL     1      48.094   2.877  18.411  0.00  0.00    +0.000 A 
ATOM     29  N   UNL     1      47.738   2.723  17.099  0.00  0.00    +0.000 N 
ATOM     30  C   UNL     1      47.829   3.737  16.178  0.00  0.00    +0.000 A 
ATOM     31  O   UNL     1      47.447   3.586  15.023  0.00  0.00    +0.000 OA
ATOM     32  C   UNL     1      48.380   4.978  16.698  0.00  0.00    +0.000 A 
ATOM     33  H   UNL     1      47.347   1.855  16.762  0.00  0.00    +0.000 HD
ENDBRANCH  20  23
ENDBRANCH  18  19
ENDBRANCH   4  18
TORSDOF 7
ENDMDL
MODEL 2
REMARK VINA RESULT:    -8.019      1.492      2.266
REMARK INTER + INTRA:         -11.565
REMARK INTER:                 -10.895
REMARK INTRA:                  -0.670
REMARK UNBOUND:                -0.264
REMARK  Name = 
REMARK  8 active torsions:
REMARK  status: ('A' for Active; 'I' for Inactive)
REMARK    1  A    between atoms: C_1  and  O_2
REMARK    2  A    between atoms: O_2  and  C_3
REMARK    3  A    between atoms: C_8  and  N_9
REMARK    4  A    between atoms: N_9  and  C_10
REMARK    5  A    between atoms: C_10  and  C_11
REMARK    6  A    between atoms: C_14  and  C_15
REMARK    7  A    between atoms: C_15  and  N_16
REMARK    8  A    between atoms: C_17  and  C_19
REMARK                            x       y       z     vdW  Elec       q    Type
REMARK                         _______ _______ _______ _____ _____    ______ ____
ROOT
ATOM      1  C   UNL     1      44.892   3.793  10.754  0.00  0.00    +0.000 A 
ATOM      2  C   UNL     1      45.326   3.306  11.995  0.00  0.00    +0.000 A 
ATOM      3  C   UNL     1      46.043   4.125  12.870  0.00  0.00    +0.000 A 
ATOM      4  C   UNL     1      46.321   5.456  12.535  0.00  0.00    +0.000 A 
ATOM      5  C   UNL     1      45.906   5.937  11.284  0.00  0.00    +0.000 A 
ATOM      6  C   UNL     1      45.183   5.120  10.408  0.00  0.00    +0.000 A 
ENDROOT
BRANCH   1   7
ATOM      7  C   UNL     1      44.173   2.872   9.794  0.00  0.00    +0.000 C 
BRANCH   7   8
ATOM      8  N   UNL     1      45.058   1.833   9.289  0.00  0.00    +0.000 N 
ATOM      9  H   UNL     1      44.595   0.932   9.198  0.00  0.00    +0.000 HD
BRANCH   8  15
ATOM     10  C   UNL     1      46.767   1.178   7.554  0.00  0.00    +0.000 A 
ATOM     11  C   UNL     1      47.545   1.580   6.455  0.00  0.00    +0.000 A 
ATOM     12  C   UNL     1      47.433   2.864   5.929  0.00  0.00    +0.000 A 
ATOM     13  C   UNL     1      46.532   3.758   6.488  0.00  0.00    +0.000 A 
ATOM     14  C   UNL     1      45.778   3.380   7.603  0.00  0.00    +0.000 A 
ATOM     15  C   UNL     1      45.905   2.105   8.194  0.00  0.00    +0.000 A 
BRANCH  10  17
ATOM     16  C   UNL     1      46.465  -1.176   7.213  0.00  0.00    +0.000 C 
ATOM     17  O   UNL     1      46.827  -0.097   8.060  0.00  0.00    +0.000 OA
ENDBRANCH  10  17
ENDBRANCH   8  15
ENDBRANCH   7   8
ENDBRANCH   1   7
BRANCH   4  18
ATOM     18  C   UNL     1      47.044   6.356  13.503  0.00  0.00    +0.000 C 
BRANCH  18  19
ATOM     19  N   UNL     1      47.204   5.745  14.799  0.00  0.00    +0.000 N 
ATOM     20  C   UNL     1      48.380   5.869  15.499  0.00  0.00    +0.000 C 
ATOM     21  O   UNL     1      49.310   6.563  15.106  0.00  0.00    +0.000 OA
ATOM     22  H   UNL     1      46.551   5.010  15.040  0.00  0.00    +0.000 HD
BRANCH  20  23
ATOM     23  C   UNL     1      48.426   5.180  16.796  0.00  0.00    +0.000 A 
ATOM     24  C   UNL     1      48.460   3.792  16.848  0.00  0.00    +0.000 A 
ATOM     25  S   UNL     1      48.533   3.173  18.437  0.00  0.00    +0.000 S 
ATOM     26  C   UNL     1      48.473   4.735  19.109  0.00  0.00    +0.000 A 
ATOM     27  N   UNL     1      48.471   4.920  20.458  0.00  0.00    +0.000 NA
ATOM     28  C   UNL     1      48.396   6.157  20.825  0.00  0.00    +0.000 A 
ATOM     29  N   UNL     1      48.328   7.224  19.971  0.00  0.00    +0.000 N 
ATOM     30  C   UNL     1      48.359   7.089  18.606  0.00  0.00    +0.000 A 
ATOM     31  O   UNL     1      48.355   8.068  17.867  0.00  0.00    +0.000 OA
ATOM     32  C   UNL     1      48.422   5.715  18.136  0.00  0.00    +0.000 A 
ATOM     33  H   UNL     1      48.296   8.171  20.321  0.00  0.00    +0.000 HD
ENDBRANCH  20  23
ENDBRANCH  18  19
ENDBRANCH   4  18
TORSDOF 7
ENDMDL
MODEL 3
REMARK VINA RESULT:    -7.962      4.749      9.257
REMARK INTER + INTRA:         -11.485
REMARK INTER:                 -10.542
REMARK INTRA:                  -0.942
REMARK UNBOUND:                -0.264
REMARK  Name = 
REMARK  8 active torsions:
REMARK  status: ('A' for Active; 'I' for Inactive)
REMARK    1  A    between atoms: C_1  and  O_2
REMARK    2  A    between atoms: O_2  and  C_3
REMARK    3  A    between atoms: C_8  and  N_9
REMARK    4  A    between atoms: N_9  and  C_10
REMARK    5  A    between atoms: C_10  and  C_11
REMARK    6  A    between atoms: C_14  and  C_15
REMARK    7  A    between atoms: C_15  and  N_16
REMARK    8  A    between atoms: C_17  and  C_19
REMARK                            x       y       z     vdW  Elec       q    Type
REMARK                         _______ _______ _______ _____ _____    ______ ____
ROOT
ATOM      1  C   UNL     1      51.405   3.119  17.859  0.00  0.00    +0.000 A 
ATOM      2  C   UNL     1      50.690   4.287  18.156  0.00  0.00    +0.000 A 
ATOM      3  C   UNL     1      49.335   4.396  17.833  0.00  0.00    +0.000 A 
ATOM      4  C   UNL     1      48.659   3.328  17.230  0.00  0.00    +0.000 A 
ATOM      5  C   UNL     1      49.380   2.166  16.913  0.00  0.00    +0.000 A 
ATOM      6  C   UNL     1      50.736   2.055  17.240  0.00  0.00    +0.000 A 
ENDROOT
BRANCH   1   7
ATOM      7  C   UNL     1      52.886   3.046  18.158  0.00  0.00    +0.000 C 
BRANCH   7   8
ATOM      8  N   UNL     1      53.255   1.747  18.703  0.00  0.00    +0.000 N 
ATOM      9  H   UNL     1      52.469   1.259  19.126  0.00  0.00    +0.000 HD
BRANCH   8  15
ATOM     10  C   UNL     1      54.134  -0.533  18.078  0.00  0.00    +0.000 A 
ATOM     11  C   UNL     1      54.982  -1.282  17.246  0.00  0.00    +0.000 A 
ATOM     12  C   UNL     1      55.720  -0.668  16.237  0.00  0.00    +0.000 A 
ATOM     13  C   UNL     1      55.608   0.699  16.040  0.00  0.00    +0.000 A 
ATOM     14  C   UNL     1      54.794   1.460  16.885  0.00  0.00    +0.000 A 
ATOM     15  C   UNL     1      54.074   0.878  17.950  0.00  0.00    +0.000 A 
BRANCH  10  17
ATOM     16  C   UNL     1      53.631  -2.471  19.396  0.00  0.00    +0.000 C 
ATOM     17  O   UNL     1      53.362  -1.123  19.049  0.00  0.00    +0.000 OA
ENDBRANCH  10  17
ENDBRANCH   8  15
ENDBRANCH   7   8
ENDBRANCH   1   7
BRANCH   4  18
ATOM     18  C   UNL     1      47.185   3.422  16.934  0.00  0.00    +0.000 C 
BRANCH  18  19
ATOM     19  N   UNL     1      46.893   4.422  15.937  0.00  0.00    +0.000 N 
ATOM     20  C   UNL     1      47.007   4.139  14.598  0.00  0.00    +0.000 C 
ATOM     21  O   UNL     1      47.275   3.018  14.182  0.00  0.00    +0.000 OA
ATOM     22  H   UNL     1      46.882   5.385  16.248  0.00  0.00    +0.000 HD
BRANCH  20  23
ATOM     23  C   UNL     1      46.705   5.250  13.683  0.00  0.00    +0.000 A 
ATOM     24  C   UNL     1      47.647   6.248  13.464  0.00  0.00    +0.000 A 
ATOM     25  S   UNL     1      47.128   7.439  12.357  0.00  0.00    +0.000 S 
ATOM     26  C   UNL     1      45.612   6.689  12.171  0.00  0.00    +0.000 A 
ATOM     27  N   UNL     1      44.655   7.225  11.365  0.00  0.00    +0.000 NA
ATOM     28  C   UNL     1      43.546   6.563  11.341  0.00  0.00    +0.000 A 
ATOM     29  N   UNL     1      43.306   5.414  12.044  0.00  0.00    +0.000 N 
ATOM     30  C   UNL     1      44.248   4.818  12.844  0.00  0.00    +0.000 A 
ATOM     31  O   UNL     1      44.023   3.757  13.416  0.00  0.00    +0.000 OA
ATOM     32  C   UNL     1      45.512   5.534  12.925  0.00  0.00    +0.000 A 
ATOM     33  H   UNL     1      42.424   4.928  11.964  0.00  0.00    +0.000 HD
ENDBRANCH  20  23
ENDBRANCH  18  19
ENDBRANCH   4  18
TORSDOF 7
ENDMDL
MODEL 4
REMARK VINA RESULT:    -7.802      2.034      2.962
REMARK INTER + INTRA:         -11.259
REMARK INTER:                 -10.233
REMARK INTRA:                  -1.026
REMARK UNBOUND:                -0.264
REMARK  Name = 
REMARK  8 active torsions:
REMARK  status: ('A' for Active; 'I' for Inactive)
REMARK    1  A    between atoms: C_1  and  O_2
REMARK    2  A    between atoms: O_2  and  C_3
REMARK    3  A    between atoms: C_8  and  N_9
REMARK    4  A    between atoms: N_9  and  C_10
REMARK    5  A    between atoms: C_10  and  C_11
REMARK    6  A    between atoms: C_14  and  C_15
REMARK    7  A    between atoms: C_15  and  N_16
REMARK    8  A    between atoms: C_17  and  C_19
REMARK                            x       y       z     vdW  Elec       q    Type
REMARK                         _______ _______ _______ _____ _____    ______ ____
ROOT
ATOM      1  C   UNL     1      45.190   6.174  12.143  0.00  0.00    +0.000 A 
ATOM      2  C   UNL     1      46.012   5.253  12.807  0.00  0.00    +0.000 A 
ATOM      3  C   UNL     1      47.311   5.600  13.184  0.00  0.00    +0.000 A 
ATOM      4  C   UNL     1      47.808   6.884  12.929  0.00  0.00    +0.000 A 
ATOM      5  C   UNL     1      46.993   7.800  12.245  0.00  0.00    +0.000 A 
ATOM      6  C   UNL     1      45.690   7.454  11.870  0.00  0.00    +0.000 A 
ENDROOT
BRANCH   1   7
ATOM      7  C   UNL     1      43.810   5.757  11.685  0.00  0.00    +0.000 C 
BRANCH   7   8
ATOM      8  N   UNL     1      43.773   5.524  10.248  0.00  0.00    +0.000 N 
ATOM      9  H   UNL     1      43.950   6.367   9.708  0.00  0.00    +0.000 HD
BRANCH   8  15
ATOM     10  C   UNL     1      44.140   3.042   9.994  0.00  0.00    +0.000 A 
ATOM     11  C   UNL     1      44.862   2.015   9.362  0.00  0.00    +0.000 A 
ATOM     12  C   UNL     1      45.817   2.305   8.392  0.00  0.00    +0.000 A 
ATOM     13  C   UNL     1      46.053   3.623   8.032  0.00  0.00    +0.000 A 
ATOM     14  C   UNL     1      45.365   4.654   8.680  0.00  0.00    +0.000 A 
ATOM     15  C   UNL     1      44.429   4.399   9.704  0.00  0.00    +0.000 A 
BRANCH  10  17
ATOM     16  C   UNL     1      43.553   2.509  12.257  0.00  0.00    +0.000 C 
ATOM     17  O   UNL     1      43.161   2.778  10.920  0.00  0.00    +0.000 OA
ENDBRANCH  10  17
ENDBRANCH   8  15
ENDBRANCH   7   8
ENDBRANCH   1   7
BRANCH   4  18
ATOM     18  C   UNL     1      49.188   7.279  13.388  0.00  0.00    +0.000 C 
BRANCH  18  19
ATOM     19  N   UNL     1      49.410   6.964  14.777  0.00  0.00    +0.000 N 
ATOM     20  C   UNL     1      48.944   7.789  15.772  0.00  0.00    +0.000 C 
ATOM     21  O   UNL     1      48.253   8.775  15.540  0.00  0.00    +0.000 OA
ATOM     22  H   UNL     1      50.141   6.295  14.982  0.00  0.00    +0.000 HD
BRANCH  20  23
ATOM     23  C   UNL     1      49.256   7.372  17.146  0.00  0.00    +0.000 A 
ATOM     24  C   UNL     1      50.043   8.180  17.958  0.00  0.00    +0.000 A 
ATOM     25  S   UNL     1      50.280   7.542  19.524  0.00  0.00    +0.000 S 
ATOM     26  C   UNL     1      49.381   6.146  19.154  0.00  0.00    +0.000 A 
ATOM     27  N   UNL     1      49.216   5.152  20.070  0.00  0.00    +0.000 NA
ATOM     28  C   UNL     1      48.533   4.142  19.643  0.00  0.00    +0.000 A 
ATOM     29  N   UNL     1      47.998   4.034  18.388  0.00  0.00    +0.000 N 
ATOM     30  C   UNL     1      48.110   5.022  17.442  0.00  0.00    +0.000 A 
ATOM     31  O   UNL     1      47.570   4.921  16.346  0.00  0.00    +0.000 OA
ATOM     32  C   UNL     1      48.888   6.176  17.863  0.00  0.00    +0.000 A 
ATOM     33  H   UNL     1      47.452   3.227  18.121  0.00  0.00    +0.000 HD
ENDBRANCH  20  23
ENDBRANCH  18  19
ENDBRANCH   4  18
TORSDOF 7
ENDMDL
MODEL 5
REMARK VINA RESULT:    -7.785      3.636      8.350
REMARK INTER + INTRA:         -11.236
REMARK INTER:                 -10.017
REMARK INTRA:                  -1.219
REMARK UNBOUND:                -0.264
REMARK  Name = 
REMARK  8 active torsions:
REMARK  status: ('A' for Active; 'I' for Inactive)
REMARK    1  A    between atoms: C_1  and  O_2
REMARK    2  A    between atoms: O_2  and  C_3
REMARK    3  A    between atoms: C_8  and  N_9
REMARK    4  A    between atoms: N_9  and  C_10
REMARK    5  A    between atoms: C_10  and  C_11
REMARK    6  A    between atoms: C_14  and  C_15
REMARK    7  A    between atoms: C_15  and  N_16
REMARK    8  A    between atoms: C_17  and  C_19
REMARK                            x       y       z     vdW  Elec       q    Type
REMARK                         _______ _______ _______ _____ _____    ______ ____
ROOT
ATOM      1  C   UNL     1      50.282   6.906  15.897  0.00  0.00    +0.000 A 
ATOM      2  C   UNL     1      48.929   6.598  15.697  0.00  0.00    +0.000 A 
ATOM      3  C   UNL     1      48.268   7.011  14.538  0.00  0.00    +0.000 A 
ATOM      4  C   UNL     1      48.951   7.719  13.542  0.00  0.00    +0.000 A 
ATOM      5  C   UNL     1      50.299   8.047  13.751  0.00  0.00    +0.000 A 
ATOM      6  C   UNL     1      50.965   7.629  14.909  0.00  0.00    +0.000 A 
ENDROOT
BRANCH   1   7
ATOM      7  C   UNL     1      50.963   6.505  17.186  0.00  0.00    +0.000 C 
BRANCH   7   8
ATOM      8  N   UNL     1      50.232   5.446  17.867  0.00  0.00    +0.000 N 
ATOM      9  H   UNL     1      49.224   5.534  17.764  0.00  0.00    +0.000 HD
BRANCH   8  15
ATOM     10  C   UNL     1      49.938   3.052  17.132  0.00  0.00    +0.000 A 
ATOM     11  C   UNL     1      50.494   1.764  17.059  0.00  0.00    +0.000 A 
ATOM     12  C   UNL     1      51.786   1.515  17.515  0.00  0.00    +0.000 A 
ATOM     13  C   UNL     1      52.541   2.554  18.038  0.00  0.00    +0.000 A 
ATOM     14  C   UNL     1      51.984   3.832  18.147  0.00  0.00    +0.000 A 
ATOM     15  C   UNL     1      50.661   4.107  17.744  0.00  0.00    +0.000 A 
BRANCH  10  17
ATOM     16  C   UNL     1      47.560   2.939  17.417  0.00  0.00    +0.000 C 
ATOM     17  O   UNL     1      48.684   3.331  16.646  0.00  0.00    +0.000 OA
ENDBRANCH  10  17
ENDBRANCH   8  15
ENDBRANCH   7   8
ENDBRANCH   1   7
BRANCH   4  18
ATOM     18  C   UNL     1      48.254   8.115  12.266  0.00  0.00    +0.000 C 
BRANCH  18  19
ATOM     19  N   UNL     1      47.589   6.998  11.640  0.00  0.00    +0.000 N 
ATOM     20  C   UNL     1      46.225   6.987  11.479  0.00  0.00    +0.000 C 
ATOM     21  O   UNL     1      45.519   7.945  11.775  0.00  0.00    +0.000 OA
ATOM     22  H   UNL     1      48.108   6.131  11.587  0.00  0.00    +0.000 HD
BRANCH  20  23
ATOM     23  C   UNL     1      45.666   5.782  10.850  0.00  0.00    +0.000 A 
ATOM     24  C   UNL     1      45.867   5.547   9.495  0.00  0.00    +0.000 A 
ATOM     25  S   UNL     1      45.163   4.091   8.947  0.00  0.00    +0.000 S 
ATOM     26  C   UNL     1      44.528   3.751  10.489  0.00  0.00    +0.000 A 
ATOM     27  N   UNL     1      43.775   2.638  10.710  0.00  0.00    +0.000 NA
ATOM     28  C   UNL     1      43.338   2.524  11.921  0.00  0.00    +0.000 A 
ATOM     29  N   UNL     1      43.585   3.414  12.930  0.00  0.00    +0.000 N 
ATOM     30  C   UNL     1      44.364   4.531  12.764  0.00  0.00    +0.000 A 
ATOM     31  O   UNL     1      44.616   5.280  13.702  0.00  0.00    +0.000 OA
ATOM     32  C   UNL     1      44.867   4.722  11.413  0.00  0.00    +0.000 A 
ATOM     33  H   UNL     1      43.235   3.255  13.863  0.00  0.00    +0.000 HD
ENDBRANCH  20  23
ENDBRANCH  18  19
ENDBRANCH   4  18
TORSDOF 7
ENDMDL
MODEL 6
REMARK VINA RESULT:    -7.508      2.529      4.319
REMARK INTER + INTRA:         -10.845
REMARK INTER:                  -9.869
REMARK INTRA:                  -0.976
REMARK UNBOUND:                -0.264
REMARK  Name = 
REMARK  8 active torsions:
REMARK  status: ('A' for Active; 'I' for Inactive)
REMARK    1  A    between atoms: C_1  and  O_2
REMARK    2  A    between atoms: O_2  and  C_3
REMARK    3  A    between atoms: C_8  and  N_9
REMARK    4  A    between atoms: N_9  and  C_10
REMARK    5  A    between atoms: C_10  and  C_11
REMARK    6  A    between atoms: C_14  and  C_15
REMARK    7  A    between atoms: C_15  and  N_16
REMARK    8  A    between atoms: C_17  and  C_19
REMARK                            x       y       z     vdW  Elec       q    Type
REMARK                         _______ _______ _______ _____ _____    ______ ____
ROOT
ATOM      1  C   UNL     1      44.736   3.752  12.079  0.00  0.00    +0.000 A 
ATOM      2  C   UNL     1      44.646   5.082  12.513  0.00  0.00    +0.000 A 
ATOM      3  C   UNL     1      45.530   5.580  13.473  0.00  0.00    +0.000 A 
ATOM      4  C   UNL     1      46.539   4.766  14.002  0.00  0.00    +0.000 A 
ATOM      5  C   UNL     1      46.616   3.429  13.584  0.00  0.00    +0.000 A 
ATOM      6  C   UNL     1      45.734   2.930  12.619  0.00  0.00    +0.000 A 
ENDROOT
BRANCH   1   7
ATOM      7  C   UNL     1      43.729   3.215  11.086  0.00  0.00    +0.000 C 
BRANCH   7   8
ATOM      8  N   UNL     1      44.346   2.280  10.156  0.00  0.00    +0.000 N 
ATOM      9  H   UNL     1      43.689   1.594   9.793  0.00  0.00    +0.000 HD
BRANCH   8  15
ATOM     10  C   UNL     1      45.954   1.968   8.239  0.00  0.00    +0.000 A 
ATOM     11  C   UNL     1      46.770   2.580   7.273  0.00  0.00    +0.000 A 
ATOM     12  C   UNL     1      46.813   3.966   7.145  0.00  0.00    +0.000 A 
ATOM     13  C   UNL     1      46.031   4.755   7.974  0.00  0.00    +0.000 A 
ATOM     14  C   UNL     1      45.242   4.158   8.962  0.00  0.00    +0.000 A 
ATOM     15  C   UNL     1      45.215   2.760   9.153  0.00  0.00    +0.000 A 
BRANCH  10  17
ATOM     16  C   UNL     1      46.747  -0.199   7.586  0.00  0.00    +0.000 C 
ATOM     17  O   UNL     1      45.861   0.602   8.351  0.00  0.00    +0.000 OA
ENDBRANCH  10  17
ENDBRANCH   8  15
ENDBRANCH   7   8
ENDBRANCH   1   7
BRANCH   4  18
ATOM     18  C   UNL     1      47.529   5.318  14.995  0.00  0.00    +0.000 C 
BRANCH  18  19
ATOM     19  N   UNL     1      47.900   6.679  14.694  0.00  0.00    +0.000 N 
ATOM     20  C   UNL     1      49.137   7.167  15.039  0.00  0.00    +0.000 C 
ATOM     21  O   UNL     1      50.008   6.462  15.535  0.00  0.00    +0.000 OA
ATOM     22  H   UNL     1      47.146   7.322  14.488  0.00  0.00    +0.000 HD
BRANCH  20  23
ATOM     23  C   UNL     1      49.384   8.576  14.700  0.00  0.00    +0.000 A 
ATOM     24  C   UNL     1      49.759   9.476  15.690  0.00  0.00    +0.000 A 
ATOM     25  S   UNL     1      50.023  11.058  15.105  0.00  0.00    +0.000 S 
ATOM     26  C   UNL     1      49.599  10.604  13.521  0.00  0.00    +0.000 A 
ATOM     27  N   UNL     1      49.587  11.515  12.508  0.00  0.00    +0.000 NA
ATOM     28  C   UNL     1      49.220  11.035  11.366  0.00  0.00    +0.000 A 
ATOM     29  N   UNL     1      48.870   9.731  11.140  0.00  0.00    +0.000 N 
ATOM     30  C   UNL     1      48.898   8.772  12.121  0.00  0.00    +0.000 A 
ATOM     31  O   UNL     1      48.634   7.600  11.875  0.00  0.00    +0.000 OA
ATOM     32  C   UNL     1      49.284   9.261  13.435  0.00  0.00    +0.000 A 
ATOM     33  H   UNL     1      48.615   9.412  10.217  0.00  0.00    +0.000 HD
ENDBRANCH  20  23
ENDBRANCH  18  19
ENDBRANCH   4  18
TORSDOF 7
ENDMDL
MODEL 7
REMARK VINA RESULT:    -7.428      3.033      8.657
REMARK INTER + INTRA:         -10.732
REMARK INTER:                  -9.128
REMARK INTRA:                  -1.604
REMARK UNBOUND:                -0.264
REMARK  Name = 
REMARK  8 active torsions:
REMARK  status: ('A' for Active; 'I' for Inactive)
REMARK    1  A    between atoms: C_1  and  O_2
REMARK    2  A    between atoms: O_2  and  C_3
REMARK    3  A    between atoms: C_8  and  N_9
REMARK    4  A    between atoms: N_9  and  C_10
REMARK    5  A    between atoms: C_10  and  C_11
REMARK    6  A    between atoms: C_14  and  C_15
REMARK    7  A    between atoms: C_15  and  N_16
REMARK    8  A    between atoms: C_17  and  C_19
REMARK                            x       y       z     vdW  Elec       q    Type
REMARK                         _______ _______ _______ _____ _____    ______ ____
ROOT
ATOM      1  C   UNL     1      49.653   8.056  15.820  0.00  0.00    +0.000 A 
ATOM      2  C   UNL     1      50.257   7.455  14.707  0.00  0.00    +0.000 A 
ATOM      3  C   UNL     1      49.583   7.380  13.485  0.00  0.00    +0.000 A 
ATOM      4  C   UNL     1      48.303   7.929  13.343  0.00  0.00    +0.000 A 
ATOM      5  C   UNL     1      47.690   8.511  14.463  0.00  0.00    +0.000 A 
ATOM      6  C   UNL     1      48.365   8.590  15.686  0.00  0.00    +0.000 A 
ENDROOT
BRANCH   1   7
ATOM      7  C   UNL     1      50.373   8.069  17.151  0.00  0.00    +0.000 C 
BRANCH   7   8
ATOM      8  N   UNL     1      49.793   7.108  18.079  0.00  0.00    +0.000 N 
ATOM      9  H   UNL     1      48.805   7.277  18.253  0.00  0.00    +0.000 HD
BRANCH   8  15
ATOM     10  C   UNL     1      49.205   4.753  17.398  0.00  0.00    +0.000 A 
ATOM     11  C   UNL     1      49.625   3.416  17.292  0.00  0.00    +0.000 A 
ATOM     12  C   UNL     1      50.922   3.044  17.638  0.00  0.00    +0.000 A 
ATOM     13  C   UNL     1      51.816   4.005  18.082  0.00  0.00    +0.000 A 
ATOM     14  C   UNL     1      51.398   5.332  18.225  0.00  0.00    +0.000 A 
ATOM     15  C   UNL     1      50.077   5.734  17.933  0.00  0.00    +0.000 A 
BRANCH  10  17
ATOM     16  C   UNL     1      47.475   4.764  15.738  0.00  0.00    +0.000 C 
ATOM     17  O   UNL     1      47.947   5.151  17.019  0.00  0.00    +0.000 OA
ENDBRANCH  10  17
ENDBRANCH   8  15
ENDBRANCH   7   8
ENDBRANCH   1   7
BRANCH   4  18
ATOM     18  C   UNL     1      47.599   7.901  12.011  0.00  0.00    +0.000 C 
BRANCH  18  19
ATOM     19  N   UNL     1      46.870   6.673  11.807  0.00  0.00    +0.000 N 
ATOM     20  C   UNL     1      45.498   6.669  11.739  0.00  0.00    +0.000 C 
ATOM     21  O   UNL     1      44.834   7.699  11.763  0.00  0.00    +0.000 OA
ATOM     22  H   UNL     1      47.366   5.812  11.996  0.00  0.00    +0.000 HD
BRANCH  20  23
ATOM     23  C   UNL     1      44.872   5.352  11.553  0.00  0.00    +0.000 A 
ATOM     24  C   UNL     1      44.137   4.778  12.583  0.00  0.00    +0.000 A 
ATOM     25  S   UNL     1      43.470   3.261  12.176  0.00  0.00    +0.000 S 
ATOM     26  C   UNL     1      44.179   3.298  10.630  0.00  0.00    +0.000 A 
ATOM     27  N   UNL     1      44.024   2.264   9.759  0.00  0.00    +0.000 NA
ATOM     28  C   UNL     1      44.640   2.418   8.633  0.00  0.00    +0.000 A 
ATOM     29  N   UNL     1      45.393   3.510   8.297  0.00  0.00    +0.000 N 
ATOM     30  C   UNL     1      45.552   4.590   9.127  0.00  0.00    +0.000 A 
ATOM     31  O   UNL     1      46.184   5.580   8.774  0.00  0.00    +0.000 OA
ATOM     32  C   UNL     1      44.896   4.462  10.419  0.00  0.00    +0.000 A 
ATOM     33  H   UNL     1      45.830   3.582   7.389  0.00  0.00    +0.000 HD
ENDBRANCH  20  23
ENDBRANCH  18  19
ENDBRANCH   4  18
TORSDOF 7
ENDMDL
MODEL 8
REMARK VINA RESULT:    -7.047      3.081      4.003
REMARK INTER + INTRA:         -10.194
REMARK INTER:                  -9.346
REMARK INTRA:                  -0.848
REMARK UNBOUND:                -0.264
REMARK  Name = 
REMARK  8 active torsions:
REMARK  status: ('A' for Active; 'I' for Inactive)
REMARK    1  A    between atoms: C_1  and  O_2
REMARK    2  A    between atoms: O_2  and  C_3
REMARK    3  A    between atoms: C_8  and  N_9
REMARK    4  A    between atoms: N_9  and  C_10
REMARK    5  A    between atoms: C_10  and  C_11
REMARK    6  A    between atoms: C_14  and  C_15
REMARK    7  A    between atoms: C_15  and  N_16
REMARK    8  A    between atoms: C_17  and  C_19
REMARK                            x       y       z     vdW  Elec       q    Type
REMARK                         _______ _______ _______ _____ _____    ______ ____
ROOT
ATOM      1  C   UNL     1      44.547   3.712  10.582  0.00  0.00    +0.000 A 
ATOM      2  C   UNL     1      45.085   3.410  11.840  0.00  0.00    +0.000 A 
ATOM      3  C   UNL     1      45.497   4.430  12.702  0.00  0.00    +0.000 A 
ATOM      4  C   UNL     1      45.357   5.773  12.335  0.00  0.00    +0.000 A 
ATOM      5  C   UNL     1      44.838   6.075  11.066  0.00  0.00    +0.000 A 
ATOM      6  C   UNL     1      44.421   5.055  10.204  0.00  0.00    +0.000 A 
ENDROOT
BRANCH   1   7
ATOM      7  C   UNL     1      44.166   2.593   9.638  0.00  0.00    +0.000 C 
BRANCH   7   8
ATOM      8  N   UNL     1      45.316   1.767   9.300  0.00  0.00    +0.000 N 
ATOM      9  H   UNL     1      45.128   0.772   9.393  0.00  0.00    +0.000 HD
BRANCH   8  15
ATOM     10  C   UNL     1      46.895   1.146   7.434  0.00  0.00    +0.000 A 
ATOM     11  C   UNL     1      47.577   1.563   6.279  0.00  0.00    +0.000 A 
ATOM     12  C   UNL     1      47.401   2.846   5.767  0.00  0.00    +0.000 A 
ATOM     13  C   UNL     1      46.532   3.722   6.397  0.00  0.00    +0.000 A 
ATOM     14  C   UNL     1      45.874   3.330   7.567  0.00  0.00    +0.000 A 
ATOM     15  C   UNL     1      46.070   2.056   8.142  0.00  0.00    +0.000 A 
BRANCH  10  17
ATOM     16  C   UNL     1      46.421  -1.193   7.206  0.00  0.00    +0.000 C 
ATOM     17  O   UNL     1      47.017  -0.129   7.930  0.00  0.00    +0.000 OA
ENDBRANCH  10  17
ENDBRANCH   8  15
ENDBRANCH   7   8
ENDBRANCH   1   7
BRANCH   4  18
ATOM     18  C   UNL     1      45.747   6.874  13.286  0.00  0.00    +0.000 C 
BRANCH  18  19
ATOM     19  N   UNL     1      47.094   7.336  13.060  0.00  0.00    +0.000 N 
ATOM     20  C   UNL     1      47.344   8.638  12.699  0.00  0.00    +0.000 C 
ATOM     21  O   UNL     1      46.460   9.485  12.634  0.00  0.00    +0.000 OA
ATOM     22  H   UNL     1      47.798   6.627  12.899  0.00  0.00    +0.000 HD
BRANCH  20  23
ATOM     23  C   UNL     1      48.756   8.979  12.473  0.00  0.00    +0.000 A 
ATOM     24  C   UNL     1      49.117   9.771  11.390  0.00  0.00    +0.000 A 
ATOM     25  S   UNL     1      50.794  10.077  11.303  0.00  0.00    +0.000 S 
ATOM     26  C   UNL     1      51.098   9.124  12.679  0.00  0.00    +0.000 A 
ATOM     27  N   UNL     1      52.366   8.939  13.141  0.00  0.00    +0.000 NA
ATOM     28  C   UNL     1      52.448   8.171  14.177  0.00  0.00    +0.000 A 
ATOM     29  N   UNL     1      51.383   7.576  14.797  0.00  0.00    +0.000 N 
ATOM     30  C   UNL     1      50.086   7.759  14.389  0.00  0.00    +0.000 A 
ATOM     31  O   UNL     1      49.147   7.260  15.000  0.00  0.00    +0.000 OA
ATOM     32  C   UNL     1      49.935   8.599  13.211  0.00  0.00    +0.000 A 
ATOM     33  H   UNL     1      51.510   7.006  15.620  0.00  0.00    +0.000 HD
ENDBRANCH  20  23
ENDBRANCH  18  19
ENDBRANCH   4  18
TORSDOF 7
ENDMDL
MODEL 9
REMARK VINA RESULT:    -6.999      4.728      6.111
REMARK INTER + INTRA:         -10.127
REMARK INTER:                  -8.890
REMARK INTRA:                  -1.238
REMARK UNBOUND:                -0.264
REMARK  Name = 
REMARK  8 active torsions:
REMARK  status: ('A' for Active; 'I' for Inactive)
REMARK    1  A    between atoms: C_1  and  O_2
REMARK    2  A    between atoms: O_2  and  C_3
REMARK    3  A    between atoms: C_8  and  N_9
REMARK    4  A    between atoms: N_9  and  C_10
REMARK    5  A    between atoms: C_10  and  C_11
REMARK    6  A    between atoms: C_14  and  C_15
REMARK    7  A    between atoms: C_15  and  N_16
REMARK    8  A    between atoms: C_17  and  C_19
REMARK                            x       y       z     vdW  Elec       q    Type
REMARK                         _______ _______ _______ _____ _____    ______ ____
ROOT
ATOM      1  C   UNL     1      46.184   7.088  12.098  0.00  0.00    +0.000 A 
ATOM      2  C   UNL     1      47.445   6.784  11.569  0.00  0.00    +0.000 A 
ATOM      3  C   UNL     1      48.468   7.736  11.571  0.00  0.00    +0.000 A 
ATOM      4  C   UNL     1      48.259   9.004  12.126  0.00  0.00    +0.000 A 
ATOM      5  C   UNL     1      46.989   9.317  12.637  0.00  0.00    +0.000 A 
ATOM      6  C   UNL     1      45.966   8.362  12.639  0.00  0.00    +0.000 A 
ENDROOT
BRANCH   1   7
ATOM      7  C   UNL     1      45.072   6.066  12.028  0.00  0.00    +0.000 C 
BRANCH   7   8
ATOM      8  N   UNL     1      44.554   5.934  10.674  0.00  0.00    +0.000 N 
ATOM      9  H   UNL     1      44.676   6.779  10.122  0.00  0.00    +0.000 HD
BRANCH   8  15
ATOM     10  C   UNL     1      44.180   3.518  10.053  0.00  0.00    +0.000 A 
ATOM     11  C   UNL     1      44.547   2.443   9.227  0.00  0.00    +0.000 A 
ATOM     12  C   UNL     1      45.502   2.602   8.226  0.00  0.00    +0.000 A 
ATOM     13  C   UNL     1      46.090   3.842   8.030  0.00  0.00    +0.000 A 
ATOM     14  C   UNL     1      45.758   4.910   8.869  0.00  0.00    +0.000 A 
ATOM     15  C   UNL     1      44.834   4.770   9.926  0.00  0.00    +0.000 A 
BRANCH  10  17
ATOM     16  C   UNL     1      43.492   2.611  12.163  0.00  0.00    +0.000 C 
ATOM     17  O   UNL     1      43.208   3.396  11.016  0.00  0.00    +0.000 OA
ENDBRANCH  10  17
ENDBRANCH   8  15
ENDBRANCH   7   8
ENDBRANCH   1   7
BRANCH   4  18
ATOM     18  C   UNL     1      49.378  10.012  12.182  0.00  0.00    +0.000 C 
BRANCH  18  19
ATOM     19  N   UNL     1      50.673   9.382  12.262  0.00  0.00    +0.000 N 
ATOM     20  C   UNL     1      51.783   9.977  11.712  0.00  0.00    +0.000 C 
ATOM     21  O   UNL     1      51.750  11.094  11.208  0.00  0.00    +0.000 OA
ATOM     22  H   UNL     1      50.686   8.393  12.474  0.00  0.00    +0.000 HD
BRANCH  20  23
ATOM     23  C   UNL     1      53.039   9.224  11.839  0.00  0.00    +0.000 A 
ATOM     24  C   UNL     1      54.101   9.758  12.559  0.00  0.00    +0.000 A 
ATOM     25  S   UNL     1      55.466   8.734  12.614  0.00  0.00    +0.000 S 
ATOM     26  C   UNL     1      54.701   7.566  11.641  0.00  0.00    +0.000 A 
ATOM     27  N   UNL     1      55.345   6.424  11.275  0.00  0.00    +0.000 NA
ATOM     28  C   UNL     1      54.652   5.642  10.514  0.00  0.00    +0.000 A 
ATOM     29  N   UNL     1      53.376   5.894  10.089  0.00  0.00    +0.000 N 
ATOM     30  C   UNL     1      52.675   7.015  10.456  0.00  0.00    +0.000 A 
ATOM     31  O   UNL     1      51.512   7.185  10.106  0.00  0.00    +0.000 OA
ATOM     32  C   UNL     1      53.416   7.942  11.298  0.00  0.00    +0.000 A 
ATOM     33  H   UNL     1      52.877   5.231   9.513  0.00  0.00    +0.000 HD
ENDBRANCH  20  23
ENDBRANCH  18  19
ENDBRANCH   4  18
TORSDOF 7
ENDMDL
