MODEL 1
REMARK VINA RESULT:    -7.904      0.000      0.000
REMARK INTER + INTRA:         -14.741
REMARK INTER:                 -12.756
REMARK INTRA:                  -1.985
REMARK UNBOUND:                -1.985
REMARK  Name = 
REMARK  11 active torsions:
REMARK  status: ('A' for Active; 'I' for Inactive)
REMARK    1  A    between atoms: N_1  and  C_2
REMARK    2  A    between atoms: C_2  and  C_3
REMARK    3  A    between atoms: C_3  and  C_4
REMARK    4  A    between atoms: C_4  and  C_5
REMARK    5  A    between atoms: C_5  and  N_6
REMARK    6  A    between atoms: C_5  and  C_28
REMARK    7  A    between atoms: N_6  and  C_7
REMARK    8  A    between atoms: C_7  and  C_8
REMARK    9  A    between atoms: C_11  and  C_12
REMARK   10  A    between atoms: C_12  and  N_13
REMARK   11  A    between atoms: C_14  and  C_16
REMARK                            x       y       z     vdW  Elec       q    Type
REMARK                         _______ _______ _______ _____ _____    ______ ____
ROOT
ATOM      1  C   UNL     1      45.285   6.613  11.145  0.00  0.00    +0.000 A 
ATOM      2  C   UNL     1      46.634   6.261  11.291  0.00  0.00    +0.000 A 
ATOM      3  C   UNL     1      47.439   6.912  12.234  0.00  0.00    +0.000 A 
ATOM      4  C   UNL     1      46.910   7.931  13.038  0.00  0.00    +0.000 A 
ATOM      5  C   UNL     1      45.582   8.326  12.844  0.00  0.00    +0.000 A 
ATOM      6  C   UNL     1      44.779   7.670  11.913  0.00  0.00    +0.000 A 
ENDROOT
BRANCH   1   7
ATOM      7  C   UNL     1      44.365   5.892  10.185  0.00  0.00    +0.000 C 
BRANCH   7   8
ATOM      8  N   UNL     1      45.114   5.113   9.195  0.00  0.00    +0.000 NA
ATOM      9  H   UNL     1      44.924   5.475   8.266  0.00  0.00    +0.000 HD
BRANCH   8  10
ATOM     10  C   UNL     1      44.810   3.666   9.243  0.00  0.00    +0.000 C 
BRANCH  10  11
ATOM     11  C   UNL     1      45.683   2.857   8.273  0.00  0.00    +0.000 A 
ATOM     12  C   UNL     1      46.262   3.475   7.166  0.00  0.00    +0.000 A 
ATOM     13  C   UNL     1      47.089   2.726   6.334  0.00  0.00    +0.000 A 
ATOM     14  C   UNL     1      47.328   1.388   6.630  0.00  0.00    +0.000 A 
ATOM     15  C   UNL     1      46.733   0.853   7.758  0.00  0.00    +0.000 A 
ATOM     16  N   UNL     1      45.929   1.554   8.581  0.00  0.00    +0.000 NA
ENDBRANCH  10  11
BRANCH  10  17
ATOM     17  C   UNL     1      44.858   3.028  10.654  0.00  0.00    +0.000 C 
BRANCH  17  18
ATOM     18  C   UNL     1      43.524   2.898  11.400  0.00  0.00    +0.000 C 
BRANCH  18  19
ATOM     19  C   UNL     1      43.513   3.517  12.795  0.00  0.00    +0.000 C 
BRANCH  19  20
ATOM     20  N   UNL     1      44.874   3.761  13.255  0.00  0.00    +0.000 NA
ATOM     21  H   UNL     1      44.969   3.486  14.231  0.00  0.00    +0.000 HD
ATOM     22  H   UNL     1      45.074   4.760  13.217  0.00  0.00    +0.000 HD
ENDBRANCH  19  20
ENDBRANCH  18  19
ENDBRANCH  17  18
ENDBRANCH  10  17
ENDBRANCH   8  10
ENDBRANCH   7   8
ENDBRANCH   1   7
BRANCH   4  23
ATOM     23  C   UNL     1      47.748   8.634  14.072  0.00  0.00    +0.000 C 
BRANCH  23  24
ATOM     24  N   UNL     1      48.030   7.751  15.169  0.00  0.00    +0.000 N 
ATOM     25  C   UNL     1      49.240   7.122  15.297  0.00  0.00    +0.000 C 
ATOM     26  O   UNL     1      50.162   7.298  14.507  0.00  0.00    +0.000 OA
ATOM     27  H   UNL     1      47.229   7.381  15.669  0.00  0.00    +0.000 HD
BRANCH  25  28
ATOM     28  C   UNL     1      49.390   6.276  16.486  0.00  0.00    +0.000 A 
ATOM     29  C   UNL     1      50.348   6.591  17.440  0.00  0.00    +0.000 A 
ATOM     30  S   UNL     1      50.343   5.538  18.781  0.00  0.00    +0.000 S 
ATOM     31  C   UNL     1      49.094   4.595  18.107  0.00  0.00    +0.000 A 
ATOM     32  N   UNL     1      48.621   3.496  18.751  0.00  0.00    +0.000 NA
ATOM     33  C   UNL     1      47.689   2.865  18.117  0.00  0.00    +0.000 A 
ATOM     34  N   UNL     1      47.184   3.237  16.897  0.00  0.00    +0.000 N 
ATOM     35  C   UNL     1      47.616   4.349  16.223  0.00  0.00    +0.000 A 
ATOM     36  O   UNL     1      47.113   4.676  15.149  0.00  0.00    +0.000 OA
ATOM     37  C   UNL     1      48.671   5.090  16.888  0.00  0.00    +0.000 A 
ATOM     38  H   UNL     1      46.446   2.707  16.461  0.00  0.00    +0.000 HD
ENDBRANCH  25  28
ENDBRANCH  23  24
ENDBRANCH   4  23
TORSDOF 11
ENDMDL
MODEL 2
REMARK VINA RESULT:    -7.296      1.350      1.774
REMARK INTER + INTRA:         -13.759
REMARK INTER:                 -12.204
REMARK INTRA:                  -1.555
REMARK UNBOUND:                -1.985
REMARK  Name = 
REMARK  11 active torsions:
REMARK  status: ('A' for Active; 'I' for Inactive)
REMARK    1  A    between atoms: N_1  and  C_2
REMARK    2  A    between atoms: C_2  and  C_3
REMARK    3  A    between atoms: C_3  and  C_4
REMARK    4  A    between atoms: C_4  and  C_5
REMARK    5  A    between atoms: C_5  and  N_6
REMARK    6  A    between atoms: C_5  and  C_28
REMARK    7  A    between atoms: N_6  and  C_7
REMARK    8  A    between atoms: C_7  and  C_8
REMARK    9  A    between atoms: C_11  and  C_12
REMARK   10  A    between atoms: C_12  and  N_13
REMARK   11  A    between atoms: C_14  and  C_16
REMARK                            x       y       z     vdW  Elec       q    Type
REMARK                         _______ _______ _______ _____ _____    ______ ____
ROOT
ATOM      1  C   UNL     1      45.752   7.042  11.699  0.00  0.00    +0.000 A 
ATOM      2  C   UNL     1      45.506   8.126  12.553  0.00  0.00    +0.000 A 
ATOM      3  C   UNL     1      46.537   8.660  13.336  0.00  0.00    +0.000 A 
ATOM      4  C   UNL     1      47.827   8.112  13.284  0.00  0.00    +0.000 A 
ATOM      5  C   UNL     1      48.052   6.988  12.482  0.00  0.00    +0.000 A 
ATOM      6  C   UNL     1      47.029   6.464  11.695  0.00  0.00    +0.000 A 
ENDROOT
BRANCH   1   7
ATOM      7  C   UNL     1      44.683   6.476  10.790  0.00  0.00    +0.000 C 
BRANCH   7   8
ATOM      8  N   UNL     1      45.261   5.709   9.683  0.00  0.00    +0.000 NA
ATOM      9  H   UNL     1      45.057   6.176   8.805  0.00  0.00    +0.000 HD
BRANCH   8  10
ATOM     10  C   UNL     1      44.779   4.310   9.632  0.00  0.00    +0.000 C 
BRANCH  10  11
ATOM     11  C   UNL     1      45.588   3.454   8.647  0.00  0.00    +0.000 A 
ATOM     12  C   UNL     1      45.693   2.077   8.834  0.00  0.00    +0.000 A 
ATOM     13  C   UNL     1      46.392   1.323   7.895  0.00  0.00    +0.000 A 
ATOM     14  C   UNL     1      46.957   1.954   6.793  0.00  0.00    +0.000 A 
ATOM     15  C   UNL     1      46.791   3.322   6.667  0.00  0.00    +0.000 A 
ATOM     16  N   UNL     1      46.120   4.077   7.558  0.00  0.00    +0.000 NA
ENDBRANCH  10  11
BRANCH  10  17
ATOM     17  C   UNL     1      44.687   3.594  11.003  0.00  0.00    +0.000 C 
BRANCH  17  18
ATOM     18  C   UNL     1      43.325   3.620  11.706  0.00  0.00    +0.000 C 
BRANCH  18  19
ATOM     19  C   UNL     1      43.371   4.069  13.165  0.00  0.00    +0.000 C 
BRANCH  19  20
ATOM     20  N   UNL     1      42.664   5.332  13.332  0.00  0.00    +0.000 NA
ATOM     21  H   UNL     1      42.451   5.486  14.315  0.00  0.00    +0.000 HD
ATOM     22  H   UNL     1      41.768   5.289  12.846  0.00  0.00    +0.000 HD
ENDBRANCH  19  20
ENDBRANCH  18  19
ENDBRANCH  17  18
ENDBRANCH  10  17
ENDBRANCH   8  10
ENDBRANCH   7   8
ENDBRANCH   1   7
BRANCH   4  23
ATOM     23  C   UNL     1      48.957   8.678  14.101  0.00  0.00    +0.000 C 
BRANCH  23  24
ATOM     24  N   UNL     1      49.145   7.902  15.295  0.00  0.00    +0.000 N 
ATOM     25  C   UNL     1      48.573   8.262  16.487  0.00  0.00    +0.000 C 
ATOM     26  O   UNL     1      47.845   9.243  16.601  0.00  0.00    +0.000 OA
ATOM     27  H   UNL     1      49.933   7.265  15.301  0.00  0.00    +0.000 HD
BRANCH  25  28
ATOM     28  C   UNL     1      48.829   7.354  17.610  0.00  0.00    +0.000 A 
ATOM     29  C   UNL     1      49.249   7.866  18.829  0.00  0.00    +0.000 A 
ATOM     30  S   UNL     1      49.440   6.676  20.036  0.00  0.00    +0.000 S 
ATOM     31  C   UNL     1      49.017   5.430  18.954  0.00  0.00    +0.000 A 
ATOM     32  N   UNL     1      49.006   4.131  19.352  0.00  0.00    +0.000 NA
ATOM     33  C   UNL     1      48.686   3.290  18.425  0.00  0.00    +0.000 A 
ATOM     34  N   UNL     1      48.372   3.633  17.134  0.00  0.00    +0.000 N 
ATOM     35  C   UNL     1      48.350   4.932  16.695  0.00  0.00    +0.000 A 
ATOM     36  O   UNL     1      48.025   5.207  15.541  0.00  0.00    +0.000 OA
ATOM     37  C   UNL     1      48.712   5.917  17.697  0.00  0.00    +0.000 A 
ATOM     38  H   UNL     1      48.118   2.928  16.460  0.00  0.00    +0.000 HD
ENDBRANCH  25  28
ENDBRANCH  23  24
ENDBRANCH   4  23
TORSDOF 11
ENDMDL
MODEL 3
REMARK VINA RESULT:    -6.637      3.284      8.196
REMARK INTER + INTRA:         -12.696
REMARK INTER:                 -11.108
REMARK INTRA:                  -1.588
REMARK UNBOUND:                -1.985
REMARK  Name = 
REMARK  11 active torsions:
REMARK  status: ('A' for Active; 'I' for Inactive)
REMARK    1  A    between atoms: N_1  and  C_2
REMARK    2  A    between atoms: C_2  and  C_3
REMARK    3  A    between atoms: C_3  and  C_4
REMARK    4  A    between atoms: C_4  and  C_5
REMARK    5  A    between atoms: C_5  and  N_6
REMARK    6  A    between atoms: C_5  and  C_28
REMARK    7  A    between atoms: N_6  and  C_7
REMARK    8  A    between atoms: C_7  and  C_8
REMARK    9  A    between atoms: C_11  and  C_12
REMARK   10  A    between atoms: C_12  and  N_13
REMARK   11  A    between atoms: C_14  and  C_16
REMARK                            x       y       z     vdW  Elec       q    Type
REMARK                         _______ _______ _______ _____ _____    ______ ____
ROOT
ATOM      1  C   UNL     1      50.015   7.090  15.726  0.00  0.00    +0.000 A 
ATOM      2  C   UNL     1      48.700   6.711  15.423  0.00  0.00    +0.000 A 
ATOM      3  C   UNL     1      48.140   7.027  14.179  0.00  0.00    +0.000 A 
ATOM      4  C   UNL     1      48.882   7.735  13.224  0.00  0.00    +0.000 A 
ATOM      5  C   UNL     1      50.170   8.170  13.554  0.00  0.00    +0.000 A 
ATOM      6  C   UNL     1      50.731   7.846  14.788  0.00  0.00    +0.000 A 
ENDROOT
BRANCH   1   7
ATOM      7  C   UNL     1      50.680   6.713  17.031  0.00  0.00    +0.000 C 
BRANCH   7   8
ATOM      8  N   UNL     1      51.414   5.450  16.923  0.00  0.00    +0.000 NA
ATOM      9  H   UNL     1      51.677   5.293  15.955  0.00  0.00    +0.000 HD
BRANCH   8  10
ATOM     10  C   UNL     1      50.651   4.288  17.430  0.00  0.00    +0.000 C 
BRANCH  10  11
ATOM     11  C   UNL     1      51.555   3.081  17.720  0.00  0.00    +0.000 A 
ATOM     12  C   UNL     1      51.144   1.795  17.373  0.00  0.00    +0.000 A 
ATOM     13  C   UNL     1      52.009   0.729  17.604  0.00  0.00    +0.000 A 
ATOM     14  C   UNL     1      53.260   0.969  18.161  0.00  0.00    +0.000 A 
ATOM     15  C   UNL     1      53.601   2.276  18.459  0.00  0.00    +0.000 A 
ATOM     16  N   UNL     1      52.787   3.327  18.246  0.00  0.00    +0.000 NA
ENDBRANCH  10  11
BRANCH  10  17
ATOM     17  C   UNL     1      49.747   4.577  18.655  0.00  0.00    +0.000 C 
BRANCH  17  18
ATOM     18  C   UNL     1      48.232   4.529  18.422  0.00  0.00    +0.000 C 
BRANCH  18  19
ATOM     19  C   UNL     1      47.791   3.599  17.295  0.00  0.00    +0.000 C 
BRANCH  19  20
ATOM     20  N   UNL     1      46.663   2.781  17.721  0.00  0.00    +0.000 NA
ATOM     21  H   UNL     1      46.640   1.912  17.190  0.00  0.00    +0.000 HD
ATOM     22  H   UNL     1      45.791   3.267  17.515  0.00  0.00    +0.000 HD
ENDBRANCH  19  20
ENDBRANCH  18  19
ENDBRANCH  17  18
ENDBRANCH  10  17
ENDBRANCH   8  10
ENDBRANCH   7   8
ENDBRANCH   1   7
BRANCH   4  23
ATOM     23  C   UNL     1      48.310   8.072  11.873  0.00  0.00    +0.000 C 
BRANCH  23  24
ATOM     24  N   UNL     1      47.578   6.952  11.350  0.00  0.00    +0.000 N 
ATOM     25  C   UNL     1      46.209   6.942  11.305  0.00  0.00    +0.000 C 
ATOM     26  O   UNL     1      45.529   7.893  11.675  0.00  0.00    +0.000 OA
ATOM     27  H   UNL     1      48.078   6.072  11.292  0.00  0.00    +0.000 HD
BRANCH  25  28
ATOM     28  C   UNL     1      45.605   5.742  10.713  0.00  0.00    +0.000 A 
ATOM     29  C   UNL     1      45.769   5.484   9.360  0.00  0.00    +0.000 A 
ATOM     30  S   UNL     1      45.053   4.021   8.856  0.00  0.00    +0.000 S 
ATOM     31  C   UNL     1      44.455   3.710  10.421  0.00  0.00    +0.000 A 
ATOM     32  N   UNL     1      43.714   2.600  10.679  0.00  0.00    +0.000 NA
ATOM     33  C   UNL     1      43.310   2.500  11.902  0.00  0.00    +0.000 A 
ATOM     34  N   UNL     1      43.585   3.410  12.893  0.00  0.00    +0.000 N 
ATOM     35  C   UNL     1      44.345   4.530  12.681  0.00  0.00    +0.000 A 
ATOM     36  O   UNL     1      44.605   5.304  13.601  0.00  0.00    +0.000 OA
ATOM     37  C   UNL     1      44.817   4.696  11.319  0.00  0.00    +0.000 A 
ATOM     38  H   UNL     1      43.249   3.266  13.832  0.00  0.00    +0.000 HD
ENDBRANCH  25  28
ENDBRANCH  23  24
ENDBRANCH   4  23
TORSDOF 11
ENDMDL
MODEL 4
REMARK VINA RESULT:    -6.625      2.916      8.094
REMARK INTER + INTRA:         -12.677
REMARK INTER:                 -10.767
REMARK INTRA:                  -1.909
REMARK UNBOUND:                -1.985
REMARK  Name = 
REMARK  11 active torsions:
REMARK  status: ('A' for Active; 'I' for Inactive)
REMARK    1  A    between atoms: N_1  and  C_2
REMARK    2  A    between atoms: C_2  and  C_3
REMARK    3  A    between atoms: C_3  and  C_4
REMARK    4  A    between atoms: C_4  and  C_5
REMARK    5  A    between atoms: C_5  and  N_6
REMARK    6  A    between atoms: C_5  and  C_28
REMARK    7  A    between atoms: N_6  and  C_7
REMARK    8  A    between atoms: C_7  and  C_8
REMARK    9  A    between atoms: C_11  and  C_12
REMARK   10  A    between atoms: C_12  and  N_13
REMARK   11  A    between atoms: C_14  and  C_16
REMARK                            x       y       z     vdW  Elec       q    Type
REMARK                         _______ _______ _______ _____ _____    ______ ____
ROOT
ATOM      1  C   UNL     1      49.861   8.263  15.268  0.00  0.00    +0.000 A 
ATOM      2  C   UNL     1      48.655   8.977  15.306  0.00  0.00    +0.000 A 
ATOM      3  C   UNL     1      47.792   8.970  14.203  0.00  0.00    +0.000 A 
ATOM      4  C   UNL     1      48.127   8.259  13.042  0.00  0.00    +0.000 A 
ATOM      5  C   UNL     1      49.362   7.604  12.983  0.00  0.00    +0.000 A 
ATOM      6  C   UNL     1      50.215   7.602  14.085  0.00  0.00    +0.000 A 
ENDROOT
BRANCH   1   7
ATOM      7  C   UNL     1      50.790   8.191  16.460  0.00  0.00    +0.000 C 
BRANCH   7   8
ATOM      8  N   UNL     1      50.953   6.816  16.940  0.00  0.00    +0.000 NA
ATOM      9  H   UNL     1      51.263   6.226  16.176  0.00  0.00    +0.000 HD
BRANCH   8  10
ATOM     10  C   UNL     1      49.720   6.259  17.538  0.00  0.00    +0.000 C 
BRANCH  10  11
ATOM     11  C   UNL     1      49.541   4.769  17.215  0.00  0.00    +0.000 A 
ATOM     12  C   UNL     1      50.508   3.844  17.604  0.00  0.00    +0.000 A 
ATOM     13  C   UNL     1      50.292   2.494  17.339  0.00  0.00    +0.000 A 
ATOM     14  C   UNL     1      49.118   2.099  16.707  0.00  0.00    +0.000 A 
ATOM     15  C   UNL     1      48.198   3.076  16.370  0.00  0.00    +0.000 A 
ATOM     16  N   UNL     1      48.379   4.388  16.614  0.00  0.00    +0.000 NA
ENDBRANCH  10  11
BRANCH  10  17
ATOM     17  C   UNL     1      49.563   6.491  19.063  0.00  0.00    +0.000 C 
BRANCH  17  18
ATOM     18  C   UNL     1      48.200   6.999  19.547  0.00  0.00    +0.000 C 
BRANCH  18  19
ATOM     19  C   UNL     1      47.221   5.902  19.955  0.00  0.00    +0.000 C 
BRANCH  19  20
ATOM     20  N   UNL     1      46.417   5.486  18.812  0.00  0.00    +0.000 NA
ATOM     21  H   UNL     1      46.882   5.745  17.944  0.00  0.00    +0.000 HD
ATOM     22  H   UNL     1      45.527   5.984  18.821  0.00  0.00    +0.000 HD
ENDBRANCH  19  20
ENDBRANCH  18  19
ENDBRANCH  17  18
ENDBRANCH  10  17
ENDBRANCH   8  10
ENDBRANCH   7   8
ENDBRANCH   1   7
BRANCH   4  23
ATOM     23  C   UNL     1      47.210   8.221  11.850  0.00  0.00    +0.000 C 
BRANCH  23  24
ATOM     24  N   UNL     1      46.569   6.939  11.755  0.00  0.00    +0.000 N 
ATOM     25  C   UNL     1      45.218   6.819  11.563  0.00  0.00    +0.000 C 
ATOM     26  O   UNL     1      44.482   7.791  11.428  0.00  0.00    +0.000 OA
ATOM     27  H   UNL     1      47.085   6.147  12.124  0.00  0.00    +0.000 HD
BRANCH  25  28
ATOM     28  C   UNL     1      44.715   5.446  11.454  0.00  0.00    +0.000 A 
ATOM     29  C   UNL     1      43.972   4.900  12.492  0.00  0.00    +0.000 A 
ATOM     30  S   UNL     1      43.419   3.319  12.172  0.00  0.00    +0.000 S 
ATOM     31  C   UNL     1      44.198   3.292  10.657  0.00  0.00    +0.000 A 
ATOM     32  N   UNL     1      44.141   2.193   9.860  0.00  0.00    +0.000 NA
ATOM     33  C   UNL     1      44.791   2.304   8.750  0.00  0.00    +0.000 A 
ATOM     34  N   UNL     1      45.492   3.419   8.362  0.00  0.00    +0.000 N 
ATOM     35  C   UNL     1      45.557   4.556   9.124  0.00  0.00    +0.000 A 
ATOM     36  O   UNL     1      46.161   5.552   8.729  0.00  0.00    +0.000 OA
ATOM     37  C   UNL     1      44.850   4.480  10.389  0.00  0.00    +0.000 A 
ATOM     38  H   UNL     1      45.969   3.445   7.475  0.00  0.00    +0.000 HD
ENDBRANCH  25  28
ENDBRANCH  23  24
ENDBRANCH   4  23
TORSDOF 11
ENDMDL
MODEL 5
REMARK VINA RESULT:    -6.542      3.360      8.094
REMARK INTER + INTRA:         -12.543
REMARK INTER:                  -9.791
REMARK INTRA:                  -2.753
REMARK UNBOUND:                -1.985
REMARK  Name = 
REMARK  11 active torsions:
REMARK  status: ('A' for Active; 'I' for Inactive)
REMARK    1  A    between atoms: N_1  and  C_2
REMARK    2  A    between atoms: C_2  and  C_3
REMARK    3  A    between atoms: C_3  and  C_4
REMARK    4  A    between atoms: C_4  and  C_5
REMARK    5  A    between atoms: C_5  and  N_6
REMARK    6  A    between atoms: C_5  and  C_28
REMARK    7  A    between atoms: N_6  and  C_7
REMARK    8  A    between atoms: C_7  and  C_8
REMARK    9  A    between atoms: C_11  and  C_12
REMARK   10  A    between atoms: C_12  and  N_13
REMARK   11  A    between atoms: C_14  and  C_16
REMARK                            x       y       z     vdW  Elec       q    Type
REMARK                         _______ _______ _______ _____ _____    ______ ____
ROOT
ATOM      1  C   UNL     1      51.049   7.036  17.220  0.00  0.00    +0.000 A 
ATOM      2  C   UNL     1      50.084   7.825  17.863  0.00  0.00    +0.000 A 
ATOM      3  C   UNL     1      49.144   8.545  17.115  0.00  0.00    +0.000 A 
ATOM      4  C   UNL     1      49.161   8.496  15.714  0.00  0.00    +0.000 A 
ATOM      5  C   UNL     1      50.167   7.762  15.075  0.00  0.00    +0.000 A 
ATOM      6  C   UNL     1      51.095   7.037  15.820  0.00  0.00    +0.000 A 
ENDROOT
BRANCH   1   7
ATOM      7  C   UNL     1      52.040   6.192  17.991  0.00  0.00    +0.000 C 
BRANCH   7   8
ATOM      8  N   UNL     1      51.389   5.421  19.053  0.00  0.00    +0.000 NA
ATOM      9  H   UNL     1      51.967   5.439  19.886  0.00  0.00    +0.000 HD
BRANCH   8  10
ATOM     10  C   UNL     1      51.107   4.021  18.666  0.00  0.00    +0.000 C 
BRANCH  10  11
ATOM     11  C   UNL     1      49.687   3.848  18.108  0.00  0.00    +0.000 A 
ATOM     12  C   UNL     1      48.641   4.631  18.592  0.00  0.00    +0.000 A 
ATOM     13  C   UNL     1      47.376   4.485  18.029  0.00  0.00    +0.000 A 
ATOM     14  C   UNL     1      47.187   3.574  16.996  0.00  0.00    +0.000 A 
ATOM     15  C   UNL     1      48.280   2.848  16.558  0.00  0.00    +0.000 A 
ATOM     16  N   UNL     1      49.515   2.969  17.082  0.00  0.00    +0.000 NA
ENDBRANCH  10  11
BRANCH  10  17
ATOM     17  C   UNL     1      52.137   3.385  17.698  0.00  0.00    +0.000 C 
BRANCH  17  18
ATOM     18  C   UNL     1      53.113   2.367  18.300  0.00  0.00    +0.000 C 
BRANCH  18  19
ATOM     19  C   UNL     1      52.900   0.929  17.835  0.00  0.00    +0.000 C 
BRANCH  19  20
ATOM     20  N   UNL     1      51.487   0.576  17.904  0.00  0.00    +0.000 NA
ATOM     21  H   UNL     1      51.081   0.926  18.769  0.00  0.00    +0.000 HD
ATOM     22  H   UNL     1      51.390  -0.439  17.929  0.00  0.00    +0.000 HD
ENDBRANCH  19  20
ENDBRANCH  18  19
ENDBRANCH  17  18
ENDBRANCH  10  17
ENDBRANCH   8  10
ENDBRANCH   7   8
ENDBRANCH   1   7
BRANCH   4  23
ATOM     23  C   UNL     1      48.152   9.246  14.887  0.00  0.00    +0.000 C 
BRANCH  23  24
ATOM     24  N   UNL     1      47.205   8.334  14.311  0.00  0.00    +0.000 N 
ATOM     25  C   UNL     1      47.037   8.228  12.955  0.00  0.00    +0.000 C 
ATOM     26  O   UNL     1      47.702   8.878  12.155  0.00  0.00    +0.000 OA
ATOM     27  H   UNL     1      46.472   7.995  14.924  0.00  0.00    +0.000 HD
BRANCH  25  28
ATOM     28  C   UNL     1      46.055   7.230  12.516  0.00  0.00    +0.000 A 
ATOM     29  C   UNL     1      44.944   7.630  11.786  0.00  0.00    +0.000 A 
ATOM     30  S   UNL     1      43.944   6.334  11.309  0.00  0.00    +0.000 S 
ATOM     31  C   UNL     1      44.935   5.201  12.106  0.00  0.00    +0.000 A 
ATOM     32  N   UNL     1      44.623   3.878  12.109  0.00  0.00    +0.000 NA
ATOM     33  C   UNL     1      45.451   3.136  12.767  0.00  0.00    +0.000 A 
ATOM     34  N   UNL     1      46.566   3.597  13.421  0.00  0.00    +0.000 N 
ATOM     35  C   UNL     1      46.929   4.919  13.425  0.00  0.00    +0.000 A 
ATOM     36  O   UNL     1      47.956   5.294  13.988  0.00  0.00    +0.000 OA
ATOM     37  C   UNL     1      46.026   5.799  12.708  0.00  0.00    +0.000 A 
ATOM     38  H   UNL     1      47.179   2.962  13.907  0.00  0.00    +0.000 HD
ENDBRANCH  25  28
ENDBRANCH  23  24
ENDBRANCH   4  23
TORSDOF 11
ENDMDL
MODEL 6
REMARK VINA RESULT:    -6.498      3.146      5.552
REMARK INTER + INTRA:         -12.472
REMARK INTER:                 -10.910
REMARK INTRA:                  -1.562
REMARK UNBOUND:                -1.985
REMARK  Name = 
REMARK  11 active torsions:
REMARK  status: ('A' for Active; 'I' for Inactive)
REMARK    1  A    between atoms: N_1  and  C_2
REMARK    2  A    between atoms: C_2  and  C_3
REMARK    3  A    between atoms: C_3  and  C_4
REMARK    4  A    between atoms: C_4  and  C_5
REMARK    5  A    between atoms: C_5  and  N_6
REMARK    6  A    between atoms: C_5  and  C_28
REMARK    7  A    between atoms: N_6  and  C_7
REMARK    8  A    between atoms: C_7  and  C_8
REMARK    9  A    between atoms: C_11  and  C_12
REMARK   10  A    between atoms: C_12  and  N_13
REMARK   11  A    between atoms: C_14  and  C_16
REMARK                            x       y       z     vdW  Elec       q    Type
REMARK                         _______ _______ _______ _____ _____    ______ ____
ROOT
ATOM      1  C   UNL     1      47.807   6.230  14.490  0.00  0.00    +0.000 A 
ATOM      2  C   UNL     1      48.527   6.478  15.668  0.00  0.00    +0.000 A 
ATOM      3  C   UNL     1      48.594   5.507  16.675  0.00  0.00    +0.000 A 
ATOM      4  C   UNL     1      47.935   4.279  16.525  0.00  0.00    +0.000 A 
ATOM      5  C   UNL     1      47.162   4.062  15.379  0.00  0.00    +0.000 A 
ATOM      6  C   UNL     1      47.105   5.023  14.372  0.00  0.00    +0.000 A 
ENDROOT
BRANCH   1   7
ATOM      7  C   UNL     1      47.762   7.224  13.351  0.00  0.00    +0.000 C 
BRANCH   7   8
ATOM      8  N   UNL     1      47.295   6.606  12.107  0.00  0.00    +0.000 NA
ATOM      9  H   UNL     1      47.969   6.781  11.369  0.00  0.00    +0.000 HD
BRANCH   8  10
ATOM     10  C   UNL     1      45.957   7.080  11.689  0.00  0.00    +0.000 C 
BRANCH  10  11
ATOM     11  C   UNL     1      44.950   5.929  11.557  0.00  0.00    +0.000 A 
ATOM     12  C   UNL     1      45.078   4.996  10.530  0.00  0.00    +0.000 A 
ATOM     13  C   UNL     1      44.177   3.936  10.468  0.00  0.00    +0.000 A 
ATOM     14  C   UNL     1      43.182   3.826  11.433  0.00  0.00    +0.000 A 
ATOM     15  C   UNL     1      43.133   4.782  12.432  0.00  0.00    +0.000 A 
ATOM     16  N   UNL     1      43.991   5.816  12.518  0.00  0.00    +0.000 NA
ENDBRANCH  10  11
BRANCH  10  17
ATOM     17  C   UNL     1      45.357   8.211  12.561  0.00  0.00    +0.000 C 
BRANCH  17  18
ATOM     18  C   UNL     1      45.149   9.570  11.882  0.00  0.00    +0.000 C 
BRANCH  18  19
ATOM     19  C   UNL     1      44.109   9.570  10.764  0.00  0.00    +0.000 C 
BRANCH  19  20
ATOM     20  N   UNL     1      43.011   8.669  11.090  0.00  0.00    +0.000 NA
ATOM     21  H   UNL     1      42.481   8.444  10.250  0.00  0.00    +0.000 HD
ATOM     22  H   UNL     1      42.361   9.137  11.723  0.00  0.00    +0.000 HD
ENDBRANCH  19  20
ENDBRANCH  18  19
ENDBRANCH  17  18
ENDBRANCH  10  17
ENDBRANCH   8  10
ENDBRANCH   7   8
ENDBRANCH   1   7
BRANCH   4  23
ATOM     23  C   UNL     1      48.006   3.213  17.585  0.00  0.00    +0.000 C 
BRANCH  23  24
ATOM     24  N   UNL     1      49.375   2.914  17.899  0.00  0.00    +0.000 N 
ATOM     25  C   UNL     1      50.155   2.147  17.073  0.00  0.00    +0.000 C 
ATOM     26  O   UNL     1      49.745   1.699  16.008  0.00  0.00    +0.000 OA
ATOM     27  H   UNL     1      49.654   3.033  18.866  0.00  0.00    +0.000 HD
BRANCH  25  28
ATOM     28  C   UNL     1      51.542   1.956  17.511  0.00  0.00    +0.000 A 
ATOM     29  C   UNL     1      52.030   0.673  17.715  0.00  0.00    +0.000 A 
ATOM     30  S   UNL     1      53.674   0.636  18.164  0.00  0.00    +0.000 S 
ATOM     31  C   UNL     1      53.775   2.337  18.152  0.00  0.00    +0.000 A 
ATOM     32  N   UNL     1      54.931   2.972  18.476  0.00  0.00    +0.000 NA
ATOM     33  C   UNL     1      54.860   4.261  18.443  0.00  0.00    +0.000 A 
ATOM     34  N   UNL     1      53.735   4.974  18.112  0.00  0.00    +0.000 N 
ATOM     35  C   UNL     1      52.554   4.374  17.758  0.00  0.00    +0.000 A 
ATOM     36  O   UNL     1      51.576   5.042  17.428  0.00  0.00    +0.000 OA
ATOM     37  C   UNL     1      52.577   2.923  17.787  0.00  0.00    +0.000 A 
ATOM     38  H   UNL     1      53.749   5.981  18.094  0.00  0.00    +0.000 HD
ENDBRANCH  25  28
ENDBRANCH  23  24
ENDBRANCH   4  23
TORSDOF 11
ENDMDL
MODEL 7
REMARK VINA RESULT:    -6.269      2.827      4.140
REMARK INTER + INTRA:         -12.102
REMARK INTER:                 -10.892
REMARK INTRA:                  -1.210
REMARK UNBOUND:                -1.985
REMARK  Name = 
REMARK  11 active torsions:
REMARK  status: ('A' for Active; 'I' for Inactive)
REMARK    1  A    between atoms: N_1  and  C_2
REMARK    2  A    between atoms: C_2  and  C_3
REMARK    3  A    between atoms: C_3  and  C_4
REMARK    4  A    between atoms: C_4  and  C_5
REMARK    5  A    between atoms: C_5  and  N_6
REMARK    6  A    between atoms: C_5  and  C_28
REMARK    7  A    between atoms: N_6  and  C_7
REMARK    8  A    between atoms: C_7  and  C_8
REMARK    9  A    between atoms: C_11  and  C_12
REMARK   10  A    between atoms: C_12  and  N_13
REMARK   11  A    between atoms: C_14  and  C_16
REMARK                            x       y       z     vdW  Elec       q    Type
REMARK                         _______ _______ _______ _____ _____    ______ ____
ROOT
ATOM      1  C   UNL     1      46.896   4.724  13.983  0.00  0.00    +0.000 A 
ATOM      2  C   UNL     1      47.556   5.891  13.573  0.00  0.00    +0.000 A 
ATOM      3  C   UNL     1      48.421   6.560  14.446  0.00  0.00    +0.000 A 
ATOM      4  C   UNL     1      48.632   6.079  15.746  0.00  0.00    +0.000 A 
ATOM      5  C   UNL     1      47.920   4.953  16.175  0.00  0.00    +0.000 A 
ATOM      6  C   UNL     1      47.068   4.281  15.301  0.00  0.00    +0.000 A 
ENDROOT
BRANCH   1   7
ATOM      7  C   UNL     1      46.003   3.935  13.051  0.00  0.00    +0.000 C 
BRANCH   7   8
ATOM      8  N   UNL     1      44.749   4.639  12.772  0.00  0.00    +0.000 NA
ATOM      9  H   UNL     1      43.983   3.973  12.762  0.00  0.00    +0.000 HD
BRANCH   8  10
ATOM     10  C   UNL     1      44.776   5.394  11.499  0.00  0.00    +0.000 C 
BRANCH  10  11
ATOM     11  C   UNL     1      44.964   4.475  10.284  0.00  0.00    +0.000 A 
ATOM     12  C   UNL     1      44.369   3.215  10.256  0.00  0.00    +0.000 A 
ATOM     13  C   UNL     1      44.519   2.426   9.119  0.00  0.00    +0.000 A 
ATOM     14  C   UNL     1      45.244   2.914   8.037  0.00  0.00    +0.000 A 
ATOM     15  C   UNL     1      45.787   4.182   8.134  0.00  0.00    +0.000 A 
ATOM     16  N   UNL     1      45.658   4.968   9.221  0.00  0.00    +0.000 NA
ENDBRANCH  10  11
BRANCH  10  17
ATOM     17  C   UNL     1      43.568   6.336  11.267  0.00  0.00    +0.000 C 
BRANCH  17  18
ATOM     18  C   UNL     1      43.845   7.843  11.329  0.00  0.00    +0.000 C 
BRANCH  18  19
ATOM     19  C   UNL     1      45.217   8.214  11.886  0.00  0.00    +0.000 C 
BRANCH  19  20
ATOM     20  N   UNL     1      45.092   9.262  12.891  0.00  0.00    +0.000 NA
ATOM     21  H   UNL     1      45.319   8.893  13.812  0.00  0.00    +0.000 HD
ATOM     22  H   UNL     1      44.123   9.577  12.938  0.00  0.00    +0.000 HD
ENDBRANCH  19  20
ENDBRANCH  18  19
ENDBRANCH  17  18
ENDBRANCH  10  17
ENDBRANCH   8  10
ENDBRANCH   7   8
ENDBRANCH   1   7
BRANCH   4  23
ATOM     23  C   UNL     1      49.571   6.769  16.699  0.00  0.00    +0.000 C 
BRANCH  23  24
ATOM     24  N   UNL     1      50.610   5.868  17.113  0.00  0.00    +0.000 N 
ATOM     25  C   UNL     1      50.690   5.399  18.398  0.00  0.00    +0.000 C 
ATOM     26  O   UNL     1      49.867   5.691  19.259  0.00  0.00    +0.000 OA
ATOM     27  H   UNL     1      51.434   5.826  16.523  0.00  0.00    +0.000 HD
BRANCH  25  28
ATOM     28  C   UNL     1      51.787   4.462  18.662  0.00  0.00    +0.000 A 
ATOM     29  C   UNL     1      52.861   4.861  19.444  0.00  0.00    +0.000 A 
ATOM     30  S   UNL     1      54.012   3.629  19.696  0.00  0.00    +0.000 S 
ATOM     31  C   UNL     1      53.138   2.536  18.724  0.00  0.00    +0.000 A 
ATOM     32  N   UNL     1      53.597   1.276  18.500  0.00  0.00    +0.000 NA
ATOM     33  C   UNL     1      52.844   0.562  17.731  0.00  0.00    +0.000 A 
ATOM     34  N   UNL     1      51.670   0.994  17.166  0.00  0.00    +0.000 N 
ATOM     35  C   UNL     1      51.160   2.248  17.383  0.00  0.00    +0.000 A 
ATOM     36  O   UNL     1      50.084   2.590  16.894  0.00  0.00    +0.000 OA
ATOM     37  C   UNL     1      51.973   3.096  18.234  0.00  0.00    +0.000 A 
ATOM     38  H   UNL     1      51.122   0.382  16.583  0.00  0.00    +0.000 HD
ENDBRANCH  25  28
ENDBRANCH  23  24
ENDBRANCH   4  23
TORSDOF 11
ENDMDL
MODEL 8
REMARK VINA RESULT:    -6.214      2.981      5.320
REMARK INTER + INTRA:         -12.013
REMARK INTER:                 -10.253
REMARK INTRA:                  -1.760
REMARK UNBOUND:                -1.985
REMARK  Name = 
REMARK  11 active torsions:
REMARK  status: ('A' for Active; 'I' for Inactive)
REMARK    1  A    between atoms: N_1  and  C_2
REMARK    2  A    between atoms: C_2  and  C_3
REMARK    3  A    between atoms: C_3  and  C_4
REMARK    4  A    between atoms: C_4  and  C_5
REMARK    5  A    between atoms: C_5  and  N_6
REMARK    6  A    between atoms: C_5  and  C_28
REMARK    7  A    between atoms: N_6  and  C_7
REMARK    8  A    between atoms: C_7  and  C_8
REMARK    9  A    between atoms: C_11  and  C_12
REMARK   10  A    between atoms: C_12  and  N_13
REMARK   11  A    between atoms: C_14  and  C_16
REMARK                            x       y       z     vdW  Elec       q    Type
REMARK                         _______ _______ _______ _____ _____    ______ ____
ROOT
ATOM      1  C   UNL     1      47.152   5.149  14.343  0.00  0.00    +0.000 A 
ATOM      2  C   UNL     1      47.165   4.400  15.528  0.00  0.00    +0.000 A 
ATOM      3  C   UNL     1      47.958   4.801  16.611  0.00  0.00    +0.000 A 
ATOM      4  C   UNL     1      48.757   5.949  16.521  0.00  0.00    +0.000 A 
ATOM      5  C   UNL     1      48.793   6.656  15.315  0.00  0.00    +0.000 A 
ATOM      6  C   UNL     1      47.996   6.263  14.241  0.00  0.00    +0.000 A 
ENDROOT
BRANCH   1   7
ATOM      7  C   UNL     1      46.262   4.789  13.174  0.00  0.00    +0.000 C 
BRANCH   7   8
ATOM      8  N   UNL     1      45.066   5.633  13.120  0.00  0.00    +0.000 NA
ATOM      9  H   UNL     1      44.262   5.102  13.439  0.00  0.00    +0.000 HD
BRANCH   8  10
ATOM     10  C   UNL     1      44.802   6.183  11.771  0.00  0.00    +0.000 C 
BRANCH  10  11
ATOM     11  C   UNL     1      44.885   7.715  11.743  0.00  0.00    +0.000 A 
ATOM     12  C   UNL     1      45.933   8.375  12.382  0.00  0.00    +0.000 A 
ATOM     13  C   UNL     1      46.007   9.762  12.295  0.00  0.00    +0.000 A 
ATOM     14  C   UNL     1      45.046  10.455  11.568  0.00  0.00    +0.000 A 
ATOM     15  C   UNL     1      44.048   9.727  10.945  0.00  0.00    +0.000 A 
ATOM     16  N   UNL     1      43.952   8.385  11.011  0.00  0.00    +0.000 NA
ENDBRANCH  10  11
BRANCH  10  17
ATOM     17  C   UNL     1      45.670   5.585  10.635  0.00  0.00    +0.000 C 
BRANCH  17  18
ATOM     18  C   UNL     1      44.938   4.773   9.560  0.00  0.00    +0.000 C 
BRANCH  18  19
ATOM     19  C   UNL     1      44.116   3.604  10.097  0.00  0.00    +0.000 C 
BRANCH  19  20
ATOM     20  N   UNL     1      44.985   2.614  10.720  0.00  0.00    +0.000 NA
ATOM     21  H   UNL     1      44.533   1.702  10.723  0.00  0.00    +0.000 HD
ATOM     22  H   UNL     1      45.139   2.861  11.698  0.00  0.00    +0.000 HD
ENDBRANCH  19  20
ENDBRANCH  18  19
ENDBRANCH  17  18
ENDBRANCH  10  17
ENDBRANCH   8  10
ENDBRANCH   7   8
ENDBRANCH   1   7
BRANCH   4  23
ATOM     23  C   UNL     1      49.604   6.411  17.676  0.00  0.00    +0.000 C 
BRANCH  23  24
ATOM     24  N   UNL     1      50.562   5.400  18.027  0.00  0.00    +0.000 N 
ATOM     25  C   UNL     1      51.788   5.326  17.421  0.00  0.00    +0.000 C 
ATOM     26  O   UNL     1      52.155   6.132  16.572  0.00  0.00    +0.000 OA
ATOM     27  H   UNL     1      50.202   4.583  18.508  0.00  0.00    +0.000 HD
BRANCH  25  28
ATOM     28  C   UNL     1      52.670   4.259  17.907  0.00  0.00    +0.000 A 
ATOM     29  C   UNL     1      53.884   4.583  18.498  0.00  0.00    +0.000 A 
ATOM     30  S   UNL     1      54.750   3.226  19.057  0.00  0.00    +0.000 S 
ATOM     31  C   UNL     1      53.556   2.155  18.482  0.00  0.00    +0.000 A 
ATOM     32  N   UNL     1      53.696   0.811  18.621  0.00  0.00    +0.000 NA
ATOM     33  C   UNL     1      52.725   0.119  18.123  0.00  0.00    +0.000 A 
ATOM     34  N   UNL     1      51.624   0.651  17.500  0.00  0.00    +0.000 N 
ATOM     35  C   UNL     1      51.433   2.001  17.358  0.00  0.00    +0.000 A 
ATOM     36  O   UNL     1      50.415   2.447  16.831  0.00  0.00    +0.000 OA
ATOM     37  C   UNL     1      52.501   2.825  17.893  0.00  0.00    +0.000 A 
ATOM     38  H   UNL     1      50.895   0.055  17.143  0.00  0.00    +0.000 HD
ENDBRANCH  25  28
ENDBRANCH  23  24
ENDBRANCH   4  23
TORSDOF 11
ENDMDL
MODEL 9
REMARK VINA RESULT:    -5.979      3.417      5.904
REMARK INTER + INTRA:         -11.634
REMARK INTER:                  -9.998
REMARK INTRA:                  -1.636
REMARK UNBOUND:                -1.985
REMARK  Name = 
REMARK  11 active torsions:
REMARK  status: ('A' for Active; 'I' for Inactive)
REMARK    1  A    between atoms: N_1  and  C_2
REMARK    2  A    between atoms: C_2  and  C_3
REMARK    3  A    between atoms: C_3  and  C_4
REMARK    4  A    between atoms: C_4  and  C_5
REMARK    5  A    between atoms: C_5  and  N_6
REMARK    6  A    between atoms: C_5  and  C_28
REMARK    7  A    between atoms: N_6  and  C_7
REMARK    8  A    between atoms: C_7  and  C_8
REMARK    9  A    between atoms: C_11  and  C_12
REMARK   10  A    between atoms: C_12  and  N_13
REMARK   11  A    between atoms: C_14  and  C_16
REMARK                            x       y       z     vdW  Elec       q    Type
REMARK                         _______ _______ _______ _____ _____    ______ ____
ROOT
ATOM      1  C   UNL     1      47.445   4.582  15.430  0.00  0.00    +0.000 A 
ATOM      2  C   UNL     1      48.160   5.742  15.763  0.00  0.00    +0.000 A 
ATOM      3  C   UNL     1      48.777   5.860  17.014  0.00  0.00    +0.000 A 
ATOM      4  C   UNL     1      48.681   4.825  17.955  0.00  0.00    +0.000 A 
ATOM      5  C   UNL     1      47.911   3.699  17.646  0.00  0.00    +0.000 A 
ATOM      6  C   UNL     1      47.306   3.578  16.397  0.00  0.00    +0.000 A 
ENDROOT
BRANCH   1   7
ATOM      7  C   UNL     1      46.819   4.388  14.067  0.00  0.00    +0.000 C 
BRANCH   7   8
ATOM      8  N   UNL     1      45.533   5.081  13.955  0.00  0.00    +0.000 NA
ATOM      9  H   UNL     1      44.779   4.404  14.004  0.00  0.00    +0.000 HD
BRANCH   8  10
ATOM     10  C   UNL     1      45.410   5.882  12.717  0.00  0.00    +0.000 C 
BRANCH  10  11
ATOM     11  C   UNL     1      46.511   6.947  12.603  0.00  0.00    +0.000 A 
ATOM     12  C   UNL     1      47.540   6.798  11.676  0.00  0.00    +0.000 A 
ATOM     13  C   UNL     1      48.494   7.806  11.564  0.00  0.00    +0.000 A 
ATOM     14  C   UNL     1      48.394   8.937  12.367  0.00  0.00    +0.000 A 
ATOM     15  C   UNL     1      47.331   9.019  13.249  0.00  0.00    +0.000 A 
ATOM     16  N   UNL     1      46.393   8.061  13.378  0.00  0.00    +0.000 NA
ENDBRANCH  10  11
BRANCH  10  17
ATOM     17  C   UNL     1      45.333   5.060  11.405  0.00  0.00    +0.000 C 
BRANCH  17  18
ATOM     18  C   UNL     1      43.934   4.793  10.838  0.00  0.00    +0.000 C 
BRANCH  18  19
ATOM     19  C   UNL     1      42.802   5.500  11.580  0.00  0.00    +0.000 C 
BRANCH  19  20
ATOM     20  N   UNL     1      42.579   6.828  11.023  0.00  0.00    +0.000 NA
ATOM     21  H   UNL     1      41.771   7.262  11.465  0.00  0.00    +0.000 HD
ATOM     22  H   UNL     1      42.356   6.749  10.031  0.00  0.00    +0.000 HD
ENDBRANCH  19  20
ENDBRANCH  18  19
ENDBRANCH  17  18
ENDBRANCH  10  17
ENDBRANCH   8  10
ENDBRANCH   7   8
ENDBRANCH   1   7
BRANCH   4  23
ATOM     23  C   UNL     1      49.350   4.920  19.300  0.00  0.00    +0.000 C 
BRANCH  23  24
ATOM     24  N   UNL     1      50.534   4.107  19.325  0.00  0.00    +0.000 N 
ATOM     25  C   UNL     1      51.757   4.601  18.954  0.00  0.00    +0.000 C 
ATOM     26  O   UNL     1      51.921   5.767  18.611  0.00  0.00    +0.000 OA
ATOM     27  H   UNL     1      50.393   3.103  19.338  0.00  0.00    +0.000 HD
BRANCH  25  28
ATOM     28  C   UNL     1      52.877   3.661  19.063  0.00  0.00    +0.000 A 
ATOM     29  C   UNL     1      53.982   3.992  19.835  0.00  0.00    +0.000 A 
ATOM     30  S   UNL     1      55.160   2.762  19.897  0.00  0.00    +0.000 S 
ATOM     31  C   UNL     1      54.256   1.765  18.852  0.00  0.00    +0.000 A 
ATOM     32  N   UNL     1      54.721   0.546  18.471  0.00  0.00    +0.000 NA
ATOM     33  C   UNL     1      53.943  -0.093  17.662  0.00  0.00    +0.000 A 
ATOM     34  N   UNL     1      52.737   0.376  17.203  0.00  0.00    +0.000 N 
ATOM     35  C   UNL     1      52.221   1.588  17.579  0.00  0.00    +0.000 A 
ATOM     36  O   UNL     1      51.119   1.961  17.179  0.00  0.00    +0.000 OA
ATOM     37  C   UNL     1      53.062   2.353  18.480  0.00  0.00    +0.000 A 
ATOM     38  H   UNL     1      52.171  -0.180  16.581  0.00  0.00    +0.000 HD
ENDBRANCH  25  28
ENDBRANCH  23  24
ENDBRANCH   4  23
TORSDOF 11
ENDMDL
