MODEL 1
REMARK VINA RESULT:    -8.308      0.000      0.000
REMARK INTER + INTRA:         -10.821
REMARK INTER:                 -10.251
REMARK INTRA:                  -0.570
REMARK UNBOUND:                -0.570
REMARK  Name = 
REMARK  4 active torsions:
REMARK  status: ('A' for Active; 'I' for Inactive)
REMARK    1  A    between atoms: C_2  and  C_4
REMARK    2  A    between atoms: N_8  and  C_9
REMARK    3  A    between atoms: C_9  and  C_10
REMARK    4  A    between atoms: C_14  and  C_15
REMARK                            x       y       z     vdW  Elec       q    Type
REMARK                         _______ _______ _______ _____ _____    ______ ____
ROOT
ATOM      1  C   UNL     1      43.757   4.750  10.971  0.00  0.00    +0.000 C 
ENDROOT
BRANCH   1   6
ATOM      2  C   UNL     1      46.487   2.548   7.415  0.00  0.00    +0.000 A 
ATOM      3  C   UNL     1      45.827   1.499   8.048  0.00  0.00    +0.000 A 
ATOM      4  C   UNL     1      44.964   1.782   9.109  0.00  0.00    +0.000 A 
ATOM      5  C   UNL     1      44.766   3.102   9.512  0.00  0.00    +0.000 A 
ATOM      6  N   UNL     1      43.958   3.339  10.630  0.00  0.00    +0.000 N 
ATOM      7  N   UNL     1      45.415   4.119   8.913  0.00  0.00    +0.000 NA
ATOM      8  C   UNL     1      46.262   3.828   7.891  0.00  0.00    +0.000 A 
ATOM      9  H   UNL     1      43.066   2.861  10.535  0.00  0.00    +0.000 HD
BRANCH   2  11
ATOM     10  N   UNL     1      47.369   3.262   5.267  0.00  0.00    +0.000 N 
ATOM     11  C   UNL     1      47.427   2.358   6.292  0.00  0.00    +0.000 C 
ATOM     12  O   UNL     1      48.249   1.453   6.292  0.00  0.00    +0.000 OA
ATOM     13  H   UNL     1      48.091   3.184   4.562  0.00  0.00    +0.000 HD
ATOM     14  H   UNL     1      46.890   4.148   5.349  0.00  0.00    +0.000 HD
ENDBRANCH   2  11
ENDBRANCH   1   6
BRANCH   1  15
ATOM     15  C   UNL     1      44.836   5.214  11.937  0.00  0.00    +0.000 A 
ATOM     16  C   UNL     1      45.171   4.401  13.017  0.00  0.00    +0.000 A 
ATOM     17  C   UNL     1      46.195   4.798  13.865  0.00  0.00    +0.000 A 
ATOM     18  C   UNL     1      46.866   5.988  13.604  0.00  0.00    +0.000 A 
ATOM     19  C   UNL     1      46.494   6.761  12.502  0.00  0.00    +0.000 A 
ATOM     20  N   UNL     1      45.476   6.388  11.681  0.00  0.00    +0.000 NA
BRANCH  19  21
ATOM     21  C   UNL     1      47.179   8.026  12.161  0.00  0.00    +0.000 A 
ATOM     22  C   UNL     1      46.512   9.270  12.204  0.00  0.00    +0.000 A 
ATOM     23  C   UNL     1      47.154  10.463  11.853  0.00  0.00    +0.000 A 
ATOM     24  C   UNL     1      48.486  10.438  11.456  0.00  0.00    +0.000 A 
ATOM     25  C   UNL     1      49.164   9.226  11.427  0.00  0.00    +0.000 A 
ATOM     26  F   UNL     1      50.448   9.203  11.048  0.00  0.00    +0.000 F 
ATOM     27  C   UNL     1      48.530   8.036  11.776  0.00  0.00    +0.000 A 
ENDBRANCH  19  21
ENDBRANCH   1  15
TORSDOF 4
ENDMDL
MODEL 2
REMARK VINA RESULT:    -8.196      1.648      1.982
REMARK INTER + INTRA:         -10.682
REMARK INTER:                 -10.160
REMARK INTRA:                  -0.522
REMARK UNBOUND:                -0.570
REMARK  Name = 
REMARK  4 active torsions:
REMARK  status: ('A' for Active; 'I' for Inactive)
REMARK    1  A    between atoms: C_2  and  C_4
REMARK    2  A    between atoms: N_8  and  C_9
REMARK    3  A    between atoms: C_9  and  C_10
REMARK    4  A    between atoms: C_14  and  C_15
REMARK                            x       y       z     vdW  Elec       q    Type
REMARK                         _______ _______ _______ _____ _____    ______ ____
ROOT
ATOM      1  C   UNL     1      43.500   4.462  10.998  0.00  0.00    +0.000 C 
ENDROOT
BRANCH   1   6
ATOM      2  C   UNL     1      46.438   2.782   7.325  0.00  0.00    +0.000 A 
ATOM      3  C   UNL     1      45.994   1.631   7.969  0.00  0.00    +0.000 A 
ATOM      4  C   UNL     1      45.134   1.756   9.063  0.00  0.00    +0.000 A 
ATOM      5  C   UNL     1      44.725   3.020   9.487  0.00  0.00    +0.000 A 
ATOM      6  N   UNL     1      43.929   3.109  10.635  0.00  0.00    +0.000 N 
ATOM      7  N   UNL     1      45.166   4.137   8.875  0.00  0.00    +0.000 NA
ATOM      8  C   UNL     1      46.012   4.002   7.822  0.00  0.00    +0.000 A 
ATOM      9  H   UNL     1      43.131   2.483  10.567  0.00  0.00    +0.000 HD
BRANCH   2  11
ATOM     10  N   UNL     1      48.673   2.495   6.415  0.00  0.00    +0.000 N 
ATOM     11  C   UNL     1      47.355   2.763   6.167  0.00  0.00    +0.000 C 
ATOM     12  O   UNL     1      46.950   2.942   5.027  0.00  0.00    +0.000 OA
ATOM     13  H   UNL     1      49.265   2.375   5.604  0.00  0.00    +0.000 HD
ATOM     14  H   UNL     1      48.992   2.100   7.289  0.00  0.00    +0.000 HD
ENDBRANCH   2  11
ENDBRANCH   1   6
BRANCH   1  15
ATOM     15  C   UNL     1      44.546   5.125  11.880  0.00  0.00    +0.000 A 
ATOM     16  C   UNL     1      45.245   4.346  12.801  0.00  0.00    +0.000 A 
ATOM     17  C   UNL     1      46.239   4.940  13.565  0.00  0.00    +0.000 A 
ATOM     18  C   UNL     1      46.518   6.290  13.380  0.00  0.00    +0.000 A 
ATOM     19  C   UNL     1      45.793   7.021  12.438  0.00  0.00    +0.000 A 
ATOM     20  N   UNL     1      44.801   6.450  11.702  0.00  0.00    +0.000 NA
BRANCH  19  21
ATOM     21  C   UNL     1      46.053   8.454  12.182  0.00  0.00    +0.000 A 
ATOM     22  C   UNL     1      47.357   8.993  12.220  0.00  0.00    +0.000 A 
ATOM     23  C   UNL     1      47.598  10.355  12.004  0.00  0.00    +0.000 A 
ATOM     24  C   UNL     1      46.534  11.210  11.738  0.00  0.00    +0.000 A 
ATOM     25  C   UNL     1      45.246  10.693  11.677  0.00  0.00    +0.000 A 
ATOM     26  F   UNL     1      44.222  11.516  11.416  0.00  0.00    +0.000 F 
ATOM     27  C   UNL     1      45.001   9.339  11.889  0.00  0.00    +0.000 A 
ENDBRANCH  19  21
ENDBRANCH   1  15
TORSDOF 4
ENDMDL
MODEL 3
REMARK VINA RESULT:    -8.053      4.794      8.047
REMARK INTER + INTRA:         -10.505
REMARK INTER:                 -10.012
REMARK INTRA:                  -0.494
REMARK UNBOUND:                -0.570
REMARK  Name = 
REMARK  4 active torsions:
REMARK  status: ('A' for Active; 'I' for Inactive)
REMARK    1  A    between atoms: C_2  and  C_4
REMARK    2  A    between atoms: N_8  and  C_9
REMARK    3  A    between atoms: C_9  and  C_10
REMARK    4  A    between atoms: C_14  and  C_15
REMARK                            x       y       z     vdW  Elec       q    Type
REMARK                         _______ _______ _______ _____ _____    ______ ____
ROOT
ATOM      1  C   UNL     1      46.034   5.251  13.918  0.00  0.00    +0.000 C 
ENDROOT
BRANCH   1   6
ATOM      2  C   UNL     1      49.435   4.267  17.441  0.00  0.00    +0.000 A 
ATOM      3  C   UNL     1      48.876   3.029  17.141  0.00  0.00    +0.000 A 
ATOM      4  C   UNL     1      47.872   2.954  16.172  0.00  0.00    +0.000 A 
ATOM      5  C   UNL     1      47.454   4.110  15.513  0.00  0.00    +0.000 A 
ATOM      6  N   UNL     1      46.392   4.008  14.607  0.00  0.00    +0.000 N 
ATOM      7  N   UNL     1      47.983   5.313  15.811  0.00  0.00    +0.000 NA
ATOM      8  C   UNL     1      48.948   5.372  16.765  0.00  0.00    +0.000 A 
ATOM      9  H   UNL     1      46.561   3.261  13.939  0.00  0.00    +0.000 HD
BRANCH   2  11
ATOM     10  N   UNL     1      51.358   3.418  18.660  0.00  0.00    +0.000 N 
ATOM     11  C   UNL     1      50.493   4.458  18.454  0.00  0.00    +0.000 C 
ATOM     12  O   UNL     1      50.617   5.513  19.058  0.00  0.00    +0.000 OA
ATOM     13  H   UNL     1      52.141   3.604  19.273  0.00  0.00    +0.000 HD
ATOM     14  H   UNL     1      51.443   2.645  18.016  0.00  0.00    +0.000 HD
ENDBRANCH   2  11
ENDBRANCH   1   6
BRANCH   1  15
ATOM     15  C   UNL     1      45.090   4.957  12.763  0.00  0.00    +0.000 A 
ATOM     16  C   UNL     1      43.755   5.343  12.866  0.00  0.00    +0.000 A 
ATOM     17  C   UNL     1      42.908   5.125  11.789  0.00  0.00    +0.000 A 
ATOM     18  C   UNL     1      43.419   4.542  10.635  0.00  0.00    +0.000 A 
ATOM     19  C   UNL     1      44.766   4.182  10.583  0.00  0.00    +0.000 A 
ATOM     20  N   UNL     1      45.596   4.372  11.643  0.00  0.00    +0.000 NA
BRANCH  19  21
ATOM     21  C   UNL     1      45.374   3.575   9.379  0.00  0.00    +0.000 A 
ATOM     22  C   UNL     1      45.856   4.361   8.310  0.00  0.00    +0.000 A 
ATOM     23  C   UNL     1      46.405   3.783   7.159  0.00  0.00    +0.000 A 
ATOM     24  C   UNL     1      46.490   2.399   7.056  0.00  0.00    +0.000 A 
ATOM     25  C   UNL     1      46.039   1.610   8.107  0.00  0.00    +0.000 A 
ATOM     26  F   UNL     1      46.124   0.277   8.009  0.00  0.00    +0.000 F 
ATOM     27  C   UNL     1      45.492   2.180   9.254  0.00  0.00    +0.000 A 
ENDBRANCH  19  21
ENDBRANCH   1  15
TORSDOF 4
ENDMDL
MODEL 4
REMARK VINA RESULT:    -7.755      3.108      6.898
REMARK INTER + INTRA:         -10.138
REMARK INTER:                  -9.415
REMARK INTRA:                  -0.723
REMARK UNBOUND:                -0.570
REMARK  Name = 
REMARK  4 active torsions:
REMARK  status: ('A' for Active; 'I' for Inactive)
REMARK    1  A    between atoms: C_2  and  C_4
REMARK    2  A    between atoms: N_8  and  C_9
REMARK    3  A    between atoms: C_9  and  C_10
REMARK    4  A    between atoms: C_14  and  C_15
REMARK                            x       y       z     vdW  Elec       q    Type
REMARK                         _______ _______ _______ _____ _____    ______ ____
ROOT
ATOM      1  C   UNL     1      44.518   6.344  11.608  0.00  0.00    +0.000 C 
ENDROOT
BRANCH   1   6
ATOM      2  C   UNL     1      49.294   7.520  12.476  0.00  0.00    +0.000 A 
ATOM      3  C   UNL     1      48.779   7.207  13.730  0.00  0.00    +0.000 A 
ATOM      4  C   UNL     1      47.439   6.826  13.837  0.00  0.00    +0.000 A 
ATOM      5  C   UNL     1      46.642   6.753  12.695  0.00  0.00    +0.000 A 
ATOM      6  N   UNL     1      45.286   6.446  12.852  0.00  0.00    +0.000 N 
ATOM      7  N   UNL     1      47.133   7.071  11.481  0.00  0.00    +0.000 NA
ATOM      8  C   UNL     1      48.433   7.453  11.394  0.00  0.00    +0.000 A 
ATOM      9  H   UNL     1      45.170   5.610  13.417  0.00  0.00    +0.000 HD
BRANCH   2  11
ATOM     10  N   UNL     1      51.466   8.154  13.360  0.00  0.00    +0.000 N 
ATOM     11  C   UNL     1      50.691   7.943  12.253  0.00  0.00    +0.000 C 
ATOM     12  O   UNL     1      51.151   8.065  11.127  0.00  0.00    +0.000 OA
ATOM     13  H   UNL     1      52.447   8.334  13.191  0.00  0.00    +0.000 HD
ATOM     14  H   UNL     1      51.203   7.826  14.279  0.00  0.00    +0.000 HD
ENDBRANCH   2  11
ENDBRANCH   1   6
BRANCH   1  15
ATOM     15  C   UNL     1      44.367   4.885  11.204  0.00  0.00    +0.000 A 
ATOM     16  C   UNL     1      43.477   4.077  11.910  0.00  0.00    +0.000 A 
ATOM     17  C   UNL     1      43.298   2.763  11.505  0.00  0.00    +0.000 A 
ATOM     18  C   UNL     1      43.999   2.295  10.399  0.00  0.00    +0.000 A 
ATOM     19  C   UNL     1      44.871   3.150   9.723  0.00  0.00    +0.000 A 
ATOM     20  N   UNL     1      45.069   4.432  10.130  0.00  0.00    +0.000 NA
BRANCH  19  21
ATOM     21  C   UNL     1      45.632   2.718   8.531  0.00  0.00    +0.000 A 
ATOM     22  C   UNL     1      46.137   1.406   8.404  0.00  0.00    +0.000 A 
ATOM     23  C   UNL     1      46.880   1.008   7.286  0.00  0.00    +0.000 A 
ATOM     24  C   UNL     1      47.129   1.916   6.264  0.00  0.00    +0.000 A 
ATOM     25  C   UNL     1      46.623   3.206   6.364  0.00  0.00    +0.000 A 
ATOM     26  F   UNL     1      46.860   4.080   5.377  0.00  0.00    +0.000 F 
ATOM     27  C   UNL     1      45.882   3.607   7.472  0.00  0.00    +0.000 A 
ENDBRANCH  19  21
ENDBRANCH   1  15
TORSDOF 4
ENDMDL
MODEL 5
REMARK VINA RESULT:    -7.712      4.678      8.191
REMARK INTER + INTRA:         -10.086
REMARK INTER:                  -9.597
REMARK INTRA:                  -0.488
REMARK UNBOUND:                -0.570
REMARK  Name = 
REMARK  4 active torsions:
REMARK  status: ('A' for Active; 'I' for Inactive)
REMARK    1  A    between atoms: C_2  and  C_4
REMARK    2  A    between atoms: N_8  and  C_9
REMARK    3  A    between atoms: C_9  and  C_10
REMARK    4  A    between atoms: C_14  and  C_15
REMARK                            x       y       z     vdW  Elec       q    Type
REMARK                         _______ _______ _______ _____ _____    ______ ____
ROOT
ATOM      1  C   UNL     1      45.560   3.716  13.215  0.00  0.00    +0.000 C 
ENDROOT
BRANCH   1   6
ATOM      2  C   UNL     1      48.583   4.437  17.124  0.00  0.00    +0.000 A 
ATOM      3  C   UNL     1      48.643   5.632  16.413  0.00  0.00    +0.000 A 
ATOM      4  C   UNL     1      47.893   5.761  15.241  0.00  0.00    +0.000 A 
ATOM      5  C   UNL     1      47.091   4.706  14.808  0.00  0.00    +0.000 A 
ATOM      6  N   UNL     1      46.418   4.843  13.588  0.00  0.00    +0.000 N 
ATOM      7  N   UNL     1      47.043   3.543  15.485  0.00  0.00    +0.000 NA
ATOM      8  C   UNL     1      47.788   3.425  16.615  0.00  0.00    +0.000 A 
ATOM      9  H   UNL     1      45.899   5.716  13.562  0.00  0.00    +0.000 HD
BRANCH   2  11
ATOM     10  N   UNL     1      50.223   3.146  18.369  0.00  0.00    +0.000 N 
ATOM     11  C   UNL     1      49.342   4.193  18.368  0.00  0.00    +0.000 C 
ATOM     12  O   UNL     1      49.219   4.916  19.345  0.00  0.00    +0.000 OA
ATOM     13  H   UNL     1      50.814   3.061  19.185  0.00  0.00    +0.000 HD
ATOM     14  H   UNL     1      50.531   2.694  17.519  0.00  0.00    +0.000 HD
ENDBRANCH   2  11
ENDBRANCH   1   6
BRANCH   1  15
ATOM     15  C   UNL     1      44.972   3.940  11.831  0.00  0.00    +0.000 A 
ATOM     16  C   UNL     1      43.889   4.806  11.689  0.00  0.00    +0.000 A 
ATOM     17  C   UNL     1      43.390   5.055  10.419  0.00  0.00    +0.000 A 
ATOM     18  C   UNL     1      43.992   4.444   9.324  0.00  0.00    +0.000 A 
ATOM     19  C   UNL     1      45.079   3.592   9.523  0.00  0.00    +0.000 A 
ATOM     20  N   UNL     1      45.559   3.326  10.768  0.00  0.00    +0.000 NA
BRANCH  19  21
ATOM     21  C   UNL     1      45.774   2.926   8.400  0.00  0.00    +0.000 A 
ATOM     22  C   UNL     1      46.196   3.639   7.256  0.00  0.00    +0.000 A 
ATOM     23  C   UNL     1      46.828   3.002   6.183  0.00  0.00    +0.000 A 
ATOM     24  C   UNL     1      47.060   1.632   6.233  0.00  0.00    +0.000 A 
ATOM     25  C   UNL     1      46.670   0.918   7.359  0.00  0.00    +0.000 A 
ATOM     26  F   UNL     1      46.897  -0.401   7.409  0.00  0.00    +0.000 F 
ATOM     27  C   UNL     1      46.041   1.547   8.431  0.00  0.00    +0.000 A 
ENDBRANCH  19  21
ENDBRANCH   1  15
TORSDOF 4
ENDMDL
MODEL 6
REMARK VINA RESULT:    -7.617      3.488      7.122
REMARK INTER + INTRA:          -9.967
REMARK INTER:                  -9.535
REMARK INTRA:                  -0.432
REMARK UNBOUND:                -0.570
REMARK  Name = 
REMARK  4 active torsions:
REMARK  status: ('A' for Active; 'I' for Inactive)
REMARK    1  A    between atoms: C_2  and  C_4
REMARK    2  A    between atoms: N_8  and  C_9
REMARK    3  A    between atoms: C_9  and  C_10
REMARK    4  A    between atoms: C_14  and  C_15
REMARK                            x       y       z     vdW  Elec       q    Type
REMARK                         _______ _______ _______ _____ _____    ______ ____
ROOT
ATOM      1  C   UNL     1      45.732   4.849  13.784  0.00  0.00    +0.000 C 
ENDROOT
BRANCH   1   6
ATOM      2  C   UNL     1      47.733   9.165  12.262  0.00  0.00    +0.000 A 
ATOM      3  C   UNL     1      48.783   8.254  12.202  0.00  0.00    +0.000 A 
ATOM      4  C   UNL     1      48.551   6.926  12.569  0.00  0.00    +0.000 A 
ATOM      5  C   UNL     1      47.277   6.529  12.977  0.00  0.00    +0.000 A 
ATOM      6  N   UNL     1      47.103   5.210  13.412  0.00  0.00    +0.000 N 
ATOM      7  N   UNL     1      46.262   7.411  13.051  0.00  0.00    +0.000 NA
ATOM      8  C   UNL     1      46.505   8.702  12.705  0.00  0.00    +0.000 A 
ATOM      9  H   UNL     1      47.477   4.555  12.732  0.00  0.00    +0.000 HD
BRANCH   2  11
ATOM     10  N   UNL     1      46.973  11.464  12.454  0.00  0.00    +0.000 N 
ATOM     11  C   UNL     1      47.872  10.592  11.907  0.00  0.00    +0.000 C 
ATOM     12  O   UNL     1      48.777  10.985  11.185  0.00  0.00    +0.000 OA
ATOM     13  H   UNL     1      47.149  12.447  12.291  0.00  0.00    +0.000 HD
ATOM     14  H   UNL     1      46.383  11.219  13.237  0.00  0.00    +0.000 HD
ENDBRANCH   2  11
ENDBRANCH   1   6
BRANCH   1  15
ATOM     15  C   UNL     1      44.887   4.646  12.536  0.00  0.00    +0.000 A 
ATOM     16  C   UNL     1      43.569   5.100  12.531  0.00  0.00    +0.000 A 
ATOM     17  C   UNL     1      42.818   4.966  11.374  0.00  0.00    +0.000 A 
ATOM     18  C   UNL     1      43.404   4.395  10.249  0.00  0.00    +0.000 A 
ATOM     19  C   UNL     1      44.730   3.965  10.307  0.00  0.00    +0.000 A 
ATOM     20  N   UNL     1      45.465   4.072  11.446  0.00  0.00    +0.000 NA
BRANCH  19  21
ATOM     21  C   UNL     1      45.416   3.366   9.141  0.00  0.00    +0.000 A 
ATOM     22  C   UNL     1      45.886   4.154   8.068  0.00  0.00    +0.000 A 
ATOM     23  C   UNL     1      46.510   3.582   6.953  0.00  0.00    +0.000 A 
ATOM     24  C   UNL     1      46.684   2.205   6.891  0.00  0.00    +0.000 A 
ATOM     25  C   UNL     1      46.246   1.416   7.947  0.00  0.00    +0.000 A 
ATOM     26  F   UNL     1      46.418   0.089   7.889  0.00  0.00    +0.000 F 
ATOM     27  C   UNL     1      45.625   1.979   9.059  0.00  0.00    +0.000 A 
ENDBRANCH  19  21
ENDBRANCH   1  15
TORSDOF 4
ENDMDL
MODEL 7
REMARK VINA RESULT:    -7.569      2.300      3.896
REMARK INTER + INTRA:          -9.909
REMARK INTER:                  -9.580
REMARK INTRA:                  -0.329
REMARK UNBOUND:                -0.570
REMARK  Name = 
REMARK  4 active torsions:
REMARK  status: ('A' for Active; 'I' for Inactive)
REMARK    1  A    between atoms: C_2  and  C_4
REMARK    2  A    between atoms: N_8  and  C_9
REMARK    3  A    between atoms: C_9  and  C_10
REMARK    4  A    between atoms: C_14  and  C_15
REMARK                            x       y       z     vdW  Elec       q    Type
REMARK                         _______ _______ _______ _____ _____    ______ ____
ROOT
ATOM      1  C   UNL     1      44.307   5.260  11.245  0.00  0.00    +0.000 C 
ENDROOT
BRANCH   1   6
ATOM      2  C   UNL     1      46.399   2.666   7.525  0.00  0.00    +0.000 A 
ATOM      3  C   UNL     1      45.807   1.700   8.334  0.00  0.00    +0.000 A 
ATOM      4  C   UNL     1      45.123   2.104   9.483  0.00  0.00    +0.000 A 
ATOM      5  C   UNL     1      45.031   3.459   9.798  0.00  0.00    +0.000 A 
ATOM      6  N   UNL     1      44.407   3.819  10.998  0.00  0.00    +0.000 N 
ATOM      7  N   UNL     1      45.615   4.396   9.026  0.00  0.00    +0.000 NA
ATOM      8  C   UNL     1      46.290   3.988   7.920  0.00  0.00    +0.000 A 
ATOM      9  H   UNL     1      43.496   3.375  11.076  0.00  0.00    +0.000 HD
BRANCH   2  11
ATOM     10  N   UNL     1      46.992   3.184   5.227  0.00  0.00    +0.000 N 
ATOM     11  C   UNL     1      47.153   2.346   6.296  0.00  0.00    +0.000 C 
ATOM     12  O   UNL     1      47.919   1.395   6.245  0.00  0.00    +0.000 OA
ATOM     13  H   UNL     1      47.597   3.017   4.434  0.00  0.00    +0.000 HD
ATOM     14  H   UNL     1      46.575   4.101   5.312  0.00  0.00    +0.000 HD
ENDBRANCH   2  11
ENDBRANCH   1   6
BRANCH   1  15
ATOM     15  C   UNL     1      45.601   5.779  11.850  0.00  0.00    +0.000 A 
ATOM     16  C   UNL     1      46.269   6.828  11.220  0.00  0.00    +0.000 A 
ATOM     17  C   UNL     1      47.419   7.339  11.803  0.00  0.00    +0.000 A 
ATOM     18  C   UNL     1      47.864   6.800  13.006  0.00  0.00    +0.000 A 
ATOM     19  C   UNL     1      47.152   5.756  13.598  0.00  0.00    +0.000 A 
ATOM     20  N   UNL     1      46.037   5.235  13.019  0.00  0.00    +0.000 NA
BRANCH  19  21
ATOM     21  C   UNL     1      47.563   5.152  14.884  0.00  0.00    +0.000 A 
ATOM     22  C   UNL     1      47.200   3.834  15.238  0.00  0.00    +0.000 A 
ATOM     23  C   UNL     1      47.566   3.275  16.468  0.00  0.00    +0.000 A 
ATOM     24  C   UNL     1      48.313   4.022  17.371  0.00  0.00    +0.000 A 
ATOM     25  C   UNL     1      48.696   5.314  17.031  0.00  0.00    +0.000 A 
ATOM     26  F   UNL     1      49.419   6.032  17.900  0.00  0.00    +0.000 F 
ATOM     27  C   UNL     1      48.335   5.875  15.809  0.00  0.00    +0.000 A 
ENDBRANCH  19  21
ENDBRANCH   1  15
TORSDOF 4
ENDMDL
MODEL 8
REMARK VINA RESULT:    -7.469      3.440      6.908
REMARK INTER + INTRA:          -9.785
REMARK INTER:                  -9.070
REMARK INTRA:                  -0.715
REMARK UNBOUND:                -0.570
REMARK  Name = 
REMARK  4 active torsions:
REMARK  status: ('A' for Active; 'I' for Inactive)
REMARK    1  A    between atoms: C_2  and  C_4
REMARK    2  A    between atoms: N_8  and  C_9
REMARK    3  A    between atoms: C_9  and  C_10
REMARK    4  A    between atoms: C_14  and  C_15
REMARK                            x       y       z     vdW  Elec       q    Type
REMARK                         _______ _______ _______ _____ _____    ______ ____
ROOT
ATOM      1  C   UNL     1      45.867   5.895  13.574  0.00  0.00    +0.000 C 
ENDROOT
BRANCH   1   6
ATOM      2  C   UNL     1      49.808   8.398  11.798  0.00  0.00    +0.000 A 
ATOM      3  C   UNL     1      48.834   9.373  11.990  0.00  0.00    +0.000 A 
ATOM      4  C   UNL     1      47.586   8.995  12.491  0.00  0.00    +0.000 A 
ATOM      5  C   UNL     1      47.335   7.659  12.801  0.00  0.00    +0.000 A 
ATOM      6  N   UNL     1      46.048   7.306  13.224  0.00  0.00    +0.000 N 
ATOM      7  N   UNL     1      48.271   6.710  12.602  0.00  0.00    +0.000 NA
ATOM      8  C   UNL     1      49.475   7.089  12.101  0.00  0.00    +0.000 A 
ATOM      9  H   UNL     1      45.743   7.909  13.983  0.00  0.00    +0.000 HD
BRANCH   2  11
ATOM     10  N   UNL     1      52.137   7.770  11.512  0.00  0.00    +0.000 N 
ATOM     11  C   UNL     1      51.155   8.689  11.266  0.00  0.00    +0.000 C 
ATOM     12  O   UNL     1      51.377   9.689  10.600  0.00  0.00    +0.000 OA
ATOM     13  H   UNL     1      53.022   7.927  11.048  0.00  0.00    +0.000 HD
ATOM     14  H   UNL     1      51.938   6.832  11.832  0.00  0.00    +0.000 HD
ENDBRANCH   2  11
ENDBRANCH   1   6
BRANCH   1  15
ATOM     15  C   UNL     1      44.959   5.216  12.561  0.00  0.00    +0.000 A 
ATOM     16  C   UNL     1      43.581   5.240  12.767  0.00  0.00    +0.000 A 
ATOM     17  C   UNL     1      42.750   4.670  11.814  0.00  0.00    +0.000 A 
ATOM     18  C   UNL     1      43.314   4.105  10.675  0.00  0.00    +0.000 A 
ATOM     19  C   UNL     1      44.701   4.115  10.516  0.00  0.00    +0.000 A 
ATOM     20  N   UNL     1      45.522   4.652  11.458  0.00  0.00    +0.000 NA
BRANCH  19  21
ATOM     21  C   UNL     1      45.361   3.547   9.321  0.00  0.00    +0.000 A 
ATOM     22  C   UNL     1      45.832   4.363   8.270  0.00  0.00    +0.000 A 
ATOM     23  C   UNL     1      46.432   3.821   7.128  0.00  0.00    +0.000 A 
ATOM     24  C   UNL     1      46.581   2.444   7.015  0.00  0.00    +0.000 A 
ATOM     25  C   UNL     1      46.141   1.626   8.049  0.00  0.00    +0.000 A 
ATOM     26  F   UNL     1      46.289   0.299   7.942  0.00  0.00    +0.000 F 
ATOM     27  C   UNL     1      45.545   2.160   9.188  0.00  0.00    +0.000 A 
ENDBRANCH  19  21
ENDBRANCH   1  15
TORSDOF 4
ENDMDL
MODEL 9
REMARK VINA RESULT:    -7.296      5.665      7.497
REMARK INTER + INTRA:          -9.571
REMARK INTER:                  -9.084
REMARK INTRA:                  -0.487
REMARK UNBOUND:                -0.570
REMARK  Name = 
REMARK  4 active torsions:
REMARK  status: ('A' for Active; 'I' for Inactive)
REMARK    1  A    between atoms: C_2  and  C_4
REMARK    2  A    between atoms: N_8  and  C_9
REMARK    3  A    between atoms: C_9  and  C_10
REMARK    4  A    between atoms: C_14  and  C_15
REMARK                            x       y       z     vdW  Elec       q    Type
REMARK                         _______ _______ _______ _____ _____    ______ ____
ROOT
ATOM      1  C   UNL     1      47.236   4.385  15.889  0.00  0.00    +0.000 C 
ENDROOT
BRANCH   1   6
ATOM      2  C   UNL     1      45.131   4.328  11.360  0.00  0.00    +0.000 A 
ATOM      3  C   UNL     1      45.729   5.582  11.451  0.00  0.00    +0.000 A 
ATOM      4  C   UNL     1      46.418   5.921  12.617  0.00  0.00    +0.000 A 
ATOM      5  C   UNL     1      46.508   5.005  13.665  0.00  0.00    +0.000 A 
ATOM      6  N   UNL     1      47.137   5.410  14.848  0.00  0.00    +0.000 N 
ATOM      7  N   UNL     1      45.918   3.796  13.587  0.00  0.00    +0.000 NA
ATOM      8  C   UNL     1      45.239   3.485  12.452  0.00  0.00    +0.000 A 
ATOM      9  H   UNL     1      48.050   5.812  14.649  0.00  0.00    +0.000 HD
BRANCH   2  11
ATOM     10  N   UNL     1      44.408   4.669   9.066  0.00  0.00    +0.000 N 
ATOM     11  C   UNL     1      44.372   3.873  10.177  0.00  0.00    +0.000 C 
ATOM     12  O   UNL     1      43.767   2.811  10.176  0.00  0.00    +0.000 OA
ATOM     13  H   UNL     1      43.977   4.291   8.232  0.00  0.00    +0.000 HD
ATOM     14  H   UNL     1      45.087   5.407   8.947  0.00  0.00    +0.000 HD
ENDBRANCH   2  11
ENDBRANCH   1   6
BRANCH   1  15
ATOM     15  C   UNL     1      48.390   4.700  16.828  0.00  0.00    +0.000 A 
ATOM     16  C   UNL     1      48.307   5.823  17.648  0.00  0.00    +0.000 A 
ATOM     17  C   UNL     1      49.334   6.078  18.544  0.00  0.00    +0.000 A 
ATOM     18  C   UNL     1      50.409   5.198  18.608  0.00  0.00    +0.000 A 
ATOM     19  C   UNL     1      50.438   4.083  17.769  0.00  0.00    +0.000 A 
ATOM     20  N   UNL     1      49.445   3.840  16.872  0.00  0.00    +0.000 NA
BRANCH  19  21
ATOM     21  C   UNL     1      51.543   3.101  17.801  0.00  0.00    +0.000 A 
ATOM     22  C   UNL     1      51.356   1.755  17.416  0.00  0.00    +0.000 A 
ATOM     23  C   UNL     1      52.396   0.821  17.473  0.00  0.00    +0.000 A 
ATOM     24  C   UNL     1      53.655   1.216  17.912  0.00  0.00    +0.000 A 
ATOM     25  C   UNL     1      53.862   2.541  18.276  0.00  0.00    +0.000 A 
ATOM     26  F   UNL     1      55.076   2.922  18.695  0.00  0.00    +0.000 F 
ATOM     27  C   UNL     1      52.831   3.475  18.220  0.00  0.00    +0.000 A 
ENDBRANCH  19  21
ENDBRANCH   1  15
TORSDOF 4
ENDMDL
