MODEL 1
REMARK VINA RESULT:    -8.655      0.000      0.000
REMARK INTER + INTRA:         -11.357
REMARK INTER:                 -10.678
REMARK INTRA:                  -0.678
REMARK UNBOUND:                -0.678
REMARK  Name = 
REMARK  5 active torsions:
REMARK  status: ('A' for Active; 'I' for Inactive)
REMARK    1  A    between atoms: C_1  and  N_2
REMARK    2  A    between atoms: C_8  and  C_9
REMARK    3  A    between atoms: C_9  and  C_10
REMARK    4  A    between atoms: C_10  and  N_11
REMARK    5  A    between atoms: C_15  and  C_16
REMARK                            x       y       z     vdW  Elec       q    Type
REMARK                         _______ _______ _______ _____ _____    ______ ____
ROOT
ATOM      1  C   UNL     1      43.387   5.068  12.350  0.00  0.00    +0.000 C 
ENDROOT
BRANCH   1   9
ATOM      2  C   UNL     1      49.002  11.151  14.141  0.00  0.00    +0.000 C 
ATOM      3  N   UNL     1      49.005   9.778  13.640  0.00  0.00    +0.000 NA
ATOM      4  C   UNL     1      48.919   8.814  14.769  0.00  0.00    +0.000 C 
ATOM      5  C   UNL     1      48.774   7.337  14.308  0.00  0.00    +0.000 C 
ATOM      6  N   UNL     1      47.596   7.271  13.442  0.00  0.00    +0.000 N 
ATOM      7  C   UNL     1      46.924   6.070  13.312  0.00  0.00    +0.000 A 
ATOM      8  C   UNL     1      45.589   6.109  12.896  0.00  0.00    +0.000 A 
ATOM      9  C   UNL     1      44.827   4.944  12.801  0.00  0.00    +0.000 A 
ATOM     10  C   UNL     1      45.453   3.747  13.140  0.00  0.00    +0.000 A 
ATOM     11  C   UNL     1      46.777   3.783  13.554  0.00  0.00    +0.000 A 
ATOM     12  N   UNL     1      47.513   4.912  13.655  0.00  0.00    +0.000 NA
ATOM     13  C   UNL     1      47.727   8.111  12.247  0.00  0.00    +0.000 C 
ATOM     14  C   UNL     1      47.866   9.576  12.711  0.00  0.00    +0.000 C 
ENDBRANCH   1   9
BRANCH   1  15
ATOM     15  C   UNL     1      43.096   4.449  10.987  0.00  0.00    +0.000 C 
BRANCH  15  16
ATOM     16  N   UNL     1      43.931   5.022   9.930  0.00  0.00    +0.000 N 
ATOM     17  C   UNL     1      44.703   4.027   9.295  0.00  0.00    +0.000 A 
ATOM     18  C   UNL     1      45.566   4.393   8.272  0.00  0.00    +0.000 A 
ATOM     19  C   UNL     1      46.334   3.408   7.636  0.00  0.00    +0.000 A 
ATOM     20  C   UNL     1      46.218   2.076   8.037  0.00  0.00    +0.000 A 
ATOM     21  C   UNL     1      45.323   1.800   9.052  0.00  0.00    +0.000 A 
ATOM     22  N   UNL     1      44.571   2.737   9.672  0.00  0.00    +0.000 NA
ATOM     23  H   UNL     1      44.561   5.741  10.278  0.00  0.00    +0.000 HD
BRANCH  20  24
ATOM     24  C   UNL     1      47.042   1.038   7.381  0.00  0.00    +0.000 C 
ATOM     25  N   UNL     1      46.809  -0.279   7.660  0.00  0.00    +0.000 N 
ATOM     26  O   UNL     1      47.934   1.345   6.596  0.00  0.00    +0.000 OA
ATOM     27  H   UNL     1      46.117  -0.643   8.295  0.00  0.00    +0.000 HD
ATOM     28  H   UNL     1      47.404  -0.952   7.192  0.00  0.00    +0.000 HD
ENDBRANCH  20  24
ENDBRANCH  15  16
ENDBRANCH   1  15
TORSDOF 4
ENDMDL
MODEL 2
REMARK VINA RESULT:    -7.908      3.785      8.330
REMARK INTER + INTRA:         -10.436
REMARK INTER:                 -10.085
REMARK INTRA:                  -0.351
REMARK UNBOUND:                -0.678
REMARK  Name = 
REMARK  5 active torsions:
REMARK  status: ('A' for Active; 'I' for Inactive)
REMARK    1  A    between atoms: C_1  and  N_2
REMARK    2  A    between atoms: C_8  and  C_9
REMARK    3  A    between atoms: C_9  and  C_10
REMARK    4  A    between atoms: C_10  and  N_11
REMARK    5  A    between atoms: C_15  and  C_16
REMARK                            x       y       z     vdW  Elec       q    Type
REMARK                         _______ _______ _______ _____ _____    ______ ____
ROOT
ATOM      1  C   UNL     1      45.365   5.865  13.204  0.00  0.00    +0.000 C 
ENDROOT
BRANCH   1   9
ATOM      2  C   UNL     1      47.953   2.120   6.062  0.00  0.00    +0.000 C 
ATOM      3  N   UNL     1      46.695   2.404   6.750  0.00  0.00    +0.000 NA
ATOM      4  C   UNL     1      46.434   1.381   7.798  0.00  0.00    +0.000 C 
ATOM      5  C   UNL     1      45.186   1.695   8.668  0.00  0.00    +0.000 C 
ATOM      6  N   UNL     1      45.386   3.027   9.242  0.00  0.00    +0.000 N 
ATOM      7  C   UNL     1      44.744   3.353  10.421  0.00  0.00    +0.000 A 
ATOM      8  C   UNL     1      45.280   4.390  11.193  0.00  0.00    +0.000 A 
ATOM      9  C   UNL     1      44.725   4.736  12.425  0.00  0.00    +0.000 A 
ATOM     10  C   UNL     1      43.618   4.004  12.850  0.00  0.00    +0.000 A 
ATOM     11  C   UNL     1      43.145   2.982  12.039  0.00  0.00    +0.000 A 
ATOM     12  N   UNL     1      43.688   2.640  10.850  0.00  0.00    +0.000 NA
ATOM     13  C   UNL     1      45.503   4.070   8.217  0.00  0.00    +0.000 C 
ATOM     14  C   UNL     1      46.746   3.755   7.360  0.00  0.00    +0.000 C 
ENDBRANCH   1   9
BRANCH   1  15
ATOM     15  C   UNL     1      46.671   5.491  13.898  0.00  0.00    +0.000 C 
BRANCH  15  16
ATOM     16  N   UNL     1      46.510   4.351  14.803  0.00  0.00    +0.000 N 
ATOM     17  C   UNL     1      47.460   4.390  15.845  0.00  0.00    +0.000 A 
ATOM     18  C   UNL     1      47.463   3.377  16.793  0.00  0.00    +0.000 A 
ATOM     19  C   UNL     1      48.404   3.411  17.831  0.00  0.00    +0.000 A 
ATOM     20  C   UNL     1      49.318   4.464  17.901  0.00  0.00    +0.000 A 
ATOM     21  C   UNL     1      49.232   5.437  16.925  0.00  0.00    +0.000 A 
ATOM     22  N   UNL     1      48.328   5.422  15.919  0.00  0.00    +0.000 NA
ATOM     23  H   UNL     1      46.599   3.459  14.323  0.00  0.00    +0.000 HD
BRANCH  20  24
ATOM     24  C   UNL     1      50.324   4.492  18.984  0.00  0.00    +0.000 C 
ATOM     25  N   UNL     1      49.907   4.513  20.286  0.00  0.00    +0.000 N 
ATOM     26  O   UNL     1      51.524   4.501  18.729  0.00  0.00    +0.000 OA
ATOM     27  H   UNL     1      48.953   4.522  20.608  0.00  0.00    +0.000 HD
ATOM     28  H   UNL     1      50.633   4.539  20.991  0.00  0.00    +0.000 HD
ENDBRANCH  20  24
ENDBRANCH  15  16
ENDBRANCH   1  15
TORSDOF 4
ENDMDL
MODEL 3
REMARK VINA RESULT:    -7.710      3.006      7.649
REMARK INTER + INTRA:         -10.192
REMARK INTER:                  -9.914
REMARK INTRA:                  -0.278
REMARK UNBOUND:                -0.678
REMARK  Name = 
REMARK  5 active torsions:
REMARK  status: ('A' for Active; 'I' for Inactive)
REMARK    1  A    between atoms: C_1  and  N_2
REMARK    2  A    between atoms: C_8  and  C_9
REMARK    3  A    between atoms: C_9  and  C_10
REMARK    4  A    between atoms: C_10  and  N_11
REMARK    5  A    between atoms: C_15  and  C_16
REMARK                            x       y       z     vdW  Elec       q    Type
REMARK                         _______ _______ _______ _____ _____    ______ ____
ROOT
ATOM      1  C   UNL     1      45.845   7.172  12.589  0.00  0.00    +0.000 C 
ENDROOT
BRANCH   1   9
ATOM      2  C   UNL     1      47.507   1.410   6.608  0.00  0.00    +0.000 C 
ATOM      3  N   UNL     1      46.348   2.117   7.149  0.00  0.00    +0.000 NA
ATOM      4  C   UNL     1      45.859   1.446   8.383  0.00  0.00    +0.000 C 
ATOM      5  C   UNL     1      44.716   2.222   9.094  0.00  0.00    +0.000 C 
ATOM      6  N   UNL     1      45.216   3.570   9.367  0.00  0.00    +0.000 N 
ATOM      7  C   UNL     1      44.666   4.293  10.408  0.00  0.00    +0.000 A 
ATOM      8  C   UNL     1      45.425   5.333  10.955  0.00  0.00    +0.000 A 
ATOM      9  C   UNL     1      44.964   6.068  12.048  0.00  0.00    +0.000 A 
ATOM     10  C   UNL     1      43.719   5.718  12.567  0.00  0.00    +0.000 A 
ATOM     11  C   UNL     1      43.024   4.669  11.981  0.00  0.00    +0.000 A 
ATOM     12  N   UNL     1      43.475   3.952  10.929  0.00  0.00    +0.000 NA
ATOM     13  C   UNL     1      45.569   4.298   8.143  0.00  0.00    +0.000 C 
ATOM     14  C   UNL     1      46.706   3.526   7.444  0.00  0.00    +0.000 C 
ENDBRANCH   1   9
BRANCH   1  15
ATOM     15  C   UNL     1      47.341   6.893  12.487  0.00  0.00    +0.000 C 
BRANCH  15  16
ATOM     16  N   UNL     1      48.059   7.275  13.705  0.00  0.00    +0.000 N 
ATOM     17  C   UNL     1      47.991   6.255  14.677  0.00  0.00    +0.000 A 
ATOM     18  C   UNL     1      48.608   6.450  15.904  0.00  0.00    +0.000 A 
ATOM     19  C   UNL     1      48.545   5.440  16.873  0.00  0.00    +0.000 A 
ATOM     20  C   UNL     1      47.868   4.252  16.590  0.00  0.00    +0.000 A 
ATOM     21  C   UNL     1      47.297   4.137  15.338  0.00  0.00    +0.000 A 
ATOM     22  N   UNL     1      47.353   5.100  14.389  0.00  0.00    +0.000 NA
ATOM     23  H   UNL     1      47.699   8.133  14.116  0.00  0.00    +0.000 HD
BRANCH  20  24
ATOM     24  C   UNL     1      47.783   3.193  17.618  0.00  0.00    +0.000 C 
ATOM     25  N   UNL     1      48.844   2.983  18.453  0.00  0.00    +0.000 N 
ATOM     26  O   UNL     1      46.777   2.499  17.726  0.00  0.00    +0.000 OA
ATOM     27  H   UNL     1      49.720   3.480  18.445  0.00  0.00    +0.000 HD
ATOM     28  H   UNL     1      48.741   2.242  19.135  0.00  0.00    +0.000 HD
ENDBRANCH  20  24
ENDBRANCH  15  16
ENDBRANCH   1  15
TORSDOF 4
ENDMDL
MODEL 4
REMARK VINA RESULT:    -7.169      1.890      2.875
REMARK INTER + INTRA:          -9.524
REMARK INTER:                  -9.143
REMARK INTRA:                  -0.381
REMARK UNBOUND:                -0.678
REMARK  Name = 
REMARK  5 active torsions:
REMARK  status: ('A' for Active; 'I' for Inactive)
REMARK    1  A    between atoms: C_1  and  N_2
REMARK    2  A    between atoms: C_8  and  C_9
REMARK    3  A    between atoms: C_9  and  C_10
REMARK    4  A    between atoms: C_10  and  N_11
REMARK    5  A    between atoms: C_15  and  C_16
REMARK                            x       y       z     vdW  Elec       q    Type
REMARK                         _______ _______ _______ _____ _____    ______ ____
ROOT
ATOM      1  C   UNL     1      44.203   5.769  12.056  0.00  0.00    +0.000 C 
ENDROOT
BRANCH   1   9
ATOM      2  C   UNL     1      51.947   8.294  14.377  0.00  0.00    +0.000 C 
ATOM      3  N   UNL     1      50.601   8.855  14.281  0.00  0.00    +0.000 NA
ATOM      4  C   UNL     1      50.318   9.289  12.887  0.00  0.00    +0.000 C 
ATOM      5  C   UNL     1      48.854   9.766  12.676  0.00  0.00    +0.000 C 
ATOM      6  N   UNL     1      47.980   8.669  13.094  0.00  0.00    +0.000 N 
ATOM      7  C   UNL     1      46.710   8.580  12.557  0.00  0.00    +0.000 A 
ATOM      8  C   UNL     1      46.077   7.333  12.578  0.00  0.00    +0.000 A 
ATOM      9  C   UNL     1      44.820   7.150  12.000  0.00  0.00    +0.000 A 
ATOM     10  C   UNL     1      44.229   8.261  11.402  0.00  0.00    +0.000 A 
ATOM     11  C   UNL     1      44.918   9.465  11.409  0.00  0.00    +0.000 A 
ATOM     12  N   UNL     1      46.139   9.641  11.961  0.00  0.00    +0.000 NA
ATOM     13  C   UNL     1      48.148   8.324  14.510  0.00  0.00    +0.000 C 
ATOM     14  C   UNL     1      49.601   7.848  14.712  0.00  0.00    +0.000 C 
ENDBRANCH   1   9
BRANCH   1  15
ATOM     15  C   UNL     1      43.681   5.255  10.719  0.00  0.00    +0.000 C 
BRANCH  15  16
ATOM     16  N   UNL     1      43.822   3.803  10.590  0.00  0.00    +0.000 N 
ATOM     17  C   UNL     1      44.732   3.469   9.566  0.00  0.00    +0.000 A 
ATOM     18  C   UNL     1      44.981   2.131   9.294  0.00  0.00    +0.000 A 
ATOM     19  C   UNL     1      45.885   1.793   8.278  0.00  0.00    +0.000 A 
ATOM     20  C   UNL     1      46.525   2.804   7.558  0.00  0.00    +0.000 A 
ATOM     21  C   UNL     1      46.231   4.107   7.907  0.00  0.00    +0.000 A 
ATOM     22  N   UNL     1      45.365   4.451   8.887  0.00  0.00    +0.000 NA
ATOM     23  H   UNL     1      42.937   3.342  10.394  0.00  0.00    +0.000 HD
BRANCH  20  24
ATOM     24  C   UNL     1      47.465   2.449   6.473  0.00  0.00    +0.000 C 
ATOM     25  N   UNL     1      47.378   3.097   5.273  0.00  0.00    +0.000 N 
ATOM     26  O   UNL     1      48.314   1.579   6.635  0.00  0.00    +0.000 OA
ATOM     27  H   UNL     1      46.715   3.814   5.026  0.00  0.00    +0.000 HD
ATOM     28  H   UNL     1      48.038   2.814   4.560  0.00  0.00    +0.000 HD
ENDBRANCH  20  24
ENDBRANCH  15  16
ENDBRANCH   1  15
TORSDOF 4
ENDMDL
MODEL 5
REMARK VINA RESULT:    -6.994      3.450      7.756
REMARK INTER + INTRA:          -9.308
REMARK INTER:                  -8.639
REMARK INTRA:                  -0.669
REMARK UNBOUND:                -0.678
REMARK  Name = 
REMARK  5 active torsions:
REMARK  status: ('A' for Active; 'I' for Inactive)
REMARK    1  A    between atoms: C_1  and  N_2
REMARK    2  A    between atoms: C_8  and  C_9
REMARK    3  A    between atoms: C_9  and  C_10
REMARK    4  A    between atoms: C_10  and  N_11
REMARK    5  A    between atoms: C_15  and  C_16
REMARK                            x       y       z     vdW  Elec       q    Type
REMARK                         _______ _______ _______ _____ _____    ______ ____
ROOT
ATOM      1  C   UNL     1      48.405   9.101  13.123  0.00  0.00    +0.000 C 
ENDROOT
BRANCH   1   9
ATOM      2  C   UNL     1      43.252   2.521  11.751  0.00  0.00    +0.000 C 
ATOM      3  N   UNL     1      43.545   3.820  11.150  0.00  0.00    +0.000 NA
ATOM      4  C   UNL     1      42.815   4.901  11.866  0.00  0.00    +0.000 C 
ATOM      5  C   UNL     1      43.186   6.327  11.373  0.00  0.00    +0.000 C 
ATOM      6  N   UNL     1      44.637   6.464  11.510  0.00  0.00    +0.000 N 
ATOM      7  C   UNL     1      45.182   7.726  11.655  0.00  0.00    +0.000 A 
ATOM      8  C   UNL     1      46.448   7.829  12.241  0.00  0.00    +0.000 A 
ATOM      9  C   UNL     1      47.036   9.071  12.478  0.00  0.00    +0.000 A 
ATOM     10  C   UNL     1      46.308  10.199  12.106  0.00  0.00    +0.000 A 
ATOM     11  C   UNL     1      45.054  10.024  11.538  0.00  0.00    +0.000 A 
ATOM     12  N   UNL     1      44.479   8.821  11.317  0.00  0.00    +0.000 NA
ATOM     13  C   UNL     1      45.374   5.493  10.694  0.00  0.00    +0.000 C 
ATOM     14  C   UNL     1      45.004   4.080  11.190  0.00  0.00    +0.000 C 
ENDBRANCH   1   9
BRANCH   1  15
ATOM     15  C   UNL     1      49.064   7.734  13.270  0.00  0.00    +0.000 C 
BRANCH  15  16
ATOM     16  N   UNL     1      49.799   7.606  14.530  0.00  0.00    +0.000 N 
ATOM     17  C   UNL     1      49.252   6.586  15.337  0.00  0.00    +0.000 A 
ATOM     18  C   UNL     1      49.818   6.333  16.579  0.00  0.00    +0.000 A 
ATOM     19  C   UNL     1      49.280   5.320  17.384  0.00  0.00    +0.000 A 
ATOM     20  C   UNL     1      48.189   4.578  16.926  0.00  0.00    +0.000 A 
ATOM     21  C   UNL     1      47.701   4.888  15.672  0.00  0.00    +0.000 A 
ATOM     22  N   UNL     1      48.210   5.858  14.880  0.00  0.00    +0.000 NA
ATOM     23  H   UNL     1      49.803   8.470  15.067  0.00  0.00    +0.000 HD
BRANCH  20  24
ATOM     24  C   UNL     1      47.608   3.523  17.783  0.00  0.00    +0.000 C 
ATOM     25  N   UNL     1      48.220   3.204  18.962  0.00  0.00    +0.000 N 
ATOM     26  O   UNL     1      46.589   2.928  17.445  0.00  0.00    +0.000 OA
ATOM     27  H   UNL     1      49.063   3.615  19.329  0.00  0.00    +0.000 HD
ATOM     28  H   UNL     1      47.788   2.470  19.510  0.00  0.00    +0.000 HD
ENDBRANCH  20  24
ENDBRANCH  15  16
ENDBRANCH   1  15
TORSDOF 4
ENDMDL
MODEL 6
REMARK VINA RESULT:    -6.175      3.685      7.821
REMARK INTER + INTRA:          -8.298
REMARK INTER:                  -7.533
REMARK INTRA:                  -0.764
REMARK UNBOUND:                -0.678
REMARK  Name = 
REMARK  5 active torsions:
REMARK  status: ('A' for Active; 'I' for Inactive)
REMARK    1  A    between atoms: C_1  and  N_2
REMARK    2  A    between atoms: C_8  and  C_9
REMARK    3  A    between atoms: C_9  and  C_10
REMARK    4  A    between atoms: C_10  and  N_11
REMARK    5  A    between atoms: C_15  and  C_16
REMARK                            x       y       z     vdW  Elec       q    Type
REMARK                         _______ _______ _______ _____ _____    ______ ____
ROOT
ATOM      1  C   UNL     1      48.249   9.453  17.156  0.00  0.00    +0.000 C 
ENDROOT
BRANCH   1   9
ATOM      2  C   UNL     1      44.176   4.689  11.460  0.00  0.00    +0.000 C 
ATOM      3  N   UNL     1      45.552   5.043  11.800  0.00  0.00    +0.000 NA
ATOM      4  C   UNL     1      45.914   6.357  11.203  0.00  0.00    +0.000 C 
ATOM      5  C   UNL     1      47.315   6.867  11.640  0.00  0.00    +0.000 C 
ATOM      6  N   UNL     1      47.321   6.911  13.102  0.00  0.00    +0.000 N 
ATOM      7  C   UNL     1      48.181   7.780  13.745  0.00  0.00    +0.000 A 
ATOM      8  C   UNL     1      47.869   8.163  15.054  0.00  0.00    +0.000 A 
ATOM      9  C   UNL     1      48.656   9.084  15.746  0.00  0.00    +0.000 A 
ATOM     10  C   UNL     1      49.760   9.605  15.075  0.00  0.00    +0.000 A 
ATOM     11  C   UNL     1      50.005   9.190  13.774  0.00  0.00    +0.000 A 
ATOM     12  N   UNL     1      49.239   8.304  13.100  0.00  0.00    +0.000 NA
ATOM     13  C   UNL     1      47.107   5.592  13.707  0.00  0.00    +0.000 C 
ATOM     14  C   UNL     1      45.713   5.093  13.274  0.00  0.00    +0.000 C 
ENDBRANCH   1   9
BRANCH   1  15
ATOM     15  C   UNL     1      48.675   8.446  18.220  0.00  0.00    +0.000 C 
BRANCH  15  16
ATOM     16  N   UNL     1      47.691   7.375  18.393  0.00  0.00    +0.000 N 
ATOM     17  C   UNL     1      48.241   6.120  18.058  0.00  0.00    +0.000 A 
ATOM     18  C   UNL     1      47.444   4.988  18.151  0.00  0.00    +0.000 A 
ATOM     19  C   UNL     1      47.986   3.738  17.821  0.00  0.00    +0.000 A 
ATOM     20  C   UNL     1      49.317   3.649  17.409  0.00  0.00    +0.000 A 
ATOM     21  C   UNL     1      50.041   4.824  17.362  0.00  0.00    +0.000 A 
ATOM     22  N   UNL     1      49.536   6.037  17.681  0.00  0.00    +0.000 NA
ATOM     23  H   UNL     1      46.857   7.519  17.829  0.00  0.00    +0.000 HD
BRANCH  20  24
ATOM     24  C   UNL     1      49.884   2.333  17.042  0.00  0.00    +0.000 C 
ATOM     25  N   UNL     1      50.875   1.792  17.812  0.00  0.00    +0.000 N 
ATOM     26  O   UNL     1      49.481   1.727  16.055  0.00  0.00    +0.000 OA
ATOM     27  H   UNL     1      51.290   2.206  18.631  0.00  0.00    +0.000 HD
ATOM     28  H   UNL     1      51.236   0.894  17.516  0.00  0.00    +0.000 HD
ENDBRANCH  20  24
ENDBRANCH  15  16
ENDBRANCH   1  15
TORSDOF 4
ENDMDL
MODEL 7
REMARK VINA RESULT:    -5.993      4.807      8.289
REMARK INTER + INTRA:          -8.073
REMARK INTER:                  -7.667
REMARK INTRA:                  -0.405
REMARK UNBOUND:                -0.678
REMARK  Name = 
REMARK  5 active torsions:
REMARK  status: ('A' for Active; 'I' for Inactive)
REMARK    1  A    between atoms: C_1  and  N_2
REMARK    2  A    between atoms: C_8  and  C_9
REMARK    3  A    between atoms: C_9  and  C_10
REMARK    4  A    between atoms: C_10  and  N_11
REMARK    5  A    between atoms: C_15  and  C_16
REMARK                            x       y       z     vdW  Elec       q    Type
REMARK                         _______ _______ _______ _____ _____    ______ ____
ROOT
ATOM      1  C   UNL     1      49.063   7.167  16.935  0.00  0.00    +0.000 C 
ENDROOT
BRANCH   1   9
ATOM      2  C   UNL     1      42.751   5.058  11.696  0.00  0.00    +0.000 C 
ATOM      3  N   UNL     1      44.212   5.010  11.718  0.00  0.00    +0.000 NA
ATOM      4  C   UNL     1      44.780   6.329  11.329  0.00  0.00    +0.000 C 
ATOM      5  C   UNL     1      46.327   6.398  11.466  0.00  0.00    +0.000 C 
ATOM      6  N   UNL     1      46.652   6.050  12.850  0.00  0.00    +0.000 N 
ATOM      7  C   UNL     1      47.830   6.515  13.401  0.00  0.00    +0.000 A 
ATOM      8  C   UNL     1      47.916   6.592  14.795  0.00  0.00    +0.000 A 
ATOM      9  C   UNL     1      49.049   7.110  15.423  0.00  0.00    +0.000 A 
ATOM     10  C   UNL     1      50.086   7.546  14.601  0.00  0.00    +0.000 A 
ATOM     11  C   UNL     1      49.930   7.449  13.226  0.00  0.00    +0.000 A 
ATOM     12  N   UNL     1      48.829   6.957  12.617  0.00  0.00    +0.000 NA
ATOM     13  C   UNL     1      46.222   4.693  13.205  0.00  0.00    +0.000 C 
ATOM     14  C   UNL     1      44.686   4.632  13.071  0.00  0.00    +0.000 C 
ENDBRANCH   1   9
BRANCH   1  15
ATOM     15  C   UNL     1      49.861   6.051  17.602  0.00  0.00    +0.000 C 
BRANCH  15  16
ATOM     16  N   UNL     1      49.286   4.730  17.345  0.00  0.00    +0.000 N 
ATOM     17  C   UNL     1      50.268   3.721  17.437  0.00  0.00    +0.000 A 
ATOM     18  C   UNL     1      49.903   2.401  17.209  0.00  0.00    +0.000 A 
ATOM     19  C   UNL     1      50.874   1.395  17.300  0.00  0.00    +0.000 A 
ATOM     20  C   UNL     1      52.190   1.732  17.622  0.00  0.00    +0.000 A 
ATOM     21  C   UNL     1      52.460   3.067  17.848  0.00  0.00    +0.000 A 
ATOM     22  N   UNL     1      51.535   4.050  17.769  0.00  0.00    +0.000 NA
ATOM     23  H   UNL     1      48.849   4.667  16.429  0.00  0.00    +0.000 HD
BRANCH  20  24
ATOM     24  C   UNL     1      53.220   0.673  17.699  0.00  0.00    +0.000 C 
ATOM     25  N   UNL     1      52.994  -0.427  18.478  0.00  0.00    +0.000 N 
ATOM     26  O   UNL     1      54.274   0.774  17.079  0.00  0.00    +0.000 OA
ATOM     27  H   UNL     1      52.176  -0.606  19.038  0.00  0.00    +0.000 HD
ATOM     28  H   UNL     1      53.731  -1.120  18.504  0.00  0.00    +0.000 HD
ENDBRANCH  20  24
ENDBRANCH  15  16
ENDBRANCH   1  15
TORSDOF 4
ENDMDL
MODEL 8
REMARK VINA RESULT:    -5.988      4.264      6.510
REMARK INTER + INTRA:          -8.066
REMARK INTER:                  -7.709
REMARK INTRA:                  -0.357
REMARK UNBOUND:                -0.678
REMARK  Name = 
REMARK  5 active torsions:
REMARK  status: ('A' for Active; 'I' for Inactive)
REMARK    1  A    between atoms: C_1  and  N_2
REMARK    2  A    between atoms: C_8  and  C_9
REMARK    3  A    between atoms: C_9  and  C_10
REMARK    4  A    between atoms: C_10  and  N_11
REMARK    5  A    between atoms: C_15  and  C_16
REMARK                            x       y       z     vdW  Elec       q    Type
REMARK                         _______ _______ _______ _____ _____    ______ ____
ROOT
ATOM      1  C   UNL     1      48.475   7.676  15.254  0.00  0.00    +0.000 C 
ENDROOT
BRANCH   1   9
ATOM      2  C   UNL     1      52.819   0.693  17.278  0.00  0.00    +0.000 C 
ATOM      3  N   UNL     1      51.988   1.692  17.947  0.00  0.00    +0.000 NA
ATOM      4  C   UNL     1      52.790   2.904  18.267  0.00  0.00    +0.000 C 
ATOM      5  C   UNL     1      51.942   4.067  18.852  0.00  0.00    +0.000 C 
ATOM      6  N   UNL     1      50.881   4.354  17.886  0.00  0.00    +0.000 N 
ATOM      7  C   UNL     1      50.319   5.615  17.860  0.00  0.00    +0.000 A 
ATOM      8  C   UNL     1      49.681   6.024  16.684  0.00  0.00    +0.000 A 
ATOM      9  C   UNL     1      49.143   7.306  16.561  0.00  0.00    +0.000 A 
ATOM     10  C   UNL     1      49.273   8.156  17.657  0.00  0.00    +0.000 A 
ATOM     11  C   UNL     1      49.926   7.688  18.788  0.00  0.00    +0.000 A 
ATOM     12  N   UNL     1      50.454   6.450  18.905  0.00  0.00    +0.000 NA
ATOM     13  C   UNL     1      49.993   3.206  17.668  0.00  0.00    +0.000 C 
ATOM     14  C   UNL     1      50.840   2.057  17.083  0.00  0.00    +0.000 C 
ENDBRANCH   1   9
BRANCH   1  15
ATOM     15  C   UNL     1      48.194   6.495  14.331  0.00  0.00    +0.000 C 
BRANCH  15  16
ATOM     16  N   UNL     1      47.637   6.919  13.045  0.00  0.00    +0.000 N 
ATOM     17  C   UNL     1      46.769   5.939  12.519  0.00  0.00    +0.000 A 
ATOM     18  C   UNL     1      46.158   6.167  11.294  0.00  0.00    +0.000 A 
ATOM     19  C   UNL     1      45.295   5.197  10.767  0.00  0.00    +0.000 A 
ATOM     20  C   UNL     1      45.057   4.021  11.481  0.00  0.00    +0.000 A 
ATOM     21  C   UNL     1      45.695   3.885  12.698  0.00  0.00    +0.000 A 
ATOM     22  N   UNL     1      46.527   4.812  13.224  0.00  0.00    +0.000 NA
ATOM     23  H   UNL     1      48.358   7.112  12.354  0.00  0.00    +0.000 HD
BRANCH  20  24
ATOM     24  C   UNL     1      44.161   2.989  10.917  0.00  0.00    +0.000 C 
ATOM     25  N   UNL     1      44.597   2.220   9.875  0.00  0.00    +0.000 N 
ATOM     26  O   UNL     1      43.033   2.819  11.369  0.00  0.00    +0.000 OA
ATOM     27  H   UNL     1      45.493   2.282   9.419  0.00  0.00    +0.000 HD
ATOM     28  H   UNL     1      43.945   1.532   9.519  0.00  0.00    +0.000 HD
ENDBRANCH  20  24
ENDBRANCH  15  16
ENDBRANCH   1  15
TORSDOF 4
ENDMDL
MODEL 9
REMARK VINA RESULT:    -5.891      3.945      8.719
REMARK INTER + INTRA:          -7.947
REMARK INTER:                  -7.643
REMARK INTRA:                  -0.304
REMARK UNBOUND:                -0.678
REMARK  Name = 
REMARK  5 active torsions:
REMARK  status: ('A' for Active; 'I' for Inactive)
REMARK    1  A    between atoms: C_1  and  N_2
REMARK    2  A    between atoms: C_8  and  C_9
REMARK    3  A    between atoms: C_9  and  C_10
REMARK    4  A    between atoms: C_10  and  N_11
REMARK    5  A    between atoms: C_15  and  C_16
REMARK                            x       y       z     vdW  Elec       q    Type
REMARK                         _______ _______ _______ _____ _____    ______ ____
ROOT
ATOM      1  C   UNL     1      47.303   7.606  12.584  0.00  0.00    +0.000 C 
ENDROOT
BRANCH   1   9
ATOM      2  C   UNL     1      46.899   1.472   6.757  0.00  0.00    +0.000 C 
ATOM      3  N   UNL     1      46.001   2.438   7.387  0.00  0.00    +0.000 NA
ATOM      4  C   UNL     1      45.528   1.926   8.702  0.00  0.00    +0.000 C 
ATOM      5  C   UNL     1      44.682   2.960   9.496  0.00  0.00    +0.000 C 
ATOM      6  N   UNL     1      45.499   4.165   9.641  0.00  0.00    +0.000 N 
ATOM      7  C   UNL     1      45.255   5.019  10.699  0.00  0.00    +0.000 A 
ATOM      8  C   UNL     1      46.287   5.872  11.104  0.00  0.00    +0.000 A 
ATOM      9  C   UNL     1      46.138   6.718  12.203  0.00  0.00    +0.000 A 
ATOM     10  C   UNL     1      44.918   6.674  12.876  0.00  0.00    +0.000 A 
ATOM     11  C   UNL     1      43.941   5.798  12.426  0.00  0.00    +0.000 A 
ATOM     12  N   UNL     1      44.089   4.971  11.367  0.00  0.00    +0.000 NA
ATOM     13  C   UNL     1      45.855   4.763   8.350  0.00  0.00    +0.000 C 
ATOM     14  C   UNL     1      46.698   3.735   7.568  0.00  0.00    +0.000 C 
ENDBRANCH   1   9
BRANCH   1  15
ATOM     15  C   UNL     1      48.144   7.081  13.743  0.00  0.00    +0.000 C 
BRANCH  15  16
ATOM     16  N   UNL     1      47.964   7.873  14.961  0.00  0.00    +0.000 N 
ATOM     17  C   UNL     1      48.699   7.330  16.035  0.00  0.00    +0.000 A 
ATOM     18  C   UNL     1      48.636   7.947  17.276  0.00  0.00    +0.000 A 
ATOM     19  C   UNL     1      49.365   7.412  18.347  0.00  0.00    +0.000 A 
ATOM     20  C   UNL     1      50.146   6.272  18.150  0.00  0.00    +0.000 A 
ATOM     21  C   UNL     1      50.163   5.733  16.878  0.00  0.00    +0.000 A 
ATOM     22  N   UNL     1      49.470   6.239  15.833  0.00  0.00    +0.000 NA
ATOM     23  H   UNL     1      46.989   7.938  15.241  0.00  0.00    +0.000 HD
BRANCH  20  24
ATOM     24  C   UNL     1      50.901   5.695  19.283  0.00  0.00    +0.000 C 
ATOM     25  N   UNL     1      50.782   4.362  19.558  0.00  0.00    +0.000 N 
ATOM     26  O   UNL     1      51.626   6.398  19.980  0.00  0.00    +0.000 OA
ATOM     27  H   UNL     1      50.208   3.698  19.064  0.00  0.00    +0.000 HD
ATOM     28  H   UNL     1      51.312   4.016  20.348  0.00  0.00    +0.000 HD
ENDBRANCH  20  24
ENDBRANCH  15  16
ENDBRANCH   1  15
TORSDOF 4
ENDMDL
