MODEL 1
REMARK VINA RESULT:    -7.485      0.000      0.000
REMARK INTER + INTRA:         -10.969
REMARK INTER:                 -10.110
REMARK INTRA:                  -0.858
REMARK UNBOUND:                -0.858
REMARK  Name = 
REMARK  9 active torsions:
REMARK  status: ('A' for Active; 'I' for Inactive)
REMARK    1  A    between atoms: C_1  and  C_2
REMARK    2  A    between atoms: C_2  and  C_3
REMARK    3  A    between atoms: C_2  and  C_4
REMARK    4  A    between atoms: C_2  and  O_5
REMARK    5  A    between atoms: O_5  and  C_6
REMARK    6  A    between atoms: C_6  and  C_7
REMARK    7  A    between atoms: C_10  and  C_11
REMARK    8  A    between atoms: C_11  and  N_12
REMARK    9  A    between atoms: C_17  and  C_18
REMARK                            x       y       z     vdW  Elec       q    Type
REMARK                         _______ _______ _______ _____ _____    ______ ____
ROOT
ATOM      1  N   UNL     1      44.375   4.490  10.585  0.00  0.00    +0.000 N 
ATOM      2  C   UNL     1      43.748   3.322  10.954  0.00  0.00    +0.000 A 
ATOM      3  C   UNL     1      44.139   2.332  10.085  0.00  0.00    +0.000 A 
ATOM      4  C   UNL     1      45.033   2.911   9.146  0.00  0.00    +0.000 A 
ATOM      5  C   UNL     1      45.721   2.412   8.032  0.00  0.00    +0.000 A 
ATOM      6  C   UNL     1      46.512   3.316   7.339  0.00  0.00    +0.000 A 
ATOM      7  N   UNL     1      46.673   4.628   7.674  0.00  0.00    +0.000 NA
ATOM      8  C   UNL     1      46.013   5.107   8.752  0.00  0.00    +0.000 A 
ATOM      9  C   UNL     1      45.182   4.260   9.485  0.00  0.00    +0.000 A 
ENDROOT
BRANCH   6  10
ATOM     10  C   UNL     1      47.244   2.849   6.116  0.00  0.00    +0.000 C 
ATOM     11  N   UNL     1      48.536   2.446   6.320  0.00  0.00    +0.000 N 
ATOM     12  O   UNL     1      46.736   2.831   5.002  0.00  0.00    +0.000 OA
ATOM     13  H   UNL     1      48.931   2.488   7.253  0.00  0.00    +0.000 HD
ATOM     14  H   UNL     1      49.092   2.139   5.537  0.00  0.00    +0.000 HD
ENDBRANCH   6  10
BRANCH   1  15
ATOM     15  C   UNL     1      44.104   5.786  11.201  0.00  0.00    +0.000 C 
BRANCH  15  19
ATOM     16  C   UNL     1      47.450   7.189  13.562  0.00  0.00    +0.000 A 
ATOM     17  C   UNL     1      46.546   8.099  12.998  0.00  0.00    +0.000 A 
ATOM     18  C   UNL     1      45.465   7.649  12.237  0.00  0.00    +0.000 A 
ATOM     19  C   UNL     1      45.264   6.279  12.026  0.00  0.00    +0.000 A 
ATOM     20  C   UNL     1      46.165   5.368  12.597  0.00  0.00    +0.000 A 
ATOM     21  C   UNL     1      47.246   5.820  13.358  0.00  0.00    +0.000 A 
BRANCH  16  22
ATOM     22  C   UNL     1      48.663   7.679  14.313  0.00  0.00    +0.000 C 
BRANCH  22  23
ATOM     23  O   UNL     1      49.377   6.574  14.860  0.00  0.00    +0.000 OA
BRANCH  23  25
ATOM     24  C   UNL     1      48.538   5.294  16.779  0.00  0.00    +0.000 C 
ATOM     25  C   UNL     1      49.390   6.472  16.294  0.00  0.00    +0.000 C 
ATOM     26  C   UNL     1      48.945   7.782  16.959  0.00  0.00    +0.000 C 
ATOM     27  C   UNL     1      50.852   6.204  16.680  0.00  0.00    +0.000 C 
ENDBRANCH  23  25
ENDBRANCH  22  23
ENDBRANCH  16  22
ENDBRANCH  15  19
ENDBRANCH   1  15
TORSDOF 6
ENDMDL
MODEL 2
REMARK VINA RESULT:    -7.417      1.873      2.328
REMARK INTER + INTRA:         -10.877
REMARK INTER:                  -9.867
REMARK INTRA:                  -1.010
REMARK UNBOUND:                -0.858
REMARK  Name = 
REMARK  9 active torsions:
REMARK  status: ('A' for Active; 'I' for Inactive)
REMARK    1  A    between atoms: C_1  and  C_2
REMARK    2  A    between atoms: C_2  and  C_3
REMARK    3  A    between atoms: C_2  and  C_4
REMARK    4  A    between atoms: C_2  and  O_5
REMARK    5  A    between atoms: O_5  and  C_6
REMARK    6  A    between atoms: C_6  and  C_7
REMARK    7  A    between atoms: C_10  and  C_11
REMARK    8  A    between atoms: C_11  and  N_12
REMARK    9  A    between atoms: C_17  and  C_18
REMARK                            x       y       z     vdW  Elec       q    Type
REMARK                         _______ _______ _______ _____ _____    ______ ____
ROOT
ATOM      1  N   UNL     1      44.041   4.359  10.613  0.00  0.00    +0.000 N 
ATOM      2  C   UNL     1      43.559   3.198  11.173  0.00  0.00    +0.000 A 
ATOM      3  C   UNL     1      44.111   2.135  10.500  0.00  0.00    +0.000 A 
ATOM      4  C   UNL     1      44.960   2.658   9.488  0.00  0.00    +0.000 A 
ATOM      5  C   UNL     1      45.752   2.073   8.493  0.00  0.00    +0.000 A 
ATOM      6  C   UNL     1      46.445   2.941   7.664  0.00  0.00    +0.000 A 
ATOM      7  N   UNL     1      46.419   4.301   7.763  0.00  0.00    +0.000 NA
ATOM      8  C   UNL     1      45.657   4.865   8.728  0.00  0.00    +0.000 A 
ATOM      9  C   UNL     1      44.916   4.053   9.585  0.00  0.00    +0.000 A 
ENDROOT
BRANCH   6  10
ATOM     10  C   UNL     1      47.281   2.373   6.556  0.00  0.00    +0.000 C 
ATOM     11  N   UNL     1      47.306   3.107   5.401  0.00  0.00    +0.000 N 
ATOM     12  O   UNL     1      47.898   1.321   6.659  0.00  0.00    +0.000 OA
ATOM     13  H   UNL     1      46.770   3.967   5.344  0.00  0.00    +0.000 HD
ATOM     14  H   UNL     1      47.831   2.774   4.609  0.00  0.00    +0.000 HD
ENDBRANCH   6  10
BRANCH   1  15
ATOM     15  C   UNL     1      43.578   5.693  10.984  0.00  0.00    +0.000 C 
BRANCH  15  19
ATOM     16  C   UNL     1      46.650   7.968  13.015  0.00  0.00    +0.000 A 
ATOM     17  C   UNL     1      45.749   8.603  12.151  0.00  0.00    +0.000 A 
ATOM     18  C   UNL     1      44.757   7.872  11.495  0.00  0.00    +0.000 A 
ATOM     19  C   UNL     1      44.642   6.490  11.693  0.00  0.00    +0.000 A 
ATOM     20  C   UNL     1      45.539   5.856  12.565  0.00  0.00    +0.000 A 
ATOM     21  C   UNL     1      46.532   6.588  13.219  0.00  0.00    +0.000 A 
BRANCH  16  22
ATOM     22  C   UNL     1      47.773   8.744  13.657  0.00  0.00    +0.000 C 
BRANCH  22  23
ATOM     23  O   UNL     1      49.004   8.042  13.499  0.00  0.00    +0.000 OA
BRANCH  23  25
ATOM     24  C   UNL     1      51.345   8.721  13.213  0.00  0.00    +0.000 C 
ATOM     25  C   UNL     1      49.951   8.618  12.584  0.00  0.00    +0.000 C 
ATOM     26  C   UNL     1      49.479   9.983  12.066  0.00  0.00    +0.000 C 
ATOM     27  C   UNL     1      50.026   7.647  11.396  0.00  0.00    +0.000 C 
ENDBRANCH  23  25
ENDBRANCH  22  23
ENDBRANCH  16  22
ENDBRANCH  15  19
ENDBRANCH   1  15
TORSDOF 6
ENDMDL
MODEL 3
REMARK VINA RESULT:    -6.267      4.858      9.060
REMARK INTER + INTRA:          -9.323
REMARK INTER:                  -8.372
REMARK INTRA:                  -0.951
REMARK UNBOUND:                -0.858
REMARK  Name = 
REMARK  9 active torsions:
REMARK  status: ('A' for Active; 'I' for Inactive)
REMARK    1  A    between atoms: C_1  and  C_2
REMARK    2  A    between atoms: C_2  and  C_3
REMARK    3  A    between atoms: C_2  and  C_4
REMARK    4  A    between atoms: C_2  and  O_5
REMARK    5  A    between atoms: O_5  and  C_6
REMARK    6  A    between atoms: C_6  and  C_7
REMARK    7  A    between atoms: C_10  and  C_11
REMARK    8  A    between atoms: C_11  and  N_12
REMARK    9  A    between atoms: C_17  and  C_18
REMARK                            x       y       z     vdW  Elec       q    Type
REMARK                         _______ _______ _______ _____ _____    ______ ____
ROOT
ATOM      1  N   UNL     1      50.039   4.714  17.864  0.00  0.00    +0.000 N 
ATOM      2  C   UNL     1      50.925   5.702  18.228  0.00  0.00    +0.000 A 
ATOM      3  C   UNL     1      52.177   5.144  18.318  0.00  0.00    +0.000 A 
ATOM      4  C   UNL     1      52.059   3.764  18.003  0.00  0.00    +0.000 A 
ATOM      5  C   UNL     1      52.971   2.702  17.955  0.00  0.00    +0.000 A 
ATOM      6  C   UNL     1      52.457   1.462  17.607  0.00  0.00    +0.000 A 
ATOM      7  N   UNL     1      51.151   1.217  17.301  0.00  0.00    +0.000 NA
ATOM      8  C   UNL     1      50.273   2.244  17.343  0.00  0.00    +0.000 A 
ATOM      9  C   UNL     1      50.715   3.516  17.705  0.00  0.00    +0.000 A 
ENDROOT
BRANCH   6  10
ATOM     10  C   UNL     1      53.379   0.279  17.575  0.00  0.00    +0.000 C 
ATOM     11  N   UNL     1      53.091  -0.717  18.468  0.00  0.00    +0.000 N 
ATOM     12  O   UNL     1      54.334   0.200  16.813  0.00  0.00    +0.000 OA
ATOM     13  H   UNL     1      52.301  -0.611  19.097  0.00  0.00    +0.000 HD
ATOM     14  H   UNL     1      53.682  -1.532  18.514  0.00  0.00    +0.000 HD
ENDBRANCH   6  10
BRANCH   1  15
ATOM     15  C   UNL     1      48.593   4.904  17.794  0.00  0.00    +0.000 C 
BRANCH  15  19
ATOM     16  C   UNL     1      47.202   5.580  13.752  0.00  0.00    +0.000 A 
ATOM     17  C   UNL     1      48.098   6.473  14.354  0.00  0.00    +0.000 A 
ATOM     18  C   UNL     1      48.549   6.256  15.657  0.00  0.00    +0.000 A 
ATOM     19  C   UNL     1      48.116   5.141  16.385  0.00  0.00    +0.000 A 
ATOM     20  C   UNL     1      47.225   4.243  15.779  0.00  0.00    +0.000 A 
ATOM     21  C   UNL     1      46.774   4.461  14.475  0.00  0.00    +0.000 A 
BRANCH  16  22
ATOM     22  C   UNL     1      46.651   5.859  12.376  0.00  0.00    +0.000 C 
BRANCH  22  23
ATOM     23  O   UNL     1      45.682   4.873  12.029  0.00  0.00    +0.000 OA
BRANCH  23  25
ATOM     24  C   UNL     1      43.414   5.171  12.920  0.00  0.00    +0.000 C 
ATOM     25  C   UNL     1      44.362   5.357  11.730  0.00  0.00    +0.000 C 
ATOM     26  C   UNL     1      43.791   4.701  10.465  0.00  0.00    +0.000 C 
ATOM     27  C   UNL     1      44.519   6.862  11.466  0.00  0.00    +0.000 C 
ENDBRANCH  23  25
ENDBRANCH  22  23
ENDBRANCH  16  22
ENDBRANCH  15  19
ENDBRANCH   1  15
TORSDOF 6
ENDMDL
MODEL 4
REMARK VINA RESULT:    -6.146      2.742      7.828
REMARK INTER + INTRA:          -9.159
REMARK INTER:                  -8.399
REMARK INTRA:                  -0.760
REMARK UNBOUND:                -0.858
REMARK  Name = 
REMARK  9 active torsions:
REMARK  status: ('A' for Active; 'I' for Inactive)
REMARK    1  A    between atoms: C_1  and  C_2
REMARK    2  A    between atoms: C_2  and  C_3
REMARK    3  A    between atoms: C_2  and  C_4
REMARK    4  A    between atoms: C_2  and  O_5
REMARK    5  A    between atoms: O_5  and  C_6
REMARK    6  A    between atoms: C_6  and  C_7
REMARK    7  A    between atoms: C_10  and  C_11
REMARK    8  A    between atoms: C_11  and  N_12
REMARK    9  A    between atoms: C_17  and  C_18
REMARK                            x       y       z     vdW  Elec       q    Type
REMARK                         _______ _______ _______ _____ _____    ______ ____
ROOT
ATOM      1  N   UNL     1      45.234   6.947  12.851  0.00  0.00    +0.000 N 
ATOM      2  C   UNL     1      44.790   8.200  12.494  0.00  0.00    +0.000 A 
ATOM      3  C   UNL     1      45.835   9.081  12.636  0.00  0.00    +0.000 A 
ATOM      4  C   UNL     1      46.959   8.348  13.100  0.00  0.00    +0.000 A 
ATOM      5  C   UNL     1      48.269   8.703  13.445  0.00  0.00    +0.000 A 
ATOM      6  C   UNL     1      49.093   7.677  13.880  0.00  0.00    +0.000 A 
ATOM      7  N   UNL     1      48.723   6.368  13.977  0.00  0.00    +0.000 NA
ATOM      8  C   UNL     1      47.459   6.026  13.640  0.00  0.00    +0.000 A 
ATOM      9  C   UNL     1      46.568   7.010  13.213  0.00  0.00    +0.000 A 
ENDROOT
BRANCH   6  10
ATOM     10  C   UNL     1      50.497   8.002  14.298  0.00  0.00    +0.000 C 
ATOM     11  N   UNL     1      51.060   7.135  15.195  0.00  0.00    +0.000 N 
ATOM     12  O   UNL     1      51.107   8.977  13.880  0.00  0.00    +0.000 OA
ATOM     13  H   UNL     1      50.520   6.345  15.533  0.00  0.00    +0.000 HD
ATOM     14  H   UNL     1      51.993   7.305  15.534  0.00  0.00    +0.000 HD
ENDBRANCH   6  10
BRANCH   1  15
ATOM     15  C   UNL     1      44.367   5.776  12.948  0.00  0.00    +0.000 C 
BRANCH  15  19
ATOM     16  C   UNL     1      44.708   3.213   9.477  0.00  0.00    +0.000 A 
ATOM     17  C   UNL     1      44.150   2.728  10.667  0.00  0.00    +0.000 A 
ATOM     18  C   UNL     1      44.038   3.553  11.788  0.00  0.00    +0.000 A 
ATOM     19  C   UNL     1      44.479   4.882  11.741  0.00  0.00    +0.000 A 
ATOM     20  C   UNL     1      45.030   5.369  10.547  0.00  0.00    +0.000 A 
ATOM     21  C   UNL     1      45.142   4.542   9.427  0.00  0.00    +0.000 A 
BRANCH  16  22
ATOM     22  C   UNL     1      44.905   2.298   8.295  0.00  0.00    +0.000 C 
BRANCH  22  23
ATOM     23  O   UNL     1      45.364   3.045   7.171  0.00  0.00    +0.000 OA
BRANCH  23  25
ATOM     24  C   UNL     1      46.726   2.678   5.161  0.00  0.00    +0.000 C 
ATOM     25  C   UNL     1      46.682   2.728   6.693  0.00  0.00    +0.000 C 
ATOM     26  C   UNL     1      47.206   1.420   7.301  0.00  0.00    +0.000 C 
ATOM     27  C   UNL     1      47.584   3.878   7.166  0.00  0.00    +0.000 C 
ENDBRANCH  23  25
ENDBRANCH  22  23
ENDBRANCH  16  22
ENDBRANCH  15  19
ENDBRANCH   1  15
TORSDOF 6
ENDMDL
MODEL 5
REMARK VINA RESULT:    -5.912      4.500      5.988
REMARK INTER + INTRA:          -8.843
REMARK INTER:                  -8.066
REMARK INTRA:                  -0.777
REMARK UNBOUND:                -0.858
REMARK  Name = 
REMARK  9 active torsions:
REMARK  status: ('A' for Active; 'I' for Inactive)
REMARK    1  A    between atoms: C_1  and  C_2
REMARK    2  A    between atoms: C_2  and  C_3
REMARK    3  A    between atoms: C_2  and  C_4
REMARK    4  A    between atoms: C_2  and  O_5
REMARK    5  A    between atoms: O_5  and  C_6
REMARK    6  A    between atoms: C_6  and  C_7
REMARK    7  A    between atoms: C_10  and  C_11
REMARK    8  A    between atoms: C_11  and  N_12
REMARK    9  A    between atoms: C_17  and  C_18
REMARK                            x       y       z     vdW  Elec       q    Type
REMARK                         _______ _______ _______ _____ _____    ______ ____
ROOT
ATOM      1  N   UNL     1      47.149   6.976  12.814  0.00  0.00    +0.000 N 
ATOM      2  C   UNL     1      47.622   6.451  13.995  0.00  0.00    +0.000 A 
ATOM      3  C   UNL     1      47.129   5.175  14.124  0.00  0.00    +0.000 A 
ATOM      4  C   UNL     1      46.322   4.906  12.987  0.00  0.00    +0.000 A 
ATOM      5  C   UNL     1      45.554   3.806  12.585  0.00  0.00    +0.000 A 
ATOM      6  C   UNL     1      44.878   3.931  11.382  0.00  0.00    +0.000 A 
ATOM      7  N   UNL     1      44.923   5.028  10.573  0.00  0.00    +0.000 NA
ATOM      8  C   UNL     1      45.668   6.088  10.960  0.00  0.00    +0.000 A 
ATOM      9  C   UNL     1      46.359   6.041  12.170  0.00  0.00    +0.000 A 
ENDROOT
BRANCH   6  10
ATOM     10  C   UNL     1      44.010   2.800  10.917  0.00  0.00    +0.000 C 
ATOM     11  N   UNL     1      44.451   2.137   9.803  0.00  0.00    +0.000 N 
ATOM     12  O   UNL     1      42.970   2.483  11.481  0.00  0.00    +0.000 OA
ATOM     13  H   UNL     1      45.309   2.436   9.352  0.00  0.00    +0.000 HD
ATOM     14  H   UNL     1      43.905   1.379   9.425  0.00  0.00    +0.000 HD
ENDBRANCH   6  10
BRANCH   1  15
ATOM     15  C   UNL     1      47.359   8.361  12.399  0.00  0.00    +0.000 C 
BRANCH  15  19
ATOM     16  C   UNL     1      51.366   9.023  10.902  0.00  0.00    +0.000 A 
ATOM     17  C   UNL     1      50.548  10.107  11.247  0.00  0.00    +0.000 A 
ATOM     18  C   UNL     1      49.255   9.896  11.732  0.00  0.00    +0.000 A 
ATOM     19  C   UNL     1      48.755   8.596  11.884  0.00  0.00    +0.000 A 
ATOM     20  C   UNL     1      49.578   7.512  11.545  0.00  0.00    +0.000 A 
ATOM     21  C   UNL     1      50.870   7.724  11.060  0.00  0.00    +0.000 A 
BRANCH  16  22
ATOM     22  C   UNL     1      52.730   9.255  10.301  0.00  0.00    +0.000 C 
BRANCH  22  23
ATOM     23  O   UNL     1      52.707   8.951   8.908  0.00  0.00    +0.000 OA
BRANCH  23  25
ATOM     24  C   UNL     1      52.724   6.686   7.962  0.00  0.00    +0.000 C 
ATOM     25  C   UNL     1      53.550   7.869   8.480  0.00  0.00    +0.000 C 
ATOM     26  C   UNL     1      54.509   7.423   9.592  0.00  0.00    +0.000 C 
ATOM     27  C   UNL     1      54.383   8.425   7.315  0.00  0.00    +0.000 C 
ENDBRANCH  23  25
ENDBRANCH  22  23
ENDBRANCH  16  22
ENDBRANCH  15  19
ENDBRANCH   1  15
TORSDOF 6
ENDMDL
MODEL 6
REMARK VINA RESULT:    -5.910      4.204      5.984
REMARK INTER + INTRA:          -8.841
REMARK INTER:                  -7.859
REMARK INTRA:                  -0.982
REMARK UNBOUND:                -0.858
REMARK  Name = 
REMARK  9 active torsions:
REMARK  status: ('A' for Active; 'I' for Inactive)
REMARK    1  A    between atoms: C_1  and  C_2
REMARK    2  A    between atoms: C_2  and  C_3
REMARK    3  A    between atoms: C_2  and  C_4
REMARK    4  A    between atoms: C_2  and  O_5
REMARK    5  A    between atoms: O_5  and  C_6
REMARK    6  A    between atoms: C_6  and  C_7
REMARK    7  A    between atoms: C_10  and  C_11
REMARK    8  A    between atoms: C_11  and  N_12
REMARK    9  A    between atoms: C_17  and  C_18
REMARK                            x       y       z     vdW  Elec       q    Type
REMARK                         _______ _______ _______ _____ _____    ______ ____
ROOT
ATOM      1  N   UNL     1      46.205   7.676  12.853  0.00  0.00    +0.000 N 
ATOM      2  C   UNL     1      45.471   8.602  12.148  0.00  0.00    +0.000 A 
ATOM      3  C   UNL     1      44.537   7.928  11.399  0.00  0.00    +0.000 A 
ATOM      4  C   UNL     1      44.703   6.539  11.647  0.00  0.00    +0.000 A 
ATOM      5  C   UNL     1      44.072   5.388  11.161  0.00  0.00    +0.000 A 
ATOM      6  C   UNL     1      44.538   4.176  11.646  0.00  0.00    +0.000 A 
ATOM      7  N   UNL     1      45.540   4.036  12.560  0.00  0.00    +0.000 NA
ATOM      8  C   UNL     1      46.145   5.149  13.033  0.00  0.00    +0.000 A 
ATOM      9  C   UNL     1      45.743   6.402  12.573  0.00  0.00    +0.000 A 
ENDROOT
BRANCH   6  10
ATOM     10  C   UNL     1      43.925   2.906  11.134  0.00  0.00    +0.000 C 
ATOM     11  N   UNL     1      44.540   2.354  10.042  0.00  0.00    +0.000 N 
ATOM     12  O   UNL     1      42.937   2.391  11.641  0.00  0.00    +0.000 OA
ATOM     13  H   UNL     1      45.348   2.816   9.638  0.00  0.00    +0.000 HD
ATOM     14  H   UNL     1      44.169   1.511   9.634  0.00  0.00    +0.000 HD
ENDBRANCH   6  10
BRANCH   1  15
ATOM     15  C   UNL     1      47.375   8.011  13.661  0.00  0.00    +0.000 C 
BRANCH  15  19
ATOM     16  C   UNL     1      50.802   9.090  11.247  0.00  0.00    +0.000 A 
ATOM     17  C   UNL     1      50.415   7.749  11.373  0.00  0.00    +0.000 A 
ATOM     18  C   UNL     1      49.309   7.399  12.151  0.00  0.00    +0.000 A 
ATOM     19  C   UNL     1      48.565   8.382  12.815  0.00  0.00    +0.000 A 
ATOM     20  C   UNL     1      48.948   9.724  12.680  0.00  0.00    +0.000 A 
ATOM     21  C   UNL     1      50.054  10.074  11.904  0.00  0.00    +0.000 A 
BRANCH  16  22
ATOM     22  C   UNL     1      52.044   9.459  10.475  0.00  0.00    +0.000 C 
BRANCH  22  23
ATOM     23  O   UNL     1      52.843   8.299  10.253  0.00  0.00    +0.000 OA
BRANCH  23  25
ATOM     24  C   UNL     1      53.073   9.336   8.040  0.00  0.00    +0.000 C 
ATOM     25  C   UNL     1      53.303   8.093   8.907  0.00  0.00    +0.000 C 
ATOM     26  C   UNL     1      52.659   6.853   8.272  0.00  0.00    +0.000 C 
ATOM     27  C   UNL     1      54.816   7.852   9.016  0.00  0.00    +0.000 C 
ENDBRANCH  23  25
ENDBRANCH  22  23
ENDBRANCH  16  22
ENDBRANCH  15  19
ENDBRANCH   1  15
TORSDOF 6
ENDMDL
MODEL 7
REMARK VINA RESULT:    -5.903      4.118      8.861
REMARK INTER + INTRA:          -8.831
REMARK INTER:                  -7.808
REMARK INTRA:                  -1.023
REMARK UNBOUND:                -0.858
REMARK  Name = 
REMARK  9 active torsions:
REMARK  status: ('A' for Active; 'I' for Inactive)
REMARK    1  A    between atoms: C_1  and  C_2
REMARK    2  A    between atoms: C_2  and  C_3
REMARK    3  A    between atoms: C_2  and  C_4
REMARK    4  A    between atoms: C_2  and  O_5
REMARK    5  A    between atoms: O_5  and  C_6
REMARK    6  A    between atoms: C_6  and  C_7
REMARK    7  A    between atoms: C_10  and  C_11
REMARK    8  A    between atoms: C_11  and  N_12
REMARK    9  A    between atoms: C_17  and  C_18
REMARK                            x       y       z     vdW  Elec       q    Type
REMARK                         _______ _______ _______ _____ _____    ______ ____
ROOT
ATOM      1  N   UNL     1      48.748   8.507  16.053  0.00  0.00    +0.000 N 
ATOM      2  C   UNL     1      48.172   9.535  16.764  0.00  0.00    +0.000 A 
ATOM      3  C   UNL     1      47.871   9.070  18.021  0.00  0.00    +0.000 A 
ATOM      4  C   UNL     1      48.270   7.709  18.087  0.00  0.00    +0.000 A 
ATOM      5  C   UNL     1      48.194   6.726  19.081  0.00  0.00    +0.000 A 
ATOM      6  C   UNL     1      48.694   5.475  18.753  0.00  0.00    +0.000 A 
ATOM      7  N   UNL     1      49.258   5.151  17.555  0.00  0.00    +0.000 NA
ATOM      8  C   UNL     1      49.335   6.102  16.597  0.00  0.00    +0.000 A 
ATOM      9  C   UNL     1      48.833   7.378  16.849  0.00  0.00    +0.000 A 
ENDROOT
BRANCH   6  10
ATOM     10  C   UNL     1      48.607   4.371  19.765  0.00  0.00    +0.000 C 
ATOM     11  N   UNL     1      48.402   3.118  19.254  0.00  0.00    +0.000 N 
ATOM     12  O   UNL     1      48.702   4.564  20.971  0.00  0.00    +0.000 OA
ATOM     13  H   UNL     1      48.312   2.997  18.251  0.00  0.00    +0.000 HD
ATOM     14  H   UNL     1      48.313   2.333  19.880  0.00  0.00    +0.000 HD
ENDBRANCH   6  10
BRANCH   1  15
ATOM     15  C   UNL     1      49.086   8.590  14.635  0.00  0.00    +0.000 C 
BRANCH  15  19
ATOM     16  C   UNL     1      45.945   6.994  12.119  0.00  0.00    +0.000 A 
ATOM     17  C   UNL     1      45.767   8.209  12.794  0.00  0.00    +0.000 A 
ATOM     18  C   UNL     1      46.779   8.726  13.605  0.00  0.00    +0.000 A 
ATOM     19  C   UNL     1      47.992   8.041  13.756  0.00  0.00    +0.000 A 
ATOM     20  C   UNL     1      48.172   6.829  13.073  0.00  0.00    +0.000 A 
ATOM     21  C   UNL     1      47.159   6.312  12.263  0.00  0.00    +0.000 A 
BRANCH  16  22
ATOM     22  C   UNL     1      44.822   6.395  11.310  0.00  0.00    +0.000 C 
BRANCH  22  23
ATOM     23  O   UNL     1      45.247   5.172  10.715  0.00  0.00    +0.000 OA
BRANCH  23  25
ATOM     24  C   UNL     1      43.049   4.335  11.419  0.00  0.00    +0.000 C 
ATOM     25  C   UNL     1      44.505   3.996  11.080  0.00  0.00    +0.000 C 
ATOM     26  C   UNL     1      45.175   3.239  12.235  0.00  0.00    +0.000 C 
ATOM     27  C   UNL     1      44.516   3.093   9.837  0.00  0.00    +0.000 C 
ENDBRANCH  23  25
ENDBRANCH  22  23
ENDBRANCH  16  22
ENDBRANCH  15  19
ENDBRANCH   1  15
TORSDOF 6
ENDMDL
MODEL 8
REMARK VINA RESULT:    -5.666      4.144      6.734
REMARK INTER + INTRA:          -8.511
REMARK INTER:                  -8.182
REMARK INTRA:                  -0.329
REMARK UNBOUND:                -0.858
REMARK  Name = 
REMARK  9 active torsions:
REMARK  status: ('A' for Active; 'I' for Inactive)
REMARK    1  A    between atoms: C_1  and  C_2
REMARK    2  A    between atoms: C_2  and  C_3
REMARK    3  A    between atoms: C_2  and  C_4
REMARK    4  A    between atoms: C_2  and  O_5
REMARK    5  A    between atoms: O_5  and  C_6
REMARK    6  A    between atoms: C_6  and  C_7
REMARK    7  A    between atoms: C_10  and  C_11
REMARK    8  A    between atoms: C_11  and  N_12
REMARK    9  A    between atoms: C_17  and  C_18
REMARK                            x       y       z     vdW  Elec       q    Type
REMARK                         _______ _______ _______ _____ _____    ______ ____
ROOT
ATOM      1  N   UNL     1      47.506   4.904  15.421  0.00  0.00    +0.000 N 
ATOM      2  C   UNL     1      48.360   5.983  15.437  0.00  0.00    +0.000 A 
ATOM      3  C   UNL     1      48.235   6.646  14.240  0.00  0.00    +0.000 A 
ATOM      4  C   UNL     1      47.276   5.950  13.458  0.00  0.00    +0.000 A 
ATOM      5  C   UNL     1      46.763   6.133  12.167  0.00  0.00    +0.000 A 
ATOM      6  C   UNL     1      45.822   5.210  11.739  0.00  0.00    +0.000 A 
ATOM      7  N   UNL     1      45.361   4.165  12.483  0.00  0.00    +0.000 NA
ATOM      8  C   UNL     1      45.853   3.991  13.731  0.00  0.00    +0.000 A 
ATOM      9  C   UNL     1      46.818   4.870  14.221  0.00  0.00    +0.000 A 
ENDROOT
BRANCH   6  10
ATOM     10  C   UNL     1      45.265   5.334  10.352  0.00  0.00    +0.000 C 
ATOM     11  N   UNL     1      43.899   5.341  10.264  0.00  0.00    +0.000 N 
ATOM     12  O   UNL     1      45.972   5.414   9.355  0.00  0.00    +0.000 OA
ATOM     13  H   UNL     1      43.344   5.257  11.109  0.00  0.00    +0.000 HD
ATOM     14  H   UNL     1      43.458   5.402   9.360  0.00  0.00    +0.000 HD
ENDBRANCH   6  10
BRANCH   1  15
ATOM     15  C   UNL     1      47.457   3.892  16.472  0.00  0.00    +0.000 C 
BRANCH  15  19
ATOM     16  C   UNL     1      51.410   2.660  17.734  0.00  0.00    +0.000 A 
ATOM     17  C   UNL     1      50.933   3.940  18.042  0.00  0.00    +0.000 A 
ATOM     18  C   UNL     1      49.657   4.340  17.637  0.00  0.00    +0.000 A 
ATOM     19  C   UNL     1      48.831   3.466  16.918  0.00  0.00    +0.000 A 
ATOM     20  C   UNL     1      49.307   2.181  16.618  0.00  0.00    +0.000 A 
ATOM     21  C   UNL     1      50.583   1.783  17.023  0.00  0.00    +0.000 A 
BRANCH  16  22
ATOM     22  C   UNL     1      52.817   2.259  18.099  0.00  0.00    +0.000 C 
BRANCH  22  23
ATOM     23  O   UNL     1      52.902   0.842  18.233  0.00  0.00    +0.000 OA
BRANCH  23  25
ATOM     24  C   UNL     1      54.365  -1.041  18.814  0.00  0.00    +0.000 C 
ATOM     25  C   UNL     1      54.199   0.260  18.022  0.00  0.00    +0.000 C 
ATOM     26  C   UNL     1      55.325   1.251  18.351  0.00  0.00    +0.000 C 
ATOM     27  C   UNL     1      54.269  -0.073  16.524  0.00  0.00    +0.000 C 
ENDBRANCH  23  25
ENDBRANCH  22  23
ENDBRANCH  16  22
ENDBRANCH  15  19
ENDBRANCH   1  15
TORSDOF 6
ENDMDL
MODEL 9
REMARK VINA RESULT:    -5.488      4.392      6.499
REMARK INTER + INTRA:          -8.271
REMARK INTER:                  -7.353
REMARK INTRA:                  -0.918
REMARK UNBOUND:                -0.858
REMARK  Name = 
REMARK  9 active torsions:
REMARK  status: ('A' for Active; 'I' for Inactive)
REMARK    1  A    between atoms: C_1  and  C_2
REMARK    2  A    between atoms: C_2  and  C_3
REMARK    3  A    between atoms: C_2  and  C_4
REMARK    4  A    between atoms: C_2  and  O_5
REMARK    5  A    between atoms: O_5  and  C_6
REMARK    6  A    between atoms: C_6  and  C_7
REMARK    7  A    between atoms: C_10  and  C_11
REMARK    8  A    between atoms: C_11  and  N_12
REMARK    9  A    between atoms: C_17  and  C_18
REMARK                            x       y       z     vdW  Elec       q    Type
REMARK                         _______ _______ _______ _____ _____    ______ ____
ROOT
ATOM      1  N   UNL     1      47.638   6.891  13.831  0.00  0.00    +0.000 N 
ATOM      2  C   UNL     1      48.016   5.902  14.710  0.00  0.00    +0.000 A 
ATOM      3  C   UNL     1      47.122   4.864  14.598  0.00  0.00    +0.000 A 
ATOM      4  C   UNL     1      46.159   5.227  13.620  0.00  0.00    +0.000 A 
ATOM      5  C   UNL     1      45.016   4.599  13.109  0.00  0.00    +0.000 A 
ATOM      6  C   UNL     1      44.306   5.297  12.145  0.00  0.00    +0.000 A 
ATOM      7  N   UNL     1      44.649   6.525  11.661  0.00  0.00    +0.000 NA
ATOM      8  C   UNL     1      45.755   7.128  12.152  0.00  0.00    +0.000 A 
ATOM      9  C   UNL     1      46.507   6.493  13.139  0.00  0.00    +0.000 A 
ENDROOT
BRANCH   6  10
ATOM     10  C   UNL     1      43.053   4.691  11.587  0.00  0.00    +0.000 C 
ATOM     11  N   UNL     1      41.934   5.477  11.660  0.00  0.00    +0.000 N 
ATOM     12  O   UNL     1      43.015   3.566  11.103  0.00  0.00    +0.000 OA
ATOM     13  H   UNL     1      41.998   6.397  12.082  0.00  0.00    +0.000 HD
ATOM     14  H   UNL     1      41.054   5.123  11.322  0.00  0.00    +0.000 HD
ENDBRANCH   6  10
BRANCH   1  15
ATOM     15  C   UNL     1      48.277   8.202  13.760  0.00  0.00    +0.000 C 
BRANCH  15  19
ATOM     16  C   UNL     1      51.914   8.123  11.416  0.00  0.00    +0.000 A 
ATOM     17  C   UNL     1      50.697   7.717  10.853  0.00  0.00    +0.000 A 
ATOM     18  C   UNL     1      49.522   7.743  11.607  0.00  0.00    +0.000 A 
ATOM     19  C   UNL     1      49.539   8.178  12.939  0.00  0.00    +0.000 A 
ATOM     20  C   UNL     1      50.757   8.591  13.498  0.00  0.00    +0.000 A 
ATOM     21  C   UNL     1      51.931   8.564  12.744  0.00  0.00    +0.000 A 
BRANCH  16  22
ATOM     22  C   UNL     1      53.196   8.016  10.627  0.00  0.00    +0.000 C 
BRANCH  22  23
ATOM     23  O   UNL     1      53.321   6.708  10.074  0.00  0.00    +0.000 OA
BRANCH  23  25
ATOM     24  C   UNL     1      54.760   7.686   8.342  0.00  0.00    +0.000 C 
ATOM     25  C   UNL     1      53.696   6.637   8.689  0.00  0.00    +0.000 C 
ATOM     26  C   UNL     1      52.478   6.765   7.764  0.00  0.00    +0.000 C 
ATOM     27  C   UNL     1      54.309   5.242   8.493  0.00  0.00    +0.000 C 
ENDBRANCH  23  25
ENDBRANCH  22  23
ENDBRANCH  16  22
ENDBRANCH  15  19
ENDBRANCH   1  15
TORSDOF 6
ENDMDL
