MODEL 1
REMARK VINA RESULT:    -9.180      0.000      0.000
REMARK INTER + INTRA:         -12.683
REMARK INTER:                 -12.400
REMARK INTRA:                  -0.283
REMARK UNBOUND:                -0.283
REMARK  Name = 
REMARK  7 active torsions:
REMARK  status: ('A' for Active; 'I' for Inactive)
REMARK    1  A    between atoms: C_1  and  O_2
REMARK    2  A    between atoms: O_2  and  C_3
REMARK    3  A    between atoms: C_6  and  C_7
REMARK    4  A    between atoms: C_11  and  C_12
REMARK    5  A    between atoms: C_12  and  N_13
REMARK    6  A    between atoms: N_13  and  C_14
REMARK    7  A    between atoms: C_17  and  C_18
REMARK                            x       y       z     vdW  Elec       q    Type
REMARK                         _______ _______ _______ _____ _____    ______ ____
ROOT
ATOM      1  C   UNL     1      43.946   5.016  11.499  0.00  0.00    +0.000 C 
ATOM      2  C   UNL     1      42.770   5.203  12.432  0.00  0.00    +0.000 C 
ATOM      3  C   UNL     1      43.288   3.824  12.215  0.00  0.00    +0.000 C 
ENDROOT
BRANCH   1   8
ATOM      4  C   UNL     1      47.057   5.533  13.704  0.00  0.00    +0.000 A 
ATOM      5  C   UNL     1      47.797   6.434  12.929  0.00  0.00    +0.000 A 
ATOM      6  C   UNL     1      47.295   6.901  11.714  0.00  0.00    +0.000 A 
ATOM      7  C   UNL     1      46.049   6.466  11.256  0.00  0.00    +0.000 A 
ATOM      8  C   UNL     1      45.283   5.549  11.990  0.00  0.00    +0.000 A 
ATOM      9  C   UNL     1      45.816   5.105  13.203  0.00  0.00    +0.000 A 
BRANCH   4  13
ATOM     10  C   UNL     1      48.284   3.995  17.443  0.00  0.00    +0.000 A 
ATOM     11  C   UNL     1      48.761   5.243  17.077  0.00  0.00    +0.000 A 
ATOM     12  C   UNL     1      48.372   5.775  15.847  0.00  0.00    +0.000 A 
ATOM     13  C   UNL     1      47.515   5.049  15.013  0.00  0.00    +0.000 A 
ATOM     14  C   UNL     1      47.104   3.805  15.490  0.00  0.00    +0.000 A 
ATOM     15  N   UNL     1      47.458   3.273  16.668  0.00  0.00    +0.000 NA
BRANCH  10  17
ATOM     16  C   UNL     1      48.749   4.434  19.673  0.00  0.00    +0.000 C 
ATOM     17  O   UNL     1      48.677   3.443  18.641  0.00  0.00    +0.000 OA
ENDBRANCH  10  17
ENDBRANCH   4  13
ENDBRANCH   1   8
BRANCH   1  18
ATOM     18  N   UNL     1      43.895   4.829  10.046  0.00  0.00    +0.000 N 
ATOM     19  H   UNL     1      43.001   5.057   9.619  0.00  0.00    +0.000 HD
BRANCH  18  20
ATOM     20  C   UNL     1      44.657   3.966   9.250  0.00  0.00    +0.000 A 
ATOM     21  C   UNL     1      44.740   2.581   9.399  0.00  0.00    +0.000 A 
ATOM     22  C   UNL     1      45.655   1.858   8.618  0.00  0.00    +0.000 A 
ATOM     23  C   UNL     1      46.465   2.543   7.717  0.00  0.00    +0.000 A 
ATOM     24  N   UNL     1      46.408   3.888   7.539  0.00  0.00    +0.000 NA
ATOM     25  C   UNL     1      45.518   4.544   8.307  0.00  0.00    +0.000 A 
BRANCH  23  26
ATOM     26  C   UNL     1      47.464   1.820   6.893  0.00  0.00    +0.000 C 
ATOM     27  N   UNL     1      48.516   2.563   6.429  0.00  0.00    +0.000 N 
ATOM     28  O   UNL     1      47.378   0.635   6.638  0.00  0.00    +0.000 OA
ATOM     29  H   UNL     1      48.555   3.552   6.679  0.00  0.00    +0.000 HD
ATOM     30  H   UNL     1      49.239   2.135   5.879  0.00  0.00    +0.000 HD
ENDBRANCH  23  26
ENDBRANCH  18  20
ENDBRANCH   1  18
TORSDOF 6
ENDMDL
MODEL 2
REMARK VINA RESULT:    -8.951      3.138      4.469
REMARK INTER + INTRA:         -12.373
REMARK INTER:                 -11.245
REMARK INTRA:                  -1.128
REMARK UNBOUND:                -0.283
REMARK  Name = 
REMARK  7 active torsions:
REMARK  status: ('A' for Active; 'I' for Inactive)
REMARK    1  A    between atoms: C_1  and  O_2
REMARK    2  A    between atoms: O_2  and  C_3
REMARK    3  A    between atoms: C_6  and  C_7
REMARK    4  A    between atoms: C_11  and  C_12
REMARK    5  A    between atoms: C_12  and  N_13
REMARK    6  A    between atoms: N_13  and  C_14
REMARK    7  A    between atoms: C_17  and  C_18
REMARK                            x       y       z     vdW  Elec       q    Type
REMARK                         _______ _______ _______ _____ _____    ______ ____
ROOT
ATOM      1  C   UNL     1      43.928   4.842  11.321  0.00  0.00    +0.000 C 
ATOM      2  C   UNL     1      43.087   6.074  11.075  0.00  0.00    +0.000 C 
ATOM      3  C   UNL     1      42.582   5.055  12.036  0.00  0.00    +0.000 C 
ENDROOT
BRANCH   1   8
ATOM      4  C   UNL     1      47.194   6.480  12.530  0.00  0.00    +0.000 A 
ATOM      5  C   UNL     1      47.615   5.569  13.504  0.00  0.00    +0.000 A 
ATOM      6  C   UNL     1      46.874   4.415  13.762  0.00  0.00    +0.000 A 
ATOM      7  C   UNL     1      45.699   4.163  13.051  0.00  0.00    +0.000 A 
ATOM      8  C   UNL     1      45.229   5.058  12.079  0.00  0.00    +0.000 A 
ATOM      9  C   UNL     1      45.998   6.202  11.846  0.00  0.00    +0.000 A 
BRANCH   4  13
ATOM     10  C   UNL     1      49.259  10.037  11.565  0.00  0.00    +0.000 A 
ATOM     11  C   UNL     1      49.971   8.850  11.510  0.00  0.00    +0.000 A 
ATOM     12  C   UNL     1      49.313   7.660  11.824  0.00  0.00    +0.000 A 
ATOM     13  C   UNL     1      47.962   7.683  12.184  0.00  0.00    +0.000 A 
ATOM     14  C   UNL     1      47.356   8.939  12.205  0.00  0.00    +0.000 A 
ATOM     15  N   UNL     1      47.961  10.096  11.903  0.00  0.00    +0.000 NA
BRANCH  10  17
ATOM     16  C   UNL     1      51.315  11.110  11.465  0.00  0.00    +0.000 C 
ATOM     17  O   UNL     1      49.897  11.224  11.283  0.00  0.00    +0.000 OA
ENDBRANCH  10  17
ENDBRANCH   4  13
ENDBRANCH   1   8
BRANCH   1  18
ATOM     18  N   UNL     1      43.906   3.593  10.554  0.00  0.00    +0.000 N 
ATOM     19  H   UNL     1      43.586   2.780  11.075  0.00  0.00    +0.000 HD
BRANCH  18  20
ATOM     20  C   UNL     1      44.677   3.239   9.441  0.00  0.00    +0.000 A 
ATOM     21  C   UNL     1      45.232   1.980   9.202  0.00  0.00    +0.000 A 
ATOM     22  C   UNL     1      46.102   1.807   8.115  0.00  0.00    +0.000 A 
ATOM     23  C   UNL     1      46.398   2.899   7.304  0.00  0.00    +0.000 A 
ATOM     24  N   UNL     1      45.872   4.136   7.501  0.00  0.00    +0.000 NA
ATOM     25  C   UNL     1      45.044   4.260   8.554  0.00  0.00    +0.000 A 
BRANCH  23  26
ATOM     26  C   UNL     1      47.334   2.764   6.161  0.00  0.00    +0.000 C 
ATOM     27  N   UNL     1      48.636   2.480   6.478  0.00  0.00    +0.000 N 
ATOM     28  O   UNL     1      46.987   2.886   5.003  0.00  0.00    +0.000 OA
ATOM     29  H   UNL     1      48.880   2.372   7.463  0.00  0.00    +0.000 HD
ATOM     30  H   UNL     1      49.320   2.357   5.754  0.00  0.00    +0.000 HD
ENDBRANCH  23  26
ENDBRANCH  18  20
ENDBRANCH   1  18
TORSDOF 6
ENDMDL
MODEL 3
REMARK VINA RESULT:    -8.362      1.743      7.812
REMARK INTER + INTRA:         -11.578
REMARK INTER:                 -10.662
REMARK INTRA:                  -0.916
REMARK UNBOUND:                -0.283
REMARK  Name = 
REMARK  7 active torsions:
REMARK  status: ('A' for Active; 'I' for Inactive)
REMARK    1  A    between atoms: C_1  and  O_2
REMARK    2  A    between atoms: O_2  and  C_3
REMARK    3  A    between atoms: C_6  and  C_7
REMARK    4  A    between atoms: C_11  and  C_12
REMARK    5  A    between atoms: C_12  and  N_13
REMARK    6  A    between atoms: N_13  and  C_14
REMARK    7  A    between atoms: C_17  and  C_18
REMARK                            x       y       z     vdW  Elec       q    Type
REMARK                         _______ _______ _______ _____ _____    ______ ____
ROOT
ATOM      1  C   UNL     1      46.227   7.528  12.454  0.00  0.00    +0.000 C 
ATOM      2  C   UNL     1      45.693   8.861  12.928  0.00  0.00    +0.000 C 
ATOM      3  C   UNL     1      46.680   8.850  11.813  0.00  0.00    +0.000 C 
ENDROOT
BRANCH   1   8
ATOM      4  C   UNL     1      44.845   4.756  10.170  0.00  0.00    +0.000 A 
ATOM      5  C   UNL     1      43.469   4.879  10.390  0.00  0.00    +0.000 A 
ATOM      6  C   UNL     1      42.974   5.863  11.245  0.00  0.00    +0.000 A 
ATOM      7  C   UNL     1      43.851   6.732  11.897  0.00  0.00    +0.000 A 
ATOM      8  C   UNL     1      45.239   6.632  11.722  0.00  0.00    +0.000 A 
ATOM      9  C   UNL     1      45.699   5.636  10.856  0.00  0.00    +0.000 A 
BRANCH   4  13
ATOM     10  C   UNL     1      46.418   1.796   7.597  0.00  0.00    +0.000 A 
ATOM     11  C   UNL     1      46.661   3.120   7.273  0.00  0.00    +0.000 A 
ATOM     12  C   UNL     1      46.153   4.119   8.105  0.00  0.00    +0.000 A 
ATOM     13  C   UNL     1      45.416   3.771   9.241  0.00  0.00    +0.000 A 
ATOM     14  C   UNL     1      45.236   2.406   9.461  0.00  0.00    +0.000 A 
ATOM     15  N   UNL     1      45.717   1.426   8.682  0.00  0.00    +0.000 NA
BRANCH  10  17
ATOM     16  C   UNL     1      46.757  -0.490   7.388  0.00  0.00    +0.000 C 
ATOM     17  O   UNL     1      46.889   0.798   6.775  0.00  0.00    +0.000 OA
ENDBRANCH  10  17
ENDBRANCH   4  13
ENDBRANCH   1   8
BRANCH   1  18
ATOM     18  N   UNL     1      47.380   6.800  12.990  0.00  0.00    +0.000 N 
ATOM     19  H   UNL     1      48.061   6.508  12.293  0.00  0.00    +0.000 HD
BRANCH  18  20
ATOM     20  C   UNL     1      47.464   6.038  14.162  0.00  0.00    +0.000 A 
ATOM     21  C   UNL     1      48.313   6.294  15.240  0.00  0.00    +0.000 A 
ATOM     22  C   UNL     1      48.393   5.365  16.289  0.00  0.00    +0.000 A 
ATOM     23  C   UNL     1      47.628   4.203  16.223  0.00  0.00    +0.000 A 
ATOM     24  N   UNL     1      46.787   3.923  15.194  0.00  0.00    +0.000 NA
ATOM     25  C   UNL     1      46.740   4.840  14.210  0.00  0.00    +0.000 A 
BRANCH  23  26
ATOM     26  C   UNL     1      47.705   3.183  17.297  0.00  0.00    +0.000 C 
ATOM     27  N   UNL     1      48.940   2.986  17.856  0.00  0.00    +0.000 N 
ATOM     28  O   UNL     1      46.740   2.554  17.682  0.00  0.00    +0.000 OA
ATOM     29  H   UNL     1      49.720   3.547  17.511  0.00  0.00    +0.000 HD
ATOM     30  H   UNL     1      49.062   2.324  18.600  0.00  0.00    +0.000 HD
ENDBRANCH  23  26
ENDBRANCH  18  20
ENDBRANCH   1  18
TORSDOF 6
ENDMDL
MODEL 4
REMARK VINA RESULT:    -7.747      2.791      3.260
REMARK INTER + INTRA:         -10.747
REMARK INTER:                 -10.611
REMARK INTRA:                  -0.136
REMARK UNBOUND:                -0.283
REMARK  Name = 
REMARK  7 active torsions:
REMARK  status: ('A' for Active; 'I' for Inactive)
REMARK    1  A    between atoms: C_1  and  O_2
REMARK    2  A    between atoms: O_2  and  C_3
REMARK    3  A    between atoms: C_6  and  C_7
REMARK    4  A    between atoms: C_11  and  C_12
REMARK    5  A    between atoms: C_12  and  N_13
REMARK    6  A    between atoms: N_13  and  C_14
REMARK    7  A    between atoms: C_17  and  C_18
REMARK                            x       y       z     vdW  Elec       q    Type
REMARK                         _______ _______ _______ _____ _____    ______ ____
ROOT
ATOM      1  C   UNL     1      44.207   4.444  11.731  0.00  0.00    +0.000 C 
ATOM      2  C   UNL     1      43.693   3.865  13.031  0.00  0.00    +0.000 C 
ATOM      3  C   UNL     1      44.949   3.308  12.456  0.00  0.00    +0.000 C 
ENDROOT
BRANCH   1   8
ATOM      4  C   UNL     1      46.612   7.386  12.344  0.00  0.00    +0.000 A 
ATOM      5  C   UNL     1      45.851   8.464  11.878  0.00  0.00    +0.000 A 
ATOM      6  C   UNL     1      44.559   8.262  11.393  0.00  0.00    +0.000 A 
ATOM      7  C   UNL     1      44.015   6.976  11.360  0.00  0.00    +0.000 A 
ATOM      8  C   UNL     1      44.748   5.864  11.798  0.00  0.00    +0.000 A 
ATOM      9  C   UNL     1      46.038   6.105  12.280  0.00  0.00    +0.000 A 
BRANCH   4  13
ATOM     10  C   UNL     1      50.530   7.932  13.827  0.00  0.00    +0.000 A 
ATOM     11  C   UNL     1      49.608   7.323  14.663  0.00  0.00    +0.000 A 
ATOM     12  C   UNL     1      48.307   7.130  14.199  0.00  0.00    +0.000 A 
ATOM     13  C   UNL     1      47.957   7.549  12.911  0.00  0.00    +0.000 A 
ATOM     14  C   UNL     1      48.970   8.150  12.166  0.00  0.00    +0.000 A 
ATOM     15  N   UNL     1      50.229   8.342  12.584  0.00  0.00    +0.000 NA
BRANCH  10  17
ATOM     16  C   UNL     1      51.827   9.068  15.380  0.00  0.00    +0.000 C 
ATOM     17  O   UNL     1      51.812   8.153  14.277  0.00  0.00    +0.000 OA
ENDBRANCH  10  17
ENDBRANCH   4  13
ENDBRANCH   1   8
BRANCH   1  18
ATOM     18  N   UNL     1      43.838   4.028  10.375  0.00  0.00    +0.000 N 
ATOM     19  H   UNL     1      42.860   3.771  10.261  0.00  0.00    +0.000 HD
BRANCH  18  20
ATOM     20  C   UNL     1      44.650   3.473   9.381  0.00  0.00    +0.000 A 
ATOM     21  C   UNL     1      45.038   2.134   9.299  0.00  0.00    +0.000 A 
ATOM     22  C   UNL     1      45.972   1.746   8.327  0.00  0.00    +0.000 A 
ATOM     23  C   UNL     1      46.497   2.709   7.471  0.00  0.00    +0.000 A 
ATOM     24  N   UNL     1      46.140   4.019   7.515  0.00  0.00    +0.000 NA
ATOM     25  C   UNL     1      45.242   4.350   8.462  0.00  0.00    +0.000 A 
BRANCH  23  26
ATOM     26  C   UNL     1      47.507   2.345   6.447  0.00  0.00    +0.000 C 
ATOM     27  N   UNL     1      47.577   3.162   5.350  0.00  0.00    +0.000 N 
ATOM     28  O   UNL     1      48.246   1.387   6.557  0.00  0.00    +0.000 OA
ATOM     29  H   UNL     1      46.946   3.964   5.305  0.00  0.00    +0.000 HD
ATOM     30  H   UNL     1      48.249   2.985   4.626  0.00  0.00    +0.000 HD
ENDBRANCH  23  26
ENDBRANCH  18  20
ENDBRANCH   1  18
TORSDOF 6
ENDMDL
MODEL 5
REMARK VINA RESULT:    -7.389      3.307      8.475
REMARK INTER + INTRA:         -10.263
REMARK INTER:                  -9.152
REMARK INTRA:                  -1.112
REMARK UNBOUND:                -0.283
REMARK  Name = 
REMARK  7 active torsions:
REMARK  status: ('A' for Active; 'I' for Inactive)
REMARK    1  A    between atoms: C_1  and  O_2
REMARK    2  A    between atoms: O_2  and  C_3
REMARK    3  A    between atoms: C_6  and  C_7
REMARK    4  A    between atoms: C_11  and  C_12
REMARK    5  A    between atoms: C_12  and  N_13
REMARK    6  A    between atoms: N_13  and  C_14
REMARK    7  A    between atoms: C_17  and  C_18
REMARK                            x       y       z     vdW  Elec       q    Type
REMARK                         _______ _______ _______ _____ _____    ______ ____
ROOT
ATOM      1  C   UNL     1      48.695   5.588  17.531  0.00  0.00    +0.000 C 
ATOM      2  C   UNL     1      47.377   5.125  18.110  0.00  0.00    +0.000 C 
ATOM      3  C   UNL     1      47.961   6.400  18.612  0.00  0.00    +0.000 C 
ENDROOT
BRANCH   1   8
ATOM      4  C   UNL     1      47.633   5.916  13.846  0.00  0.00    +0.000 A 
ATOM      5  C   UNL     1      48.492   6.928  13.401  0.00  0.00    +0.000 A 
ATOM      6  C   UNL     1      49.430   7.491  14.266  0.00  0.00    +0.000 A 
ATOM      7  C   UNL     1      49.517   7.052  15.589  0.00  0.00    +0.000 A 
ATOM      8  C   UNL     1      48.663   6.055  16.083  0.00  0.00    +0.000 A 
ATOM      9  C   UNL     1      47.737   5.513  15.188  0.00  0.00    +0.000 A 
BRANCH   4  13
ATOM     10  C   UNL     1      44.842   3.876  11.418  0.00  0.00    +0.000 A 
ATOM     11  C   UNL     1      45.216   5.151  11.029  0.00  0.00    +0.000 A 
ATOM     12  C   UNL     1      46.136   5.848  11.813  0.00  0.00    +0.000 A 
ATOM     13  C   UNL     1      46.662   5.255  12.965  0.00  0.00    +0.000 A 
ATOM     14  C   UNL     1      46.208   3.969  13.253  0.00  0.00    +0.000 A 
ATOM     15  N   UNL     1      45.329   3.274  12.515  0.00  0.00    +0.000 NA
BRANCH  10  17
ATOM     16  C   UNL     1      44.529   2.540   9.547  0.00  0.00    +0.000 C 
ATOM     17  O   UNL     1      43.916   3.183  10.672  0.00  0.00    +0.000 OA
ENDBRANCH  10  17
ENDBRANCH   4  13
ENDBRANCH   1   8
BRANCH   1  18
ATOM     18  N   UNL     1      50.037   5.222  17.991  0.00  0.00    +0.000 N 
ATOM     19  H   UNL     1      50.658   6.009  18.162  0.00  0.00    +0.000 HD
BRANCH  18  20
ATOM     20  C   UNL     1      50.740   4.032  17.772  0.00  0.00    +0.000 A 
ATOM     21  C   UNL     1      50.184   2.821  17.356  0.00  0.00    +0.000 A 
ATOM     22  C   UNL     1      50.988   1.672  17.315  0.00  0.00    +0.000 A 
ATOM     23  C   UNL     1      52.322   1.766  17.699  0.00  0.00    +0.000 A 
ATOM     24  N   UNL     1      52.901   2.926  18.103  0.00  0.00    +0.000 NA
ATOM     25  C   UNL     1      52.096   4.004  18.129  0.00  0.00    +0.000 A 
BRANCH  23  26
ATOM     26  C   UNL     1      53.199   0.569  17.696  0.00  0.00    +0.000 C 
ATOM     27  N   UNL     1      52.756  -0.506  18.420  0.00  0.00    +0.000 N 
ATOM     28  O   UNL     1      54.249   0.519  17.087  0.00  0.00    +0.000 OA
ATOM     29  H   UNL     1      51.860  -0.425  18.905  0.00  0.00    +0.000 HD
ATOM     30  H   UNL     1      53.289  -1.355  18.448  0.00  0.00    +0.000 HD
ENDBRANCH  23  26
ENDBRANCH  18  20
ENDBRANCH   1  18
TORSDOF 6
ENDMDL
MODEL 6
REMARK VINA RESULT:    -7.085      2.825      4.757
REMARK INTER + INTRA:          -9.853
REMARK INTER:                  -9.033
REMARK INTRA:                  -0.820
REMARK UNBOUND:                -0.283
REMARK  Name = 
REMARK  7 active torsions:
REMARK  status: ('A' for Active; 'I' for Inactive)
REMARK    1  A    between atoms: C_1  and  O_2
REMARK    2  A    between atoms: O_2  and  C_3
REMARK    3  A    between atoms: C_6  and  C_7
REMARK    4  A    between atoms: C_11  and  C_12
REMARK    5  A    between atoms: C_12  and  N_13
REMARK    6  A    between atoms: N_13  and  C_14
REMARK    7  A    between atoms: C_17  and  C_18
REMARK                            x       y       z     vdW  Elec       q    Type
REMARK                         _______ _______ _______ _____ _____    ______ ____
ROOT
ATOM      1  C   UNL     1      47.721   8.102  13.480  0.00  0.00    +0.000 C 
ATOM      2  C   UNL     1      48.773   8.299  12.411  0.00  0.00    +0.000 C 
ATOM      3  C   UNL     1      47.936   9.466  12.802  0.00  0.00    +0.000 C 
ENDROOT
BRANCH   1   8
ATOM      4  C   UNL     1      49.272   6.349  16.536  0.00  0.00    +0.000 A 
ATOM      5  C   UNL     1      49.283   7.388  17.472  0.00  0.00    +0.000 A 
ATOM      6  C   UNL     1      48.773   8.644  17.143  0.00  0.00    +0.000 A 
ATOM      7  C   UNL     1      48.250   8.877  15.869  0.00  0.00    +0.000 A 
ATOM      8  C   UNL     1      48.236   7.871  14.893  0.00  0.00    +0.000 A 
ATOM      9  C   UNL     1      48.754   6.625  15.259  0.00  0.00    +0.000 A 
BRANCH   4  13
ATOM     10  C   UNL     1      50.496   2.392  17.368  0.00  0.00    +0.000 A 
ATOM     11  C   UNL     1      51.394   3.411  17.643  0.00  0.00    +0.000 A 
ATOM     12  C   UNL     1      51.015   4.728  17.378  0.00  0.00    +0.000 A 
ATOM     13  C   UNL     1      49.750   4.995  16.845  0.00  0.00    +0.000 A 
ATOM     14  C   UNL     1      48.938   3.888  16.609  0.00  0.00    +0.000 A 
ATOM     15  N   UNL     1      49.273   2.614  16.860  0.00  0.00    +0.000 NA
BRANCH  10  17
ATOM     16  C   UNL     1      52.285   0.950  17.693  0.00  0.00    +0.000 C 
ATOM     17  O   UNL     1      50.862   1.085  17.599  0.00  0.00    +0.000 OA
ENDBRANCH  10  17
ENDBRANCH   4  13
ENDBRANCH   1   8
BRANCH   1  18
ATOM     18  N   UNL     1      46.342   7.647  13.286  0.00  0.00    +0.000 N 
ATOM     19  H   UNL     1      45.693   7.932  14.015  0.00  0.00    +0.000 HD
BRANCH  18  20
ATOM     20  C   UNL     1      45.882   6.532  12.576  0.00  0.00    +0.000 A 
ATOM     21  C   UNL     1      45.510   6.519  11.231  0.00  0.00    +0.000 A 
ATOM     22  C   UNL     1      44.933   5.360  10.688  0.00  0.00    +0.000 A 
ATOM     23  C   UNL     1      44.737   4.253  11.508  0.00  0.00    +0.000 A 
ATOM     24  N   UNL     1      45.093   4.226  12.818  0.00  0.00    +0.000 NA
ATOM     25  C   UNL     1      45.643   5.356  13.300  0.00  0.00    +0.000 A 
BRANCH  23  26
ATOM     26  C   UNL     1      44.106   3.020  10.979  0.00  0.00    +0.000 C 
ATOM     27  N   UNL     1      44.819   2.335  10.031  0.00  0.00    +0.000 N 
ATOM     28  O   UNL     1      43.024   2.615  11.356  0.00  0.00    +0.000 OA
ATOM     29  H   UNL     1      45.730   2.704   9.753  0.00  0.00    +0.000 HD
ATOM     30  H   UNL     1      44.460   1.482   9.642  0.00  0.00    +0.000 HD
ENDBRANCH  23  26
ENDBRANCH  18  20
ENDBRANCH   1  18
TORSDOF 6
ENDMDL
MODEL 7
REMARK VINA RESULT:    -6.982      3.047      4.932
REMARK INTER + INTRA:          -9.714
REMARK INTER:                  -8.961
REMARK INTRA:                  -0.753
REMARK UNBOUND:                -0.283
REMARK  Name = 
REMARK  7 active torsions:
REMARK  status: ('A' for Active; 'I' for Inactive)
REMARK    1  A    between atoms: C_1  and  O_2
REMARK    2  A    between atoms: O_2  and  C_3
REMARK    3  A    between atoms: C_6  and  C_7
REMARK    4  A    between atoms: C_11  and  C_12
REMARK    5  A    between atoms: C_12  and  N_13
REMARK    6  A    between atoms: N_13  and  C_14
REMARK    7  A    between atoms: C_17  and  C_18
REMARK                            x       y       z     vdW  Elec       q    Type
REMARK                         _______ _______ _______ _____ _____    ______ ____
ROOT
ATOM      1  C   UNL     1      47.764   7.878  13.339  0.00  0.00    +0.000 C 
ATOM      2  C   UNL     1      48.782   7.842  12.221  0.00  0.00    +0.000 C 
ATOM      3  C   UNL     1      47.976   9.080  12.402  0.00  0.00    +0.000 C 
ENDROOT
BRANCH   1   8
ATOM      4  C   UNL     1      49.607   6.801  16.542  0.00  0.00    +0.000 A 
ATOM      5  C   UNL     1      49.457   7.940  17.341  0.00  0.00    +0.000 A 
ATOM      6  C   UNL     1      48.746   9.045  16.873  0.00  0.00    +0.000 A 
ATOM      7  C   UNL     1      48.181   9.027  15.596  0.00  0.00    +0.000 A 
ATOM      8  C   UNL     1      48.322   7.915  14.753  0.00  0.00    +0.000 A 
ATOM      9  C   UNL     1      49.039   6.825  15.256  0.00  0.00    +0.000 A 
BRANCH   4  13
ATOM     10  C   UNL     1      51.757   3.411  17.859  0.00  0.00    +0.000 A 
ATOM     11  C   UNL     1      50.380   3.297  17.759  0.00  0.00    +0.000 A 
ATOM     12  C   UNL     1      49.645   4.401  17.327  0.00  0.00    +0.000 A 
ATOM     13  C   UNL     1      50.302   5.592  17.003  0.00  0.00    +0.000 A 
ATOM     14  C   UNL     1      51.689   5.586  17.145  0.00  0.00    +0.000 A 
ATOM     15  N   UNL     1      52.420   4.539  17.553  0.00  0.00    +0.000 NA
BRANCH  10  17
ATOM     16  C   UNL     1      52.152   1.139  17.608  0.00  0.00    +0.000 C 
ATOM     17  O   UNL     1      52.497   2.341  18.308  0.00  0.00    +0.000 OA
ENDBRANCH  10  17
ENDBRANCH   4  13
ENDBRANCH   1   8
BRANCH   1  18
ATOM     18  N   UNL     1      46.372   7.423  13.278  0.00  0.00    +0.000 N 
ATOM     19  H   UNL     1      45.803   7.687  14.078  0.00  0.00    +0.000 HD
BRANCH  18  20
ATOM     20  C   UNL     1      45.843   6.324  12.592  0.00  0.00    +0.000 A 
ATOM     21  C   UNL     1      45.272   6.356  11.319  0.00  0.00    +0.000 A 
ATOM     22  C   UNL     1      44.652   5.203  10.813  0.00  0.00    +0.000 A 
ATOM     23  C   UNL     1      44.614   4.055  11.599  0.00  0.00    +0.000 A 
ATOM     24  N   UNL     1      45.164   3.984  12.839  0.00  0.00    +0.000 NA
ATOM     25  C   UNL     1      45.748   5.110  13.287  0.00  0.00    +0.000 A 
BRANCH  23  26
ATOM     26  C   UNL     1      43.944   2.824  11.112  0.00  0.00    +0.000 C 
ATOM     27  N   UNL     1      44.515   2.217  10.025  0.00  0.00    +0.000 N 
ATOM     28  O   UNL     1      42.952   2.359  11.636  0.00  0.00    +0.000 OA
ATOM     29  H   UNL     1      45.356   2.635   9.626  0.00  0.00    +0.000 HD
ATOM     30  H   UNL     1      44.125   1.370   9.653  0.00  0.00    +0.000 HD
ENDBRANCH  23  26
ENDBRANCH  18  20
ENDBRANCH   1  18
TORSDOF 6
ENDMDL
MODEL 8
REMARK VINA RESULT:    -6.957      2.236      7.897
REMARK INTER + INTRA:          -9.681
REMARK INTER:                  -9.759
REMARK INTRA:                   0.078
REMARK UNBOUND:                -0.283
REMARK  Name = 
REMARK  7 active torsions:
REMARK  status: ('A' for Active; 'I' for Inactive)
REMARK    1  A    between atoms: C_1  and  O_2
REMARK    2  A    between atoms: O_2  and  C_3
REMARK    3  A    between atoms: C_6  and  C_7
REMARK    4  A    between atoms: C_11  and  C_12
REMARK    5  A    between atoms: C_12  and  N_13
REMARK    6  A    between atoms: N_13  and  C_14
REMARK    7  A    between atoms: C_17  and  C_18
REMARK                            x       y       z     vdW  Elec       q    Type
REMARK                         _______ _______ _______ _____ _____    ______ ____
ROOT
ATOM      1  C   UNL     1      49.122   8.414  12.807  0.00  0.00    +0.000 C 
ATOM      2  C   UNL     1      49.928   9.195  11.794  0.00  0.00    +0.000 C 
ATOM      3  C   UNL     1      50.209   7.742  11.952  0.00  0.00    +0.000 C 
ENDROOT
BRANCH   1   8
ATOM      4  C   UNL     1      45.902   6.741  11.523  0.00  0.00    +0.000 A 
ATOM      5  C   UNL     1      44.937   7.686  11.888  0.00  0.00    +0.000 A 
ATOM      6  C   UNL     1      45.311   8.872  12.521  0.00  0.00    +0.000 A 
ATOM      7  C   UNL     1      46.655   9.124  12.802  0.00  0.00    +0.000 A 
ATOM      8  C   UNL     1      47.654   8.197  12.472  0.00  0.00    +0.000 A 
ATOM      9  C   UNL     1      47.243   7.021  11.837  0.00  0.00    +0.000 A 
BRANCH   4  13
ATOM     10  C   UNL     1      44.896   3.102   9.628  0.00  0.00    +0.000 A 
ATOM     11  C   UNL     1      45.373   4.128   8.830  0.00  0.00    +0.000 A 
ATOM     12  C   UNL     1      45.713   5.341   9.430  0.00  0.00    +0.000 A 
ATOM     13  C   UNL     1      45.570   5.500  10.811  0.00  0.00    +0.000 A 
ATOM     14  C   UNL     1      45.078   4.397  11.507  0.00  0.00    +0.000 A 
ATOM     15  N   UNL     1      44.749   3.219  10.958  0.00  0.00    +0.000 NA
BRANCH  10  17
ATOM     16  C   UNL     1      45.646   1.278   8.404  0.00  0.00    +0.000 C 
ATOM     17  O   UNL     1      44.532   1.906   9.051  0.00  0.00    +0.000 OA
ENDBRANCH  10  17
ENDBRANCH   4  13
ENDBRANCH   1   8
BRANCH   1  18
ATOM     18  N   UNL     1      49.420   8.251  14.233  0.00  0.00    +0.000 N 
ATOM     19  H   UNL     1      50.349   8.558  14.511  0.00  0.00    +0.000 HD
BRANCH  18  20
ATOM     20  C   UNL     1      48.872   7.337  15.140  0.00  0.00    +0.000 A 
ATOM     21  C   UNL     1      48.901   7.453  16.531  0.00  0.00    +0.000 A 
ATOM     22  C   UNL     1      48.437   6.390  17.321  0.00  0.00    +0.000 A 
ATOM     23  C   UNL     1      47.965   5.239  16.696  0.00  0.00    +0.000 A 
ATOM     24  N   UNL     1      47.914   5.092  15.347  0.00  0.00    +0.000 NA
ATOM     25  C   UNL     1      48.369   6.134  14.626  0.00  0.00    +0.000 A 
BRANCH  23  26
ATOM     26  C   UNL     1      47.490   4.083  17.495  0.00  0.00    +0.000 C 
ATOM     27  N   UNL     1      48.000   3.975  18.762  0.00  0.00    +0.000 N 
ATOM     28  O   UNL     1      46.691   3.271  17.074  0.00  0.00    +0.000 OA
ATOM     29  H   UNL     1      48.658   4.688  19.079  0.00  0.00    +0.000 HD
ATOM     30  H   UNL     1      47.709   3.227  19.365  0.00  0.00    +0.000 HD
ENDBRANCH  23  26
ENDBRANCH  18  20
ENDBRANCH   1  18
TORSDOF 6
ENDMDL
MODEL 9
REMARK VINA RESULT:    -6.845      2.131      8.422
REMARK INTER + INTRA:          -9.529
REMARK INTER:                  -8.455
REMARK INTRA:                  -1.074
REMARK UNBOUND:                -0.283
REMARK  Name = 
REMARK  7 active torsions:
REMARK  status: ('A' for Active; 'I' for Inactive)
REMARK    1  A    between atoms: C_1  and  O_2
REMARK    2  A    between atoms: O_2  and  C_3
REMARK    3  A    between atoms: C_6  and  C_7
REMARK    4  A    between atoms: C_11  and  C_12
REMARK    5  A    between atoms: C_12  and  N_13
REMARK    6  A    between atoms: N_13  and  C_14
REMARK    7  A    between atoms: C_17  and  C_18
REMARK                            x       y       z     vdW  Elec       q    Type
REMARK                         _______ _______ _______ _____ _____    ______ ____
ROOT
ATOM      1  C   UNL     1      46.407   7.622  12.712  0.00  0.00    +0.000 C 
ATOM      2  C   UNL     1      45.762   8.848  13.318  0.00  0.00    +0.000 C 
ATOM      3  C   UNL     1      46.452   8.989  12.007  0.00  0.00    +0.000 C 
ENDROOT
BRANCH   1   8
ATOM      4  C   UNL     1      44.992   4.726  10.609  0.00  0.00    +0.000 A 
ATOM      5  C   UNL     1      43.785   4.470  11.270  0.00  0.00    +0.000 A 
ATOM      6  C   UNL     1      43.405   5.237  12.371  0.00  0.00    +0.000 A 
ATOM      7  C   UNL     1      44.232   6.265  12.829  0.00  0.00    +0.000 A 
ATOM      8  C   UNL     1      45.459   6.544  12.210  0.00  0.00    +0.000 A 
ATOM      9  C   UNL     1      45.806   5.757  11.108  0.00  0.00    +0.000 A 
BRANCH   4  13
ATOM     10  C   UNL     1      46.261   2.739   7.103  0.00  0.00    +0.000 A 
ATOM     11  C   UNL     1      45.758   1.961   8.133  0.00  0.00    +0.000 A 
ATOM     12  C   UNL     1      45.332   2.591   9.303  0.00  0.00    +0.000 A 
ATOM     13  C   UNL     1      45.416   3.982   9.416  0.00  0.00    +0.000 A 
ATOM     14  C   UNL     1      45.941   4.656   8.313  0.00  0.00    +0.000 A 
ATOM     15  N   UNL     1      46.352   4.077   7.176  0.00  0.00    +0.000 NA
BRANCH  10  17
ATOM     16  C   UNL     1      48.141   2.136   5.884  0.00  0.00    +0.000 C 
ATOM     17  O   UNL     1      46.709   2.133   5.951  0.00  0.00    +0.000 OA
ENDBRANCH  10  17
ENDBRANCH   4  13
ENDBRANCH   1   8
BRANCH   1  18
ATOM     18  N   UNL     1      47.765   7.130  12.957  0.00  0.00    +0.000 N 
ATOM     19  H   UNL     1      48.222   6.719  12.146  0.00  0.00    +0.000 HD
BRANCH  18  20
ATOM     20  C   UNL     1      48.332   6.692  14.159  0.00  0.00    +0.000 A 
ATOM     21  C   UNL     1      47.815   5.694  14.987  0.00  0.00    +0.000 A 
ATOM     22  C   UNL     1      48.412   5.457  16.235  0.00  0.00    +0.000 A 
ATOM     23  C   UNL     1      49.502   6.231  16.621  0.00  0.00    +0.000 A 
ATOM     24  N   UNL     1      50.037   7.206  15.841  0.00  0.00    +0.000 NA
ATOM     25  C   UNL     1      49.435   7.401  14.653  0.00  0.00    +0.000 A 
BRANCH  23  26
ATOM     26  C   UNL     1      50.145   6.031  17.943  0.00  0.00    +0.000 C 
ATOM     27  N   UNL     1      49.568   5.093  18.758  0.00  0.00    +0.000 N 
ATOM     28  O   UNL     1      51.130   6.645  18.301  0.00  0.00    +0.000 OA
ATOM     29  H   UNL     1      48.750   4.590  18.412  0.00  0.00    +0.000 HD
ATOM     30  H   UNL     1      49.961   4.893  19.660  0.00  0.00    +0.000 HD
ENDBRANCH  23  26
ENDBRANCH  18  20
ENDBRANCH   1  18
TORSDOF 6
ENDMDL
