MODEL 1
REMARK VINA RESULT:    -8.535      0.000      0.000
REMARK INTER + INTRA:         -11.705
REMARK INTER:                 -11.030
REMARK INTRA:                  -0.675
REMARK UNBOUND:                -0.675
REMARK  Name = 
REMARK  5 active torsions:
REMARK  status: ('A' for Active; 'I' for Inactive)
REMARK    1  A    between atoms: C_2  and  C_3
REMARK    2  A    between atoms: C_6  and  C_7
REMARK    3  A    between atoms: C_7  and  N_8
REMARK    4  A    between atoms: N_8  and  C_9
REMARK    5  A    between atoms: C_12  and  C_13
REMARK                            x       y       z     vdW  Elec       q    Type
REMARK                         _______ _______ _______ _____ _____    ______ ____
ROOT
ATOM      1  N   UNL     1      44.051   4.796  10.166  0.00  0.00    +0.000 N 
ATOM      2  H   UNL     1      43.105   4.890   9.807  0.00  0.00    +0.000 HD
ENDROOT
BRANCH   1   3
ATOM      3  C   UNL     1      44.833   3.983   9.313  0.00  0.00    +0.000 A 
ATOM      4  C   UNL     1      44.892   2.587   9.404  0.00  0.00    +0.000 A 
ATOM      5  C   UNL     1      45.706   1.839   8.540  0.00  0.00    +0.000 A 
ATOM      6  C   UNL     1      46.514   2.487   7.601  0.00  0.00    +0.000 A 
ATOM      7  C   UNL     1      46.511   3.882   7.543  0.00  0.00    +0.000 A 
ATOM      8  C   UNL     1      45.680   4.618   8.393  0.00  0.00    +0.000 A 
BRANCH   6   9
ATOM      9  C   UNL     1      47.422   1.742   6.690  0.00  0.00    +0.000 C 
ATOM     10  N   UNL     1      48.489   2.421   6.169  0.00  0.00    +0.000 N 
ATOM     11  O   UNL     1      47.245   0.557   6.433  0.00  0.00    +0.000 OA
ATOM     12  H   UNL     1      48.796   3.315   6.523  0.00  0.00    +0.000 HD
ATOM     13  H   UNL     1      49.145   1.877   5.623  0.00  0.00    +0.000 HD
ENDBRANCH   6   9
ENDBRANCH   1   3
BRANCH   1  14
ATOM     14  C   UNL     1      44.184   4.777  11.647  0.00  0.00    +0.000 C 
ATOM     15  C   UNL     1      42.942   5.097  12.480  0.00  0.00    +0.000 C 
ATOM     16  C   UNL     1      43.486   3.713  12.476  0.00  0.00    +0.000 C 
ATOM     17  F   UNL     1      42.725   2.755  11.826  0.00  0.00    +0.000 F 
BRANCH  14  21
ATOM     18  C   UNL     1      47.779   6.536  13.265  0.00  0.00    +0.000 A 
ATOM     19  C   UNL     1      47.192   7.115  12.145  0.00  0.00    +0.000 A 
ATOM     20  C   UNL     1      46.043   6.535  11.603  0.00  0.00    +0.000 A 
ATOM     21  C   UNL     1      45.493   5.383  12.183  0.00  0.00    +0.000 A 
ATOM     22  N   UNL     1      46.076   4.818  13.275  0.00  0.00    +0.000 NA
ATOM     23  C   UNL     1      47.191   5.397  13.783  0.00  0.00    +0.000 A 
BRANCH  18  25
ATOM     24  N   UNL     1      49.888   7.531  14.382  0.00  0.00    +0.000 NA
ATOM     25  C   UNL     1      48.942   7.092  13.877  0.00  0.00    +0.000 C 
ENDBRANCH  18  25
ENDBRANCH  14  21
ENDBRANCH   1  14
TORSDOF 5
ENDMDL
MODEL 2
REMARK VINA RESULT:    -6.926      2.773      6.590
REMARK INTER + INTRA:          -9.625
REMARK INTER:                  -9.368
REMARK INTRA:                  -0.257
REMARK UNBOUND:                -0.675
REMARK  Name = 
REMARK  5 active torsions:
REMARK  status: ('A' for Active; 'I' for Inactive)
REMARK    1  A    between atoms: C_2  and  C_3
REMARK    2  A    between atoms: C_6  and  C_7
REMARK    3  A    between atoms: C_7  and  N_8
REMARK    4  A    between atoms: N_8  and  C_9
REMARK    5  A    between atoms: C_12  and  C_13
REMARK                            x       y       z     vdW  Elec       q    Type
REMARK                         _______ _______ _______ _____ _____    ______ ____
ROOT
ATOM      1  N   UNL     1      45.473   3.730  12.491  0.00  0.00    +0.000 N 
ATOM      2  H   UNL     1      45.372   3.134  13.307  0.00  0.00    +0.000 HD
ENDROOT
BRANCH   1   3
ATOM      3  C   UNL     1      46.005   4.989  12.851  0.00  0.00    +0.000 A 
ATOM      4  C   UNL     1      45.511   6.211  12.380  0.00  0.00    +0.000 A 
ATOM      5  C   UNL     1      46.099   7.427  12.760  0.00  0.00    +0.000 A 
ATOM      6  C   UNL     1      47.230   7.432  13.582  0.00  0.00    +0.000 A 
ATOM      7  C   UNL     1      47.771   6.217  14.008  0.00  0.00    +0.000 A 
ATOM      8  C   UNL     1      47.164   5.011  13.642  0.00  0.00    +0.000 A 
BRANCH   6   9
ATOM      9  C   UNL     1      47.913   8.690  13.982  0.00  0.00    +0.000 C 
ATOM     10  N   UNL     1      47.624   9.200  15.216  0.00  0.00    +0.000 N 
ATOM     11  O   UNL     1      48.728   9.239  13.250  0.00  0.00    +0.000 OA
ATOM     12  H   UNL     1      47.140   8.672  15.929  0.00  0.00    +0.000 HD
ATOM     13  H   UNL     1      48.163  10.005  15.509  0.00  0.00    +0.000 HD
ENDBRANCH   6   9
ENDBRANCH   1   3
BRANCH   1  14
ATOM     14  C   UNL     1      44.440   3.562  11.434  0.00  0.00    +0.000 C 
ATOM     15  C   UNL     1      43.247   2.656  11.739  0.00  0.00    +0.000 C 
ATOM     16  C   UNL     1      43.041   4.123  11.618  0.00  0.00    +0.000 C 
ATOM     17  F   UNL     1      42.745   4.801  12.789  0.00  0.00    +0.000 F 
BRANCH  14  21
ATOM     18  C   UNL     1      46.137   3.170   7.484  0.00  0.00    +0.000 A 
ATOM     19  C   UNL     1      45.860   4.441   7.973  0.00  0.00    +0.000 A 
ATOM     20  C   UNL     1      45.288   4.573   9.241  0.00  0.00    +0.000 A 
ATOM     21  C   UNL     1      44.997   3.434  10.005  0.00  0.00    +0.000 A 
ATOM     22  N   UNL     1      45.264   2.192   9.516  0.00  0.00    +0.000 NA
ATOM     23  C   UNL     1      45.817   2.089   8.284  0.00  0.00    +0.000 A 
BRANCH  18  25
ATOM     24  N   UNL     1      47.240   2.810   5.172  0.00  0.00    +0.000 NA
ATOM     25  C   UNL     1      46.738   2.970   6.205  0.00  0.00    +0.000 C 
ENDBRANCH  18  25
ENDBRANCH  14  21
ENDBRANCH   1  14
TORSDOF 5
ENDMDL
MODEL 3
REMARK VINA RESULT:    -6.813      2.998      6.725
REMARK INTER + INTRA:          -9.479
REMARK INTER:                  -9.584
REMARK INTRA:                   0.104
REMARK UNBOUND:                -0.675
REMARK  Name = 
REMARK  5 active torsions:
REMARK  status: ('A' for Active; 'I' for Inactive)
REMARK    1  A    between atoms: C_2  and  C_3
REMARK    2  A    between atoms: C_6  and  C_7
REMARK    3  A    between atoms: C_7  and  N_8
REMARK    4  A    between atoms: N_8  and  C_9
REMARK    5  A    between atoms: C_12  and  C_13
REMARK                            x       y       z     vdW  Elec       q    Type
REMARK                         _______ _______ _______ _____ _____    ______ ____
ROOT
ATOM      1  N   UNL     1      44.484   6.551  10.746  0.00  0.00    +0.000 N 
ATOM      2  H   UNL     1      44.546   6.925   9.803  0.00  0.00    +0.000 HD
ENDROOT
BRANCH   1   3
ATOM      3  C   UNL     1      45.456   7.143  11.585  0.00  0.00    +0.000 A 
ATOM      4  C   UNL     1      46.739   6.620  11.784  0.00  0.00    +0.000 A 
ATOM      5  C   UNL     1      47.651   7.245  12.649  0.00  0.00    +0.000 A 
ATOM      6  C   UNL     1      47.269   8.381  13.368  0.00  0.00    +0.000 A 
ATOM      7  C   UNL     1      45.971   8.877  13.225  0.00  0.00    +0.000 A 
ATOM      8  C   UNL     1      45.076   8.260  12.345  0.00  0.00    +0.000 A 
BRANCH   6   9
ATOM      9  C   UNL     1      48.184   9.058  14.324  0.00  0.00    +0.000 C 
ATOM     10  N   UNL     1      47.766   9.177  15.620  0.00  0.00    +0.000 N 
ATOM     11  O   UNL     1      49.285   9.469  13.979  0.00  0.00    +0.000 OA
ATOM     12  H   UNL     1      46.980   8.663  15.993  0.00  0.00    +0.000 HD
ATOM     13  H   UNL     1      48.436   9.559  16.276  0.00  0.00    +0.000 HD
ENDBRANCH   6   9
ENDBRANCH   1   3
BRANCH   1  14
ATOM     14  C   UNL     1      44.086   5.122  10.853  0.00  0.00    +0.000 C 
ATOM     15  C   UNL     1      43.929   4.526  12.252  0.00  0.00    +0.000 C 
ATOM     16  C   UNL     1      42.725   4.732  11.403  0.00  0.00    +0.000 C 
ATOM     17  F   UNL     1      41.857   5.735  11.801  0.00  0.00    +0.000 F 
BRANCH  14  21
ATOM     18  C   UNL     1      46.071   2.472   8.082  0.00  0.00    +0.000 A 
ATOM     19  C   UNL     1      46.226   3.845   7.927  0.00  0.00    +0.000 A 
ATOM     20  C   UNL     1      45.565   4.708   8.806  0.00  0.00    +0.000 A 
ATOM     21  C   UNL     1      44.758   4.190   9.828  0.00  0.00    +0.000 A 
ATOM     22  N   UNL     1      44.605   2.845   9.969  0.00  0.00    +0.000 NA
ATOM     23  C   UNL     1      45.254   2.028   9.105  0.00  0.00    +0.000 A 
BRANCH  18  25
ATOM     24  N   UNL     1      47.285   0.786   6.542  0.00  0.00    +0.000 NA
ATOM     25  C   UNL     1      46.734   1.539   7.229  0.00  0.00    +0.000 C 
ENDBRANCH  18  25
ENDBRANCH  14  21
ENDBRANCH   1  14
TORSDOF 5
ENDMDL
MODEL 4
REMARK VINA RESULT:    -5.781      2.845      6.572
REMARK INTER + INTRA:          -8.145
REMARK INTER:                  -8.739
REMARK INTRA:                   0.593
REMARK UNBOUND:                -0.675
REMARK  Name = 
REMARK  5 active torsions:
REMARK  status: ('A' for Active; 'I' for Inactive)
REMARK    1  A    between atoms: C_2  and  C_3
REMARK    2  A    between atoms: C_6  and  C_7
REMARK    3  A    between atoms: C_7  and  N_8
REMARK    4  A    between atoms: N_8  and  C_9
REMARK    5  A    between atoms: C_12  and  C_13
REMARK                            x       y       z     vdW  Elec       q    Type
REMARK                         _______ _______ _______ _____ _____    ______ ____
ROOT
ATOM      1  N   UNL     1      45.269   6.102  11.629  0.00  0.00    +0.000 N 
ATOM      2  H   UNL     1      45.762   6.692  10.966  0.00  0.00    +0.000 HD
ENDROOT
BRANCH   1   3
ATOM      3  C   UNL     1      46.084   5.813  12.748  0.00  0.00    +0.000 A 
ATOM      4  C   UNL     1      45.954   4.661  13.532  0.00  0.00    +0.000 A 
ATOM      5  C   UNL     1      46.782   4.444  14.644  0.00  0.00    +0.000 A 
ATOM      6  C   UNL     1      47.723   5.408  15.016  0.00  0.00    +0.000 A 
ATOM      7  C   UNL     1      47.820   6.590  14.279  0.00  0.00    +0.000 A 
ATOM      8  C   UNL     1      47.006   6.787  13.159  0.00  0.00    +0.000 A 
BRANCH   6   9
ATOM      9  C   UNL     1      48.597   5.244  16.207  0.00  0.00    +0.000 C 
ATOM     10  N   UNL     1      49.007   6.378  16.851  0.00  0.00    +0.000 N 
ATOM     11  O   UNL     1      48.919   4.136  16.621  0.00  0.00    +0.000 OA
ATOM     12  H   UNL     1      48.591   7.284  16.685  0.00  0.00    +0.000 HD
ATOM     13  H   UNL     1      49.526   6.246  17.710  0.00  0.00    +0.000 HD
ENDBRANCH   6   9
ENDBRANCH   1   3
BRANCH   1  14
ATOM     14  C   UNL     1      44.324   5.115  11.041  0.00  0.00    +0.000 C 
ATOM     15  C   UNL     1      43.349   4.409  11.983  0.00  0.00    +0.000 C 
ATOM     16  C   UNL     1      42.832   5.396  10.999  0.00  0.00    +0.000 C 
ATOM     17  F   UNL     1      42.366   6.594  11.515  0.00  0.00    +0.000 F 
BRANCH  14  21
ATOM     18  C   UNL     1      46.141   2.554   8.078  0.00  0.00    +0.000 A 
ATOM     19  C   UNL     1      46.243   3.933   7.928  0.00  0.00    +0.000 A 
ATOM     20  C   UNL     1      45.636   4.766   8.871  0.00  0.00    +0.000 A 
ATOM     21  C   UNL     1      44.932   4.215   9.951  0.00  0.00    +0.000 A 
ATOM     22  N   UNL     1      44.830   2.864  10.087  0.00  0.00    +0.000 NA
ATOM     23  C   UNL     1      45.426   2.076   9.160  0.00  0.00    +0.000 A 
BRANCH  18  25
ATOM     24  N   UNL     1      47.244   0.920   6.404  0.00  0.00    +0.000 NA
ATOM     25  C   UNL     1      46.755   1.650   7.160  0.00  0.00    +0.000 C 
ENDBRANCH  18  25
ENDBRANCH  14  21
ENDBRANCH   1  14
TORSDOF 5
ENDMDL
MODEL 5
REMARK VINA RESULT:    -5.556      4.631      6.460
REMARK INTER + INTRA:          -7.856
REMARK INTER:                  -7.095
REMARK INTRA:                  -0.760
REMARK UNBOUND:                -0.675
REMARK  Name = 
REMARK  5 active torsions:
REMARK  status: ('A' for Active; 'I' for Inactive)
REMARK    1  A    between atoms: C_2  and  C_3
REMARK    2  A    between atoms: C_6  and  C_7
REMARK    3  A    between atoms: C_7  and  N_8
REMARK    4  A    between atoms: N_8  and  C_9
REMARK    5  A    between atoms: C_12  and  C_13
REMARK                            x       y       z     vdW  Elec       q    Type
REMARK                         _______ _______ _______ _____ _____    ______ ____
ROOT
ATOM      1  N   UNL     1      48.703   6.621  12.687  0.00  0.00    +0.000 N 
ATOM      2  H   UNL     1      49.153   6.460  11.790  0.00  0.00    +0.000 HD
ENDROOT
BRANCH   1   3
ATOM      3  C   UNL     1      47.314   6.373  12.602  0.00  0.00    +0.000 A 
ATOM      4  C   UNL     1      46.410   7.211  11.941  0.00  0.00    +0.000 A 
ATOM      5  C   UNL     1      45.037   6.919  11.912  0.00  0.00    +0.000 A 
ATOM      6  C   UNL     1      44.544   5.803  12.594  0.00  0.00    +0.000 A 
ATOM      7  C   UNL     1      45.428   4.993  13.310  0.00  0.00    +0.000 A 
ATOM      8  C   UNL     1      46.797   5.280  13.314  0.00  0.00    +0.000 A 
BRANCH   6   9
ATOM      9  C   UNL     1      43.095   5.471  12.626  0.00  0.00    +0.000 C 
ATOM     10  N   UNL     1      42.269   6.170  11.791  0.00  0.00    +0.000 N 
ATOM     11  O   UNL     1      42.655   4.586  13.350  0.00  0.00    +0.000 OA
ATOM     12  H   UNL     1      42.611   6.739  11.030  0.00  0.00    +0.000 HD
ATOM     13  H   UNL     1      41.302   5.871  11.760  0.00  0.00    +0.000 HD
ENDBRANCH   6   9
ENDBRANCH   1   3
BRANCH   1  14
ATOM     14  C   UNL     1      49.281   7.712  13.516  0.00  0.00    +0.000 C 
ATOM     15  C   UNL     1      50.632   8.291  13.094  0.00  0.00    +0.000 C 
ATOM     16  C   UNL     1      49.406   9.123  12.966  0.00  0.00    +0.000 C 
ATOM     17  F   UNL     1      48.967   9.376  11.677  0.00  0.00    +0.000 F 
BRANCH  14  21
ATOM     18  C   UNL     1      48.657   7.127  17.747  0.00  0.00    +0.000 A 
ATOM     19  C   UNL     1      48.447   8.390  17.205  0.00  0.00    +0.000 A 
ATOM     20  C   UNL     1      48.671   8.591  15.841  0.00  0.00    +0.000 A 
ATOM     21  C   UNL     1      49.104   7.529  15.033  0.00  0.00    +0.000 A 
ATOM     22  N   UNL     1      49.315   6.298  15.572  0.00  0.00    +0.000 NA
ATOM     23  C   UNL     1      49.092   6.126  16.898  0.00  0.00    +0.000 A 
BRANCH  18  25
ATOM     24  N   UNL     1      48.228   6.625  20.247  0.00  0.00    +0.000 NA
ATOM     25  C   UNL     1      48.427   6.853  19.129  0.00  0.00    +0.000 C 
ENDBRANCH  18  25
ENDBRANCH  14  21
ENDBRANCH   1  14
TORSDOF 5
ENDMDL
