MODEL 1
REMARK VINA RESULT:    -7.905      0.000      0.000
REMARK INTER + INTRA:         -12.753
REMARK INTER:                 -11.602
REMARK INTRA:                  -1.151
REMARK UNBOUND:                -1.151
REMARK  Name = 
REMARK  9 active torsions:
REMARK  status: ('A' for Active; 'I' for Inactive)
REMARK    1  A    between atoms: C_1  and  C_2
REMARK    2  A    between atoms: C_2  and  C_3
REMARK    3  A    between atoms: C_3  and  N_4
REMARK    4  A    between atoms: C_10  and  C_11
REMARK    5  A    between atoms: N_13  and  C_14
REMARK    6  A    between atoms: C_14  and  C_15
REMARK    7  A    between atoms: C_18  and  C_19
REMARK    8  A    between atoms: C_19  and  N_20
REMARK    9  A    between atoms: C_21  and  C_23
REMARK                            x       y       z     vdW  Elec       q    Type
REMARK                         _______ _______ _______ _____ _____    ______ ____
ROOT
ATOM      1  C   UNL     1      46.189   8.745  12.962  0.00  0.00    +0.000 C 
ENDROOT
BRANCH   1   2
ATOM      2  C   UNL     1      45.692   7.380  12.553  0.00  0.00    +0.000 A 
ATOM      3  C   UNL     1      44.600   7.303  11.682  0.00  0.00    +0.000 A 
ATOM      4  C   UNL     1      44.095   6.066  11.260  0.00  0.00    +0.000 A 
ATOM      5  C   UNL     1      44.668   4.866  11.708  0.00  0.00    +0.000 A 
ATOM      6  C   UNL     1      45.746   4.944  12.596  0.00  0.00    +0.000 A 
ATOM      7  C   UNL     1      46.264   6.181  13.001  0.00  0.00    +0.000 A 
BRANCH   5   8
ATOM      8  C   UNL     1      44.175   3.503  11.297  0.00  0.00    +0.000 C 
BRANCH   8   9
ATOM      9  N   UNL     1      45.006   2.860  10.316  0.00  0.00    +0.000 N 
ATOM     10  C   UNL     1      44.987   3.229   8.993  0.00  0.00    +0.000 C 
ATOM     11  O   UNL     1      44.249   4.100   8.542  0.00  0.00    +0.000 OA
ATOM     12  H   UNL     1      45.727   2.222  10.616  0.00  0.00    +0.000 HD
BRANCH  10  13
ATOM     13  C   UNL     1      45.943   2.507   8.183  0.00  0.00    +0.000 A 
ATOM     14  C   UNL     1      46.858   2.955   7.241  0.00  0.00    +0.000 A 
ATOM     15  C   UNL     1      47.520   1.830   6.701  0.00  0.00    +0.000 A 
ATOM     16  C   UNL     1      47.004   0.718   7.323  0.00  0.00    +0.000 A 
ATOM     17  N   UNL     1      46.074   1.137   8.238  0.00  0.00    +0.000 N 
ATOM     18  H   UNL     1      45.534   0.544   8.856  0.00  0.00    +0.000 HD
ENDBRANCH  10  13
ENDBRANCH   8   9
ENDBRANCH   5   8
ENDBRANCH   1   2
BRANCH   1  21
ATOM     19  C   UNL     1      48.107   8.802  14.493  0.00  0.00    +0.000 C 
ATOM     20  O   UNL     1      48.912   8.746  13.553  0.00  0.00    +0.000 OA
ATOM     21  N   UNL     1      46.754   8.779  14.286  0.00  0.00    +0.000 N 
ATOM     22  H   UNL     1      46.140   9.042  15.049  0.00  0.00    +0.000 HD
BRANCH  19  29
ATOM     23  N   UNL     1      49.444   5.531  17.508  0.00  0.00    +0.000 N 
ATOM     24  C   UNL     1      49.809   6.094  18.712  0.00  0.00    +0.000 A 
ATOM     25  N   UNL     1      49.761   7.356  19.004  0.00  0.00    +0.000 NA
ATOM     26  C   UNL     1      49.308   8.147  18.008  0.00  0.00    +0.000 A 
ATOM     27  S   UNL     1      49.120   9.813  18.247  0.00  0.00    +0.000 S 
ATOM     28  C   UNL     1      48.583  10.034  16.637  0.00  0.00    +0.000 A 
ATOM     29  C   UNL     1      48.538   8.858  15.897  0.00  0.00    +0.000 A 
ATOM     30  C   UNL     1      48.963   7.749  16.727  0.00  0.00    +0.000 A 
ATOM     31  C   UNL     1      49.081   6.331  16.436  0.00  0.00    +0.000 A 
ATOM     32  O   UNL     1      48.940   5.866  15.288  0.00  0.00    +0.000 OA
BRANCH  23  33
ATOM     33  C   UNL     1      49.588   4.100  17.276  0.00  0.00    +0.000 C 
BRANCH  33  35
ATOM     34  C   UNL     1      47.181   3.348  17.261  0.00  0.00    +0.000 C 
ATOM     35  C   UNL     1      48.514   3.269  17.989  0.00  0.00    +0.000 C 
ENDBRANCH  33  35
ENDBRANCH  23  33
ENDBRANCH  19  29
ENDBRANCH   1  21
TORSDOF 8
ENDMDL
MODEL 2
REMARK VINA RESULT:    -7.667      4.445      9.615
REMARK INTER + INTRA:         -12.404
REMARK INTER:                 -11.944
REMARK INTRA:                  -0.460
REMARK UNBOUND:                -1.151
REMARK  Name = 
REMARK  9 active torsions:
REMARK  status: ('A' for Active; 'I' for Inactive)
REMARK    1  A    between atoms: C_1  and  C_2
REMARK    2  A    between atoms: C_2  and  C_3
REMARK    3  A    between atoms: C_3  and  N_4
REMARK    4  A    between atoms: C_10  and  C_11
REMARK    5  A    between atoms: N_13  and  C_14
REMARK    6  A    between atoms: C_14  and  C_15
REMARK    7  A    between atoms: C_18  and  C_19
REMARK    8  A    between atoms: C_19  and  N_20
REMARK    9  A    between atoms: C_21  and  C_23
REMARK                            x       y       z     vdW  Elec       q    Type
REMARK                         _______ _______ _______ _____ _____    ______ ____
ROOT
ATOM      1  C   UNL     1      47.524   3.730  17.256  0.00  0.00    +0.000 C 
ENDROOT
BRANCH   1   2
ATOM      2  C   UNL     1      48.984   3.405  17.453  0.00  0.00    +0.000 A 
ATOM      3  C   UNL     1      49.447   2.148  17.049  0.00  0.00    +0.000 A 
ATOM      4  C   UNL     1      50.793   1.787  17.201  0.00  0.00    +0.000 A 
ATOM      5  C   UNL     1      51.715   2.677  17.772  0.00  0.00    +0.000 A 
ATOM      6  C   UNL     1      51.247   3.925  18.196  0.00  0.00    +0.000 A 
ATOM      7  C   UNL     1      49.906   4.293  18.025  0.00  0.00    +0.000 A 
BRANCH   5   8
ATOM      8  C   UNL     1      53.173   2.354  17.967  0.00  0.00    +0.000 C 
BRANCH   8   9
ATOM      9  N   UNL     1      53.406   1.053  18.534  0.00  0.00    +0.000 N 
ATOM     10  C   UNL     1      53.963   0.032  17.805  0.00  0.00    +0.000 C 
ATOM     11  O   UNL     1      54.273   0.133  16.621  0.00  0.00    +0.000 OA
ATOM     12  H   UNL     1      53.295   0.917  19.526  0.00  0.00    +0.000 HD
BRANCH  10  13
ATOM     13  C   UNL     1      54.174  -1.173  18.575  0.00  0.00    +0.000 A 
ATOM     14  C   UNL     1      55.331  -1.890  18.842  0.00  0.00    +0.000 A 
ATOM     15  C   UNL     1      54.980  -3.024  19.608  0.00  0.00    +0.000 A 
ATOM     16  C   UNL     1      53.619  -2.978  19.799  0.00  0.00    +0.000 A 
ATOM     17  N   UNL     1      53.144  -1.842  19.199  0.00  0.00    +0.000 N 
ATOM     18  H   UNL     1      52.180  -1.533  19.182  0.00  0.00    +0.000 HD
ENDBRANCH  10  13
ENDBRANCH   8   9
ENDBRANCH   5   8
ENDBRANCH   1   2
BRANCH   1  21
ATOM     19  C   UNL     1      47.270   4.215  14.863  0.00  0.00    +0.000 C 
ATOM     20  O   UNL     1      47.519   3.041  14.555  0.00  0.00    +0.000 OA
ATOM     21  N   UNL     1      47.280   4.638  16.165  0.00  0.00    +0.000 N 
ATOM     22  H   UNL     1      46.865   5.535  16.388  0.00  0.00    +0.000 HD
BRANCH  19  29
ATOM     23  N   UNL     1      44.852   4.165  10.897  0.00  0.00    +0.000 N 
ATOM     24  C   UNL     1      44.828   5.416  10.321  0.00  0.00    +0.000 A 
ATOM     25  N   UNL     1      45.422   6.472  10.781  0.00  0.00    +0.000 NA
ATOM     26  C   UNL     1      46.108   6.279  11.927  0.00  0.00    +0.000 A 
ATOM     27  S   UNL     1      46.997   7.541  12.625  0.00  0.00    +0.000 S 
ATOM     28  C   UNL     1      47.482   6.544  13.929  0.00  0.00    +0.000 A 
ATOM     29  C   UNL     1      46.984   5.248  13.858  0.00  0.00    +0.000 A 
ATOM     30  C   UNL     1      46.179   5.107  12.660  0.00  0.00    +0.000 A 
ATOM     31  C   UNL     1      45.457   3.965  12.128  0.00  0.00    +0.000 A 
ATOM     32  O   UNL     1      45.322   2.899  12.761  0.00  0.00    +0.000 OA
BRANCH  23  33
ATOM     33  C   UNL     1      44.104   3.058  10.315  0.00  0.00    +0.000 C 
BRANCH  33  35
ATOM     34  C   UNL     1      45.607   1.773   8.750  0.00  0.00    +0.000 C 
ATOM     35  C   UNL     1      44.479   2.788   8.852  0.00  0.00    +0.000 C 
ENDBRANCH  33  35
ENDBRANCH  23  33
ENDBRANCH  19  29
ENDBRANCH   1  21
TORSDOF 8
ENDMDL
MODEL 3
REMARK VINA RESULT:    -6.978      1.973      2.404
REMARK INTER + INTRA:         -11.393
REMARK INTER:                 -10.207
REMARK INTRA:                  -1.186
REMARK UNBOUND:                -1.151
REMARK  Name = 
REMARK  9 active torsions:
REMARK  status: ('A' for Active; 'I' for Inactive)
REMARK    1  A    between atoms: C_1  and  C_2
REMARK    2  A    between atoms: C_2  and  C_3
REMARK    3  A    between atoms: C_3  and  N_4
REMARK    4  A    between atoms: C_10  and  C_11
REMARK    5  A    between atoms: N_13  and  C_14
REMARK    6  A    between atoms: C_14  and  C_15
REMARK    7  A    between atoms: C_18  and  C_19
REMARK    8  A    between atoms: C_19  and  N_20
REMARK    9  A    between atoms: C_21  and  C_23
REMARK                            x       y       z     vdW  Elec       q    Type
REMARK                         _______ _______ _______ _____ _____    ______ ____
ROOT
ATOM      1  C   UNL     1      47.839   8.845  14.123  0.00  0.00    +0.000 C 
ENDROOT
BRANCH   1   2
ATOM      2  C   UNL     1      46.956   8.033  13.208  0.00  0.00    +0.000 A 
ATOM      3  C   UNL     1      47.436   6.807  12.734  0.00  0.00    +0.000 A 
ATOM      4  C   UNL     1      46.662   6.004  11.886  0.00  0.00    +0.000 A 
ATOM      5  C   UNL     1      45.383   6.412  11.480  0.00  0.00    +0.000 A 
ATOM      6  C   UNL     1      44.912   7.648  11.937  0.00  0.00    +0.000 A 
ATOM      7  C   UNL     1      45.677   8.441  12.801  0.00  0.00    +0.000 A 
BRANCH   5   8
ATOM      8  C   UNL     1      44.500   5.600  10.570  0.00  0.00    +0.000 C 
BRANCH   8   9
ATOM      9  N   UNL     1      45.228   4.784   9.636  0.00  0.00    +0.000 N 
ATOM     10  C   UNL     1      44.838   3.504   9.331  0.00  0.00    +0.000 C 
ATOM     11  O   UNL     1      43.872   2.947   9.846  0.00  0.00    +0.000 OA
ATOM     12  H   UNL     1      45.958   5.199   9.078  0.00  0.00    +0.000 HD
BRANCH  10  13
ATOM     13  C   UNL     1      45.663   2.877   8.323  0.00  0.00    +0.000 A 
ATOM     14  C   UNL     1      46.167   3.369   7.127  0.00  0.00    +0.000 A 
ATOM     15  C   UNL     1      46.877   2.329   6.487  0.00  0.00    +0.000 A 
ATOM     16  C   UNL     1      46.800   1.225   7.303  0.00  0.00    +0.000 A 
ATOM     17  N   UNL     1      46.092   1.572   8.423  0.00  0.00    +0.000 N 
ATOM     18  H   UNL     1      45.881   0.969   9.209  0.00  0.00    +0.000 HD
ENDBRANCH  10  13
ENDBRANCH   8   9
ENDBRANCH   5   8
ENDBRANCH   1   2
BRANCH   1  21
ATOM     19  C   UNL     1      49.993   8.761  15.295  0.00  0.00    +0.000 C 
ATOM     20  O   UNL     1      49.914   9.955  15.615  0.00  0.00    +0.000 OA
ATOM     21  N   UNL     1      49.029   8.150  14.540  0.00  0.00    +0.000 N 
ATOM     22  H   UNL     1      49.022   7.138  14.486  0.00  0.00    +0.000 HD
BRANCH  19  29
ATOM     23  N   UNL     1      50.380   4.910  17.863  0.00  0.00    +0.000 N 
ATOM     24  C   UNL     1      51.681   4.457  17.875  0.00  0.00    +0.000 A 
ATOM     25  N   UNL     1      52.687   5.028  17.290  0.00  0.00    +0.000 NA
ATOM     26  C   UNL     1      52.382   6.161  16.623  0.00  0.00    +0.000 A 
ATOM     27  S   UNL     1      53.593   7.067  15.859  0.00  0.00    +0.000 S 
ATOM     28  C   UNL     1      52.450   8.206  15.290  0.00  0.00    +0.000 A 
ATOM     29  C   UNL     1      51.142   7.922  15.665  0.00  0.00    +0.000 A 
ATOM     30  C   UNL     1      51.121   6.711  16.462  0.00  0.00    +0.000 A 
ATOM     31  C   UNL     1      50.021   6.007  17.096  0.00  0.00    +0.000 A 
ATOM     32  O   UNL     1      48.828   6.315  16.909  0.00  0.00    +0.000 OA
BRANCH  23  33
ATOM     33  C   UNL     1      49.318   4.156  18.516  0.00  0.00    +0.000 C 
BRANCH  33  35
ATOM     34  C   UNL     1      47.386   2.928  17.458  0.00  0.00    +0.000 C 
ATOM     35  C   UNL     1      48.885   2.920  17.717  0.00  0.00    +0.000 C 
ENDBRANCH  33  35
ENDBRANCH  23  33
ENDBRANCH  19  29
ENDBRANCH   1  21
TORSDOF 8
ENDMDL
MODEL 4
REMARK VINA RESULT:    -6.939      4.430      8.944
REMARK INTER + INTRA:         -11.335
REMARK INTER:                  -9.978
REMARK INTRA:                  -1.357
REMARK UNBOUND:                -1.151
REMARK  Name = 
REMARK  9 active torsions:
REMARK  status: ('A' for Active; 'I' for Inactive)
REMARK    1  A    between atoms: C_1  and  C_2
REMARK    2  A    between atoms: C_2  and  C_3
REMARK    3  A    between atoms: C_3  and  N_4
REMARK    4  A    between atoms: C_10  and  C_11
REMARK    5  A    between atoms: N_13  and  C_14
REMARK    6  A    between atoms: C_14  and  C_15
REMARK    7  A    between atoms: C_18  and  C_19
REMARK    8  A    between atoms: C_19  and  N_20
REMARK    9  A    between atoms: C_21  and  C_23
REMARK                            x       y       z     vdW  Elec       q    Type
REMARK                         _______ _______ _______ _____ _____    ______ ____
ROOT
ATOM      1  C   UNL     1      47.174   3.701  16.866  0.00  0.00    +0.000 C 
ENDROOT
BRANCH   1   2
ATOM      2  C   UNL     1      48.623   3.394  17.159  0.00  0.00    +0.000 A 
ATOM      3  C   UNL     1      49.397   4.375  17.788  0.00  0.00    +0.000 A 
ATOM      4  C   UNL     1      50.746   4.150  18.092  0.00  0.00    +0.000 A 
ATOM      5  C   UNL     1      51.362   2.932  17.766  0.00  0.00    +0.000 A 
ATOM      6  C   UNL     1      50.593   1.960  17.117  0.00  0.00    +0.000 A 
ATOM      7  C   UNL     1      49.239   2.178  16.832  0.00  0.00    +0.000 A 
BRANCH   5   8
ATOM      8  C   UNL     1      52.806   2.624  18.062  0.00  0.00    +0.000 C 
BRANCH   8   9
ATOM      9  N   UNL     1      53.043   1.251  18.418  0.00  0.00    +0.000 N 
ATOM     10  C   UNL     1      53.957   0.474  17.751  0.00  0.00    +0.000 C 
ATOM     11  O   UNL     1      54.613   0.871  16.791  0.00  0.00    +0.000 OA
ATOM     12  H   UNL     1      52.640   0.881  19.264  0.00  0.00    +0.000 HD
BRANCH  10  13
ATOM     13  C   UNL     1      54.092  -0.855  18.303  0.00  0.00    +0.000 A 
ATOM     14  C   UNL     1      55.114  -1.787  18.190  0.00  0.00    +0.000 A 
ATOM     15  C   UNL     1      54.727  -2.952  18.887  0.00  0.00    +0.000 A 
ATOM     16  C   UNL     1      53.481  -2.712  19.417  0.00  0.00    +0.000 A 
ATOM     17  N   UNL     1      53.118  -1.433  19.086  0.00  0.00    +0.000 N 
ATOM     18  H   UNL     1      52.256  -0.970  19.347  0.00  0.00    +0.000 HD
ENDBRANCH  10  13
ENDBRANCH   8   9
ENDBRANCH   5   8
ENDBRANCH   1   2
BRANCH   1  21
ATOM     19  C   UNL     1      47.011   4.329  14.499  0.00  0.00    +0.000 C 
ATOM     20  O   UNL     1      47.233   3.167  14.132  0.00  0.00    +0.000 OA
ATOM     21  N   UNL     1      46.993   4.676  15.823  0.00  0.00    +0.000 N 
ATOM     22  H   UNL     1      46.599   5.573  16.085  0.00  0.00    +0.000 HD
BRANCH  19  29
ATOM     23  N   UNL     1      49.248   8.326  13.725  0.00  0.00    +0.000 N 
ATOM     24  C   UNL     1      48.681   9.009  12.671  0.00  0.00    +0.000 A 
ATOM     25  N   UNL     1      47.643   8.630  11.994  0.00  0.00    +0.000 NA
ATOM     26  C   UNL     1      47.107   7.457  12.394  0.00  0.00    +0.000 A 
ATOM     27  S   UNL     1      45.706   6.853  11.658  0.00  0.00    +0.000 S 
ATOM     28  C   UNL     1      45.729   5.457  12.649  0.00  0.00    +0.000 A 
ATOM     29  C   UNL     1      46.789   5.426  13.547  0.00  0.00    +0.000 A 
ATOM     30  C   UNL     1      47.591   6.623  13.388  0.00  0.00    +0.000 A 
ATOM     31  C   UNL     1      48.785   7.070  14.084  0.00  0.00    +0.000 A 
ATOM     32  O   UNL     1      49.400   6.349  14.894  0.00  0.00    +0.000 OA
BRANCH  23  33
ATOM     33  C   UNL     1      50.449   8.825  14.383  0.00  0.00    +0.000 C 
BRANCH  33  35
ATOM     34  C   UNL     1      52.880   8.157  14.433  0.00  0.00    +0.000 C 
ATOM     35  C   UNL     1      51.720   8.598  13.554  0.00  0.00    +0.000 C 
ENDBRANCH  33  35
ENDBRANCH  23  33
ENDBRANCH  19  29
ENDBRANCH   1  21
TORSDOF 8
ENDMDL
MODEL 5
REMARK VINA RESULT:    -6.895      2.761      9.489
REMARK INTER + INTRA:         -11.271
REMARK INTER:                 -10.174
REMARK INTRA:                  -1.097
REMARK UNBOUND:                -1.151
REMARK  Name = 
REMARK  9 active torsions:
REMARK  status: ('A' for Active; 'I' for Inactive)
REMARK    1  A    between atoms: C_1  and  C_2
REMARK    2  A    between atoms: C_2  and  C_3
REMARK    3  A    between atoms: C_3  and  N_4
REMARK    4  A    between atoms: C_10  and  C_11
REMARK    5  A    between atoms: N_13  and  C_14
REMARK    6  A    between atoms: C_14  and  C_15
REMARK    7  A    between atoms: C_18  and  C_19
REMARK    8  A    between atoms: C_19  and  N_20
REMARK    9  A    between atoms: C_21  and  C_23
REMARK                            x       y       z     vdW  Elec       q    Type
REMARK                         _______ _______ _______ _____ _____    ______ ____
ROOT
ATOM      1  C   UNL     1      47.472   7.874  11.655  0.00  0.00    +0.000 C 
ENDROOT
BRANCH   1   2
ATOM      2  C   UNL     1      48.169   8.030  12.984  0.00  0.00    +0.000 A 
ATOM      3  C   UNL     1      49.451   7.490  13.131  0.00  0.00    +0.000 A 
ATOM      4  C   UNL     1      50.153   7.606  14.339  0.00  0.00    +0.000 A 
ATOM      5  C   UNL     1      49.584   8.262  15.440  0.00  0.00    +0.000 A 
ATOM      6  C   UNL     1      48.293   8.783  15.299  0.00  0.00    +0.000 A 
ATOM      7  C   UNL     1      47.600   8.685  14.086  0.00  0.00    +0.000 A 
BRANCH   5   8
ATOM      8  C   UNL     1      50.280   8.421  16.766  0.00  0.00    +0.000 C 
BRANCH   8   9
ATOM      9  N   UNL     1      49.578   7.813  17.864  0.00  0.00    +0.000 N 
ATOM     10  C   UNL     1      49.643   6.464  18.110  0.00  0.00    +0.000 C 
ATOM     11  O   UNL     1      50.268   5.675  17.408  0.00  0.00    +0.000 OA
ATOM     12  H   UNL     1      49.141   8.397  18.559  0.00  0.00    +0.000 HD
BRANCH  10  13
ATOM     13  C   UNL     1      48.921   6.062  19.297  0.00  0.00    +0.000 A 
ATOM     14  C   UNL     1      47.953   6.724  20.039  0.00  0.00    +0.000 A 
ATOM     15  C   UNL     1      47.605   5.907  21.137  0.00  0.00    +0.000 A 
ATOM     16  C   UNL     1      48.360   4.761  21.046  0.00  0.00    +0.000 A 
ATOM     17  N   UNL     1      49.130   4.850  19.916  0.00  0.00    +0.000 N 
ATOM     18  H   UNL     1      49.780   4.150  19.579  0.00  0.00    +0.000 HD
ENDBRANCH  10  13
ENDBRANCH   8   9
ENDBRANCH   5   8
ENDBRANCH   1   2
BRANCH   1  21
ATOM     19  C   UNL     1      45.387   6.588  11.518  0.00  0.00    +0.000 C 
ATOM     20  O   UNL     1      44.699   7.605  11.675  0.00  0.00    +0.000 OA
ATOM     21  N   UNL     1      46.755   6.633  11.524  0.00  0.00    +0.000 N 
ATOM     22  H   UNL     1      47.270   5.830  11.180  0.00  0.00    +0.000 HD
BRANCH  19  29
ATOM     23  N   UNL     1      45.493   3.500   8.050  0.00  0.00    +0.000 N 
ATOM     24  C   UNL     1      44.814   2.351   8.394  0.00  0.00    +0.000 A 
ATOM     25  N   UNL     1      44.190   2.147   9.512  0.00  0.00    +0.000 NA
ATOM     26  C   UNL     1      44.240   3.179  10.381  0.00  0.00    +0.000 A 
ATOM     27  S   UNL     1      43.419   3.101  11.861  0.00  0.00    +0.000 S 
ATOM     28  C   UNL     1      43.980   4.655  12.310  0.00  0.00    +0.000 A 
ATOM     29  C   UNL     1      44.792   5.253  11.354  0.00  0.00    +0.000 A 
ATOM     30  C   UNL     1      44.928   4.368  10.214  0.00  0.00    +0.000 A 
ATOM     31  C   UNL     1      45.652   4.528   8.965  0.00  0.00    +0.000 A 
ATOM     32  O   UNL     1      46.424   5.484   8.752  0.00  0.00    +0.000 OA
BRANCH  23  33
ATOM     33  C   UNL     1      46.203   3.598   6.781  0.00  0.00    +0.000 C 
BRANCH  33  35
ATOM     34  C   UNL     1      47.891   1.732   6.929  0.00  0.00    +0.000 C 
ATOM     35  C   UNL     1      46.636   2.232   6.232  0.00  0.00    +0.000 C 
ENDBRANCH  33  35
ENDBRANCH  23  33
ENDBRANCH  19  29
ENDBRANCH   1  21
TORSDOF 8
ENDMDL
MODEL 6
REMARK VINA RESULT:    -6.513      3.006      9.271
REMARK INTER + INTRA:         -10.710
REMARK INTER:                  -9.804
REMARK INTRA:                  -0.906
REMARK UNBOUND:                -1.151
REMARK  Name = 
REMARK  9 active torsions:
REMARK  status: ('A' for Active; 'I' for Inactive)
REMARK    1  A    between atoms: C_1  and  C_2
REMARK    2  A    between atoms: C_2  and  C_3
REMARK    3  A    between atoms: C_3  and  N_4
REMARK    4  A    between atoms: C_10  and  C_11
REMARK    5  A    between atoms: N_13  and  C_14
REMARK    6  A    between atoms: C_14  and  C_15
REMARK    7  A    between atoms: C_18  and  C_19
REMARK    8  A    between atoms: C_19  and  N_20
REMARK    9  A    between atoms: C_21  and  C_23
REMARK                            x       y       z     vdW  Elec       q    Type
REMARK                         _______ _______ _______ _____ _____    ______ ____
ROOT
ATOM      1  C   UNL     1      46.695   8.121  12.842  0.00  0.00    +0.000 C 
ENDROOT
BRANCH   1   2
ATOM      2  C   UNL     1      47.747   8.086  13.922  0.00  0.00    +0.000 A 
ATOM      3  C   UNL     1      48.607   6.984  13.978  0.00  0.00    +0.000 A 
ATOM      4  C   UNL     1      49.609   6.895  14.955  0.00  0.00    +0.000 A 
ATOM      5  C   UNL     1      49.771   7.908  15.911  0.00  0.00    +0.000 A 
ATOM      6  C   UNL     1      48.896   8.999  15.868  0.00  0.00    +0.000 A 
ATOM      7  C   UNL     1      47.909   9.098  14.880  0.00  0.00    +0.000 A 
BRANCH   5   8
ATOM      8  C   UNL     1      50.824   7.875  16.988  0.00  0.00    +0.000 C 
BRANCH   8   9
ATOM      9  N   UNL     1      51.258   6.548  17.331  0.00  0.00    +0.000 N 
ATOM     10  C   UNL     1      52.483   6.061  16.944  0.00  0.00    +0.000 C 
ATOM     11  O   UNL     1      53.280   6.696  16.259  0.00  0.00    +0.000 OA
ATOM     12  H   UNL     1      50.723   6.004  17.989  0.00  0.00    +0.000 HD
BRANCH  10  13
ATOM     13  C   UNL     1      52.756   4.732  17.444  0.00  0.00    +0.000 A 
ATOM     14  C   UNL     1      53.954   4.111  17.767  0.00  0.00    +0.000 A 
ATOM     15  C   UNL     1      53.669   2.786  18.165  0.00  0.00    +0.000 A 
ATOM     16  C   UNL     1      52.306   2.623  18.085  0.00  0.00    +0.000 A 
ATOM     17  N   UNL     1      51.759   3.811  17.678  0.00  0.00    +0.000 N 
ATOM     18  H   UNL     1      50.774   3.999  17.539  0.00  0.00    +0.000 HD
ENDBRANCH  10  13
ENDBRANCH   8   9
ENDBRANCH   5   8
ENDBRANCH   1   2
BRANCH   1  21
ATOM     19  C   UNL     1      45.030   6.689  11.745  0.00  0.00    +0.000 C 
ATOM     20  O   UNL     1      44.432   7.669  11.279  0.00  0.00    +0.000 OA
ATOM     21  N   UNL     1      46.133   6.829  12.543  0.00  0.00    +0.000 N 
ATOM     22  H   UNL     1      46.712   6.016  12.721  0.00  0.00    +0.000 HD
BRANCH  19  29
ATOM     23  N   UNL     1      45.672   3.729   8.223  0.00  0.00    +0.000 N 
ATOM     24  C   UNL     1      45.088   2.511   8.493  0.00  0.00    +0.000 A 
ATOM     25  N   UNL     1      44.414   2.214   9.560  0.00  0.00    +0.000 NA
ATOM     26  C   UNL     1      44.304   3.220  10.454  0.00  0.00    +0.000 A 
ATOM     27  S   UNL     1      43.398   3.020  11.871  0.00  0.00    +0.000 S 
ATOM     28  C   UNL     1      43.772   4.606  12.393  0.00  0.00    +0.000 A 
ATOM     29  C   UNL     1      44.583   5.309  11.509  0.00  0.00    +0.000 A 
ATOM     30  C   UNL     1      44.881   4.475  10.362  0.00  0.00    +0.000 A 
ATOM     31  C   UNL     1      45.667   4.741   9.169  0.00  0.00    +0.000 A 
ATOM     32  O   UNL     1      46.353   5.773   9.032  0.00  0.00    +0.000 OA
BRANCH  23  33
ATOM     33  C   UNL     1      46.451   3.933   7.008  0.00  0.00    +0.000 C 
BRANCH  33  35
ATOM     34  C   UNL     1      47.939   2.100   6.122  0.00  0.00    +0.000 C 
ATOM     35  C   UNL     1      46.531   2.676   6.133  0.00  0.00    +0.000 C 
ENDBRANCH  33  35
ENDBRANCH  23  33
ENDBRANCH  19  29
ENDBRANCH   1  21
TORSDOF 8
ENDMDL
MODEL 7
REMARK VINA RESULT:    -6.366      2.772      3.463
REMARK INTER + INTRA:         -10.494
REMARK INTER:                  -9.427
REMARK INTRA:                  -1.067
REMARK UNBOUND:                -1.151
REMARK  Name = 
REMARK  9 active torsions:
REMARK  status: ('A' for Active; 'I' for Inactive)
REMARK    1  A    between atoms: C_1  and  C_2
REMARK    2  A    between atoms: C_2  and  C_3
REMARK    3  A    between atoms: C_3  and  N_4
REMARK    4  A    between atoms: C_10  and  C_11
REMARK    5  A    between atoms: N_13  and  C_14
REMARK    6  A    between atoms: C_14  and  C_15
REMARK    7  A    between atoms: C_18  and  C_19
REMARK    8  A    between atoms: C_19  and  N_20
REMARK    9  A    between atoms: C_21  and  C_23
REMARK                            x       y       z     vdW  Elec       q    Type
REMARK                         _______ _______ _______ _____ _____    ______ ____
ROOT
ATOM      1  C   UNL     1      47.526   8.452  14.103  0.00  0.00    +0.000 C 
ENDROOT
BRANCH   1   2
ATOM      2  C   UNL     1      46.692   7.620  13.161  0.00  0.00    +0.000 A 
ATOM      3  C   UNL     1      46.866   6.232  13.166  0.00  0.00    +0.000 A 
ATOM      4  C   UNL     1      46.118   5.404  12.319  0.00  0.00    +0.000 A 
ATOM      5  C   UNL     1      45.175   5.947  11.433  0.00  0.00    +0.000 A 
ATOM      6  C   UNL     1      45.017   7.337  11.413  0.00  0.00    +0.000 A 
ATOM      7  C   UNL     1      45.750   8.162  12.274  0.00  0.00    +0.000 A 
BRANCH   5   8
ATOM      8  C   UNL     1      44.339   5.117  10.495  0.00  0.00    +0.000 C 
BRANCH   8   9
ATOM      9  N   UNL     1      45.108   4.427   9.493  0.00  0.00    +0.000 N 
ATOM     10  C   UNL     1      44.877   3.111   9.178  0.00  0.00    +0.000 C 
ATOM     11  O   UNL     1      44.032   2.417   9.738  0.00  0.00    +0.000 OA
ATOM     12  H   UNL     1      45.736   4.949   8.902  0.00  0.00    +0.000 HD
BRANCH  10  13
ATOM     13  C   UNL     1      45.711   2.624   8.102  0.00  0.00    +0.000 A 
ATOM     14  C   UNL     1      46.425   1.442   7.970  0.00  0.00    +0.000 A 
ATOM     15  C   UNL     1      47.117   1.481   6.739  0.00  0.00    +0.000 A 
ATOM     16  C   UNL     1      46.809   2.679   6.139  0.00  0.00    +0.000 A 
ATOM     17  N   UNL     1      45.937   3.350   6.954  0.00  0.00    +0.000 N 
ATOM     18  H   UNL     1      45.525   4.257   6.772  0.00  0.00    +0.000 HD
ENDBRANCH  10  13
ENDBRANCH   8   9
ENDBRANCH   5   8
ENDBRANCH   1   2
BRANCH   1  21
ATOM     19  C   UNL     1      48.610   8.077  16.273  0.00  0.00    +0.000 C 
ATOM     20  O   UNL     1      48.205   9.162  16.711  0.00  0.00    +0.000 OA
ATOM     21  N   UNL     1      48.342   7.669  14.994  0.00  0.00    +0.000 N 
ATOM     22  H   UNL     1      48.501   6.698  14.750  0.00  0.00    +0.000 HD
BRANCH  19  29
ATOM     23  N   UNL     1      53.018   6.666  15.887  0.00  0.00    +0.000 N 
ATOM     24  C   UNL     1      53.360   5.833  16.931  0.00  0.00    +0.000 A 
ATOM     25  N   UNL     1      52.569   5.449  17.883  0.00  0.00    +0.000 NA
ATOM     26  C   UNL     1      51.313   5.935  17.802  0.00  0.00    +0.000 A 
ATOM     27  S   UNL     1      50.135   5.477  18.930  0.00  0.00    +0.000 S 
ATOM     28  C   UNL     1      48.961   6.474  18.183  0.00  0.00    +0.000 A 
ATOM     29  C   UNL     1      49.437   7.164  17.075  0.00  0.00    +0.000 A 
ATOM     30  C   UNL     1      50.831   6.827  16.859  0.00  0.00    +0.000 A 
ATOM     31  C   UNL     1      51.770   7.264  15.841  0.00  0.00    +0.000 A 
ATOM     32  O   UNL     1      51.505   8.170  15.026  0.00  0.00    +0.000 OA
BRANCH  23  33
ATOM     33  C   UNL     1      54.008   7.071  14.898  0.00  0.00    +0.000 C 
BRANCH  33  35
ATOM     34  C   UNL     1      55.492   5.726  13.366  0.00  0.00    +0.000 C 
ATOM     35  C   UNL     1      55.194   6.102  14.809  0.00  0.00    +0.000 C 
ENDBRANCH  33  35
ENDBRANCH  23  33
ENDBRANCH  19  29
ENDBRANCH   1  21
TORSDOF 8
ENDMDL
MODEL 8
REMARK VINA RESULT:    -6.100      3.809      4.978
REMARK INTER + INTRA:         -10.104
REMARK INTER:                  -9.030
REMARK INTRA:                  -1.075
REMARK UNBOUND:                -1.151
REMARK  Name = 
REMARK  9 active torsions:
REMARK  status: ('A' for Active; 'I' for Inactive)
REMARK    1  A    between atoms: C_1  and  C_2
REMARK    2  A    between atoms: C_2  and  C_3
REMARK    3  A    between atoms: C_3  and  N_4
REMARK    4  A    between atoms: C_10  and  C_11
REMARK    5  A    between atoms: N_13  and  C_14
REMARK    6  A    between atoms: C_14  and  C_15
REMARK    7  A    between atoms: C_18  and  C_19
REMARK    8  A    between atoms: C_19  and  N_20
REMARK    9  A    between atoms: C_21  and  C_23
REMARK                            x       y       z     vdW  Elec       q    Type
REMARK                         _______ _______ _______ _____ _____    ______ ____
ROOT
ATOM      1  C   UNL     1      47.570   8.494  14.232  0.00  0.00    +0.000 C 
ENDROOT
BRANCH   1   2
ATOM      2  C   UNL     1      46.763   7.657  13.270  0.00  0.00    +0.000 A 
ATOM      3  C   UNL     1      46.955   6.271  13.271  0.00  0.00    +0.000 A 
ATOM      4  C   UNL     1      46.232   5.438  12.406  0.00  0.00    +0.000 A 
ATOM      5  C   UNL     1      45.300   5.975  11.506  0.00  0.00    +0.000 A 
ATOM      6  C   UNL     1      45.124   7.363  11.490  0.00  0.00    +0.000 A 
ATOM      7  C   UNL     1      45.831   8.193  12.369  0.00  0.00    +0.000 A 
BRANCH   5   8
ATOM      8  C   UNL     1      44.491   5.139  10.549  0.00  0.00    +0.000 C 
BRANCH   8   9
ATOM      9  N   UNL     1      45.278   4.522   9.514  0.00  0.00    +0.000 N 
ATOM     10  C   UNL     1      45.088   3.216   9.139  0.00  0.00    +0.000 C 
ATOM     11  O   UNL     1      44.269   2.469   9.667  0.00  0.00    +0.000 OA
ATOM     12  H   UNL     1      45.886   5.091   8.947  0.00  0.00    +0.000 HD
BRANCH  10  13
ATOM     13  C   UNL     1      45.933   2.807   8.039  0.00  0.00    +0.000 A 
ATOM     14  C   UNL     1      46.331   3.487   6.897  0.00  0.00    +0.000 A 
ATOM     15  C   UNL     1      47.121   2.614   6.117  0.00  0.00    +0.000 A 
ATOM     16  C   UNL     1      47.197   1.420   6.796  0.00  0.00    +0.000 A 
ATOM     17  N   UNL     1      46.502   1.554   7.969  0.00  0.00    +0.000 N 
ATOM     18  H   UNL     1      46.390   0.844   8.683  0.00  0.00    +0.000 HD
ENDBRANCH  10  13
ENDBRANCH   8   9
ENDBRANCH   5   8
ENDBRANCH   1   2
BRANCH   1  21
ATOM     19  C   UNL     1      49.906   9.223  14.416  0.00  0.00    +0.000 C 
ATOM     20  O   UNL     1      49.568  10.389  14.662  0.00  0.00    +0.000 OA
ATOM     21  N   UNL     1      48.986   8.242  14.167  0.00  0.00    +0.000 N 
ATOM     22  H   UNL     1      49.289   7.274  14.186  0.00  0.00    +0.000 HD
BRANCH  19  29
ATOM     23  N   UNL     1      52.657   8.096  10.847  0.00  0.00    +0.000 N 
ATOM     24  C   UNL     1      53.938   7.830  11.280  0.00  0.00    +0.000 A 
ATOM     25  N   UNL     1      54.340   7.847  12.512  0.00  0.00    +0.000 NA
ATOM     26  C   UNL     1      53.384   8.161  13.411  0.00  0.00    +0.000 A 
ATOM     27  S   UNL     1      53.726   8.162  15.070  0.00  0.00    +0.000 S 
ATOM     28  C   UNL     1      52.129   8.647  15.450  0.00  0.00    +0.000 A 
ATOM     29  C   UNL     1      51.316   8.814  14.335  0.00  0.00    +0.000 A 
ATOM     30  C   UNL     1      52.073   8.513  13.136  0.00  0.00    +0.000 A 
ATOM     31  C   UNL     1      51.686   8.526  11.737  0.00  0.00    +0.000 A 
ATOM     32  O   UNL     1      50.585   8.962  11.347  0.00  0.00    +0.000 OA
BRANCH  23  33
ATOM     33  C   UNL     1      52.331   8.095   9.427  0.00  0.00    +0.000 C 
BRANCH  33  35
ATOM     34  C   UNL     1      52.759   6.432   7.580  0.00  0.00    +0.000 C 
ATOM     35  C   UNL     1      53.395   7.394   8.571  0.00  0.00    +0.000 C 
ENDBRANCH  33  35
ENDBRANCH  23  33
ENDBRANCH  19  29
ENDBRANCH   1  21
TORSDOF 8
ENDMDL
MODEL 9
REMARK VINA RESULT:    -5.895      6.778      9.687
REMARK INTER + INTRA:          -9.803
REMARK INTER:                  -8.840
REMARK INTRA:                  -0.963
REMARK UNBOUND:                -1.151
REMARK  Name = 
REMARK  9 active torsions:
REMARK  status: ('A' for Active; 'I' for Inactive)
REMARK    1  A    between atoms: C_1  and  C_2
REMARK    2  A    between atoms: C_2  and  C_3
REMARK    3  A    between atoms: C_3  and  N_4
REMARK    4  A    between atoms: C_10  and  C_11
REMARK    5  A    between atoms: N_13  and  C_14
REMARK    6  A    between atoms: C_14  and  C_15
REMARK    7  A    between atoms: C_18  and  C_19
REMARK    8  A    between atoms: C_19  and  N_20
REMARK    9  A    between atoms: C_21  and  C_23
REMARK                            x       y       z     vdW  Elec       q    Type
REMARK                         _______ _______ _______ _____ _____    ______ ____
ROOT
ATOM      1  C   UNL     1      53.165   2.782  18.030  0.00  0.00    +0.000 C 
ENDROOT
BRANCH   1   2
ATOM      2  C   UNL     1      51.694   3.022  17.790  0.00  0.00    +0.000 A 
ATOM      3  C   UNL     1      50.939   1.999  17.206  0.00  0.00    +0.000 A 
ATOM      4  C   UNL     1      49.568   2.158  16.963  0.00  0.00    +0.000 A 
ATOM      5  C   UNL     1      48.915   3.355  17.291  0.00  0.00    +0.000 A 
ATOM      6  C   UNL     1      49.675   4.386  17.855  0.00  0.00    +0.000 A 
ATOM      7  C   UNL     1      51.041   4.219  18.117  0.00  0.00    +0.000 A 
BRANCH   5   8
ATOM      8  C   UNL     1      47.447   3.594  17.055  0.00  0.00    +0.000 C 
BRANCH   8   9
ATOM      9  N   UNL     1      47.177   4.549  16.014  0.00  0.00    +0.000 N 
ATOM     10  C   UNL     1      47.130   4.186  14.690  0.00  0.00    +0.000 C 
ATOM     11  O   UNL     1      47.342   3.045  14.291  0.00  0.00    +0.000 OA
ATOM     12  H   UNL     1      46.873   5.478  16.258  0.00  0.00    +0.000 HD
BRANCH  10  13
ATOM     13  C   UNL     1      46.780   5.278  13.809  0.00  0.00    +0.000 A 
ATOM     14  C   UNL     1      47.577   6.126  13.053  0.00  0.00    +0.000 A 
ATOM     15  C   UNL     1      46.736   7.056  12.403  0.00  0.00    +0.000 A 
ATOM     16  C   UNL     1      45.444   6.759  12.767  0.00  0.00    +0.000 A 
ATOM     17  N   UNL     1      45.477   5.665  13.592  0.00  0.00    +0.000 N 
ATOM     18  H   UNL     1      44.676   5.208  14.011  0.00  0.00    +0.000 HD
ENDBRANCH  10  13
ENDBRANCH   8   9
ENDBRANCH   5   8
ENDBRANCH   1   2
BRANCH   1  21
ATOM     19  C   UNL     1      54.738   0.942  18.435  0.00  0.00    +0.000 C 
ATOM     20  O   UNL     1      55.686   1.596  17.979  0.00  0.00    +0.000 OA
ATOM     21  N   UNL     1      53.465   1.444  18.469  0.00  0.00    +0.000 N 
ATOM     22  H   UNL     1      52.771   0.972  19.039  0.00  0.00    +0.000 HD
BRANCH  19  29
ATOM     23  N   UNL     1      55.028  -3.174  16.302  0.00  0.00    +0.000 N 
ATOM     24  C   UNL     1      55.229  -4.186  17.214  0.00  0.00    +0.000 A 
ATOM     25  N   UNL     1      55.295  -4.044  18.501  0.00  0.00    +0.000 NA
ATOM     26  C   UNL     1      55.150  -2.774  18.935  0.00  0.00    +0.000 A 
ATOM     27  S   UNL     1      55.144  -2.423  20.592  0.00  0.00    +0.000 S 
ATOM     28  C   UNL     1      54.958  -0.749  20.288  0.00  0.00    +0.000 A 
ATOM     29  C   UNL     1      54.898  -0.430  18.936  0.00  0.00    +0.000 A 
ATOM     30  C   UNL     1      55.005  -1.643  18.149  0.00  0.00    +0.000 A 
ATOM     31  C   UNL     1      54.985  -1.851  16.712  0.00  0.00    +0.000 A 
ATOM     32  O   UNL     1      55.005  -0.909  15.896  0.00  0.00    +0.000 OA
BRANCH  23  33
ATOM     33  C   UNL     1      55.021  -3.446  14.870  0.00  0.00    +0.000 C 
BRANCH  33  35
ATOM     34  C   UNL     1      54.298  -5.498  13.594  0.00  0.00    +0.000 C 
ATOM     35  C   UNL     1      53.835  -4.317  14.434  0.00  0.00    +0.000 C 
ENDBRANCH  33  35
ENDBRANCH  23  33
ENDBRANCH  19  29
ENDBRANCH   1  21
TORSDOF 8
ENDMDL
