MODEL 1
REMARK VINA RESULT:    -7.953      0.000      0.000
REMARK INTER + INTRA:         -12.210
REMARK INTER:                 -11.208
REMARK INTRA:                  -1.001
REMARK UNBOUND:                -1.001
REMARK  Name = 
REMARK  8 active torsions:
REMARK  status: ('A' for Active; 'I' for Inactive)
REMARK    1  A    between atoms: C_1  and  O_2
REMARK    2  A    between atoms: O_2  and  C_3
REMARK    3  A    between atoms: C_8  and  C_9
REMARK    4  A    between atoms: N_11  and  C_12
REMARK    5  A    between atoms: C_12  and  C_13
REMARK    6  A    between atoms: C_16  and  C_17
REMARK    7  A    between atoms: C_17  and  N_18
REMARK    8  A    between atoms: C_19  and  C_21
REMARK                            x       y       z     vdW  Elec       q    Type
REMARK                         _______ _______ _______ _____ _____    ______ ____
ROOT
ATOM      1  C   UNL     1      45.069   4.343  12.888  0.00  0.00    +0.000 C 
ATOM      2  C   UNL     1      45.573   5.637  12.233  0.00  0.00    +0.000 C 
ATOM      3  C   UNL     1      46.298   6.546  13.222  0.00  0.00    +0.000 C 
ATOM      4  C   UNL     1      47.471   5.831  13.909  0.00  0.00    +0.000 C 
ATOM      5  C   UNL     1      46.970   4.546  14.589  0.00  0.00    +0.000 C 
ATOM      6  C   UNL     1      46.223   3.629  13.615  0.00  0.00    +0.000 C 
ENDROOT
BRANCH   1   7
ATOM      7  C   UNL     1      44.436   3.399  11.843  0.00  0.00    +0.000 C 
BRANCH   7  10
ATOM      8  C   UNL     1      44.901   2.386   9.625  0.00  0.00    +0.000 C 
ATOM      9  O   UNL     1      43.887   1.692   9.663  0.00  0.00    +0.000 OA
ATOM     10  N   UNL     1      45.249   3.228  10.653  0.00  0.00    +0.000 N 
ATOM     11  H   UNL     1      46.126   3.734  10.576  0.00  0.00    +0.000 HD
BRANCH   8  17
ATOM     12  C   UNL     1      46.035   3.460   7.562  0.00  0.00    +0.000 A 
ATOM     13  C   UNL     1      46.788   3.265   6.392  0.00  0.00    +0.000 A 
ATOM     14  C   UNL     1      47.287   2.008   6.057  0.00  0.00    +0.000 A 
ATOM     15  C   UNL     1      47.082   0.933   6.910  0.00  0.00    +0.000 A 
ATOM     16  C   UNL     1      46.345   1.110   8.081  0.00  0.00    +0.000 A 
ATOM     17  C   UNL     1      45.787   2.361   8.410  0.00  0.00    +0.000 A 
BRANCH  12  19
ATOM     18  C   UNL     1      46.483   5.503   8.691  0.00  0.00    +0.000 C 
ATOM     19  O   UNL     1      45.579   4.703   7.934  0.00  0.00    +0.000 OA
ENDBRANCH  12  19
ENDBRANCH   8  17
ENDBRANCH   7  10
ENDBRANCH   1   7
BRANCH   4  20
ATOM     20  C   UNL     1      48.170   6.748  14.932  0.00  0.00    +0.000 C 
BRANCH  20  21
ATOM     21  N   UNL     1      49.316   6.122  15.566  0.00  0.00    +0.000 N 
ATOM     22  C   UNL     1      49.286   5.690  16.867  0.00  0.00    +0.000 C 
ATOM     23  O   UNL     1      48.281   5.806  17.572  0.00  0.00    +0.000 OA
ATOM     24  H   UNL     1      50.214   6.201  15.096  0.00  0.00    +0.000 HD
BRANCH  22  25
ATOM     25  C   UNL     1      50.487   5.024  17.375  0.00  0.00    +0.000 A 
ATOM     26  C   UNL     1      51.522   5.780  17.908  0.00  0.00    +0.000 A 
ATOM     27  S   UNL     1      52.843   4.845  18.445  0.00  0.00    +0.000 S 
ATOM     28  C   UNL     1      52.090   3.400  17.954  0.00  0.00    +0.000 A 
ATOM     29  N   UNL     1      52.713   2.199  18.101  0.00  0.00    +0.000 NA
ATOM     30  C   UNL     1      52.031   1.190  17.673  0.00  0.00    +0.000 A 
ATOM     31  N   UNL     1      50.776   1.271  17.120  0.00  0.00    +0.000 N 
ATOM     32  C   UNL     1      50.107   2.458  16.958  0.00  0.00    +0.000 A 
ATOM     33  O   UNL     1      48.975   2.498  16.486  0.00  0.00    +0.000 OA
ATOM     34  C   UNL     1      50.837   3.628  17.413  0.00  0.00    +0.000 A 
ATOM     35  H   UNL     1      50.291   0.441  16.816  0.00  0.00    +0.000 HD
ENDBRANCH  22  25
ENDBRANCH  20  21
ENDBRANCH   4  20
TORSDOF 7
ENDMDL
MODEL 2
REMARK VINA RESULT:    -7.493      3.297      9.715
REMARK INTER + INTRA:         -11.561
REMARK INTER:                 -10.574
REMARK INTRA:                  -0.988
REMARK UNBOUND:                -1.001
REMARK  Name = 
REMARK  8 active torsions:
REMARK  status: ('A' for Active; 'I' for Inactive)
REMARK    1  A    between atoms: C_1  and  O_2
REMARK    2  A    between atoms: O_2  and  C_3
REMARK    3  A    between atoms: C_8  and  C_9
REMARK    4  A    between atoms: N_11  and  C_12
REMARK    5  A    between atoms: C_12  and  C_13
REMARK    6  A    between atoms: C_16  and  C_17
REMARK    7  A    between atoms: C_17  and  N_18
REMARK    8  A    between atoms: C_19  and  C_21
REMARK                            x       y       z     vdW  Elec       q    Type
REMARK                         _______ _______ _______ _____ _____    ______ ____
ROOT
ATOM      1  C   UNL     1      46.959   5.995  13.054  0.00  0.00    +0.000 C 
ATOM      2  C   UNL     1      45.544   6.555  12.859  0.00  0.00    +0.000 C 
ATOM      3  C   UNL     1      44.652   5.617  12.049  0.00  0.00    +0.000 C 
ATOM      4  C   UNL     1      44.564   4.219  12.679  0.00  0.00    +0.000 C 
ATOM      5  C   UNL     1      45.978   3.639  12.855  0.00  0.00    +0.000 C 
ATOM      6  C   UNL     1      46.893   4.577  13.650  0.00  0.00    +0.000 C 
ENDROOT
BRANCH   1   7
ATOM      7  C   UNL     1      47.802   6.913  13.964  0.00  0.00    +0.000 C 
BRANCH   7  10
ATOM      8  C   UNL     1      49.082   6.367  16.020  0.00  0.00    +0.000 C 
ATOM      9  O   UNL     1      50.157   6.665  15.502  0.00  0.00    +0.000 OA
ATOM     10  N   UNL     1      47.895   6.441  15.333  0.00  0.00    +0.000 N 
ATOM     11  H   UNL     1      47.052   6.132  15.807  0.00  0.00    +0.000 HD
BRANCH   8  17
ATOM     12  C   UNL     1      49.135   4.609  17.917  0.00  0.00    +0.000 A 
ATOM     13  C   UNL     1      48.950   4.339  19.284  0.00  0.00    +0.000 A 
ATOM     14  C   UNL     1      48.664   5.359  20.188  0.00  0.00    +0.000 A 
ATOM     15  C   UNL     1      48.605   6.674  19.751  0.00  0.00    +0.000 A 
ATOM     16  C   UNL     1      48.795   6.963  18.399  0.00  0.00    +0.000 A 
ATOM     17  C   UNL     1      49.032   5.939  17.461  0.00  0.00    +0.000 A 
BRANCH  12  19
ATOM     18  C   UNL     1      48.433   2.701  16.685  0.00  0.00    +0.000 C 
ATOM     19  O   UNL     1      49.468   3.622  17.019  0.00  0.00    +0.000 OA
ENDBRANCH  12  19
ENDBRANCH   8  17
ENDBRANCH   7  10
ENDBRANCH   1   7
BRANCH   4  20
ATOM     20  C   UNL     1      43.693   3.272  11.831  0.00  0.00    +0.000 C 
BRANCH  20  21
ATOM     21  N   UNL     1      44.458   2.513  10.860  0.00  0.00    +0.000 N 
ATOM     22  C   UNL     1      44.553   2.893   9.545  0.00  0.00    +0.000 C 
ATOM     23  O   UNL     1      43.995   3.903   9.114  0.00  0.00    +0.000 OA
ATOM     24  H   UNL     1      44.751   1.575  11.121  0.00  0.00    +0.000 HD
BRANCH  22  25
ATOM     25  C   UNL     1      45.401   2.075   8.675  0.00  0.00    +0.000 A 
ATOM     26  C   UNL     1      45.294   0.691   8.710  0.00  0.00    +0.000 A 
ATOM     27  S   UNL     1      46.358  -0.102   7.639  0.00  0.00    +0.000 S 
ATOM     28  C   UNL     1      47.021   1.376   7.116  0.00  0.00    +0.000 A 
ATOM     29  N   UNL     1      48.029   1.408   6.204  0.00  0.00    +0.000 NA
ATOM     30  C   UNL     1      48.443   2.596   5.910  0.00  0.00    +0.000 A 
ATOM     31  N   UNL     1      47.933   3.755   6.440  0.00  0.00    +0.000 N 
ATOM     32  C   UNL     1      46.914   3.772   7.358  0.00  0.00    +0.000 A 
ATOM     33  O   UNL     1      46.459   4.824   7.794  0.00  0.00    +0.000 OA
ATOM     34  C   UNL     1      46.418   2.459   7.732  0.00  0.00    +0.000 A 
ATOM     35  H   UNL     1      48.294   4.654   6.159  0.00  0.00    +0.000 HD
ENDBRANCH  22  25
ENDBRANCH  20  21
ENDBRANCH   4  20
TORSDOF 7
ENDMDL
MODEL 3
REMARK VINA RESULT:    -7.481      2.201      2.981
REMARK INTER + INTRA:         -11.544
REMARK INTER:                 -10.554
REMARK INTRA:                  -0.990
REMARK UNBOUND:                -1.001
REMARK  Name = 
REMARK  8 active torsions:
REMARK  status: ('A' for Active; 'I' for Inactive)
REMARK    1  A    between atoms: C_1  and  O_2
REMARK    2  A    between atoms: O_2  and  C_3
REMARK    3  A    between atoms: C_8  and  C_9
REMARK    4  A    between atoms: N_11  and  C_12
REMARK    5  A    between atoms: C_12  and  C_13
REMARK    6  A    between atoms: C_16  and  C_17
REMARK    7  A    between atoms: C_17  and  N_18
REMARK    8  A    between atoms: C_19  and  C_21
REMARK                            x       y       z     vdW  Elec       q    Type
REMARK                         _______ _______ _______ _____ _____    ______ ____
ROOT
ATOM      1  C   UNL     1      45.218   4.736  12.023  0.00  0.00    +0.000 C 
ATOM      2  C   UNL     1      45.780   5.861  11.142  0.00  0.00    +0.000 C 
ATOM      3  C   UNL     1      46.371   7.005  11.963  0.00  0.00    +0.000 C 
ATOM      4  C   UNL     1      47.463   6.518  12.927  0.00  0.00    +0.000 C 
ATOM      5  C   UNL     1      46.901   5.407  13.831  0.00  0.00    +0.000 C 
ATOM      6  C   UNL     1      46.287   4.259  13.023  0.00  0.00    +0.000 C 
ENDROOT
BRANCH   1   7
ATOM      7  C   UNL     1      44.726   3.550  11.166  0.00  0.00    +0.000 C 
BRANCH   7  10
ATOM      8  C   UNL     1      45.216   2.371   9.038  0.00  0.00    +0.000 C 
ATOM      9  O   UNL     1      44.313   1.556   9.212  0.00  0.00    +0.000 OA
ATOM     10  N   UNL     1      45.494   3.359   9.950  0.00  0.00    +0.000 N 
ATOM     11  H   UNL     1      46.287   3.966   9.765  0.00  0.00    +0.000 HD
BRANCH   8  17
ATOM     12  C   UNL     1      46.864   1.260   7.381  0.00  0.00    +0.000 A 
ATOM     13  C   UNL     1      47.669   1.406   6.238  0.00  0.00    +0.000 A 
ATOM     14  C   UNL     1      47.663   2.586   5.497  0.00  0.00    +0.000 A 
ATOM     15  C   UNL     1      46.818   3.625   5.859  0.00  0.00    +0.000 A 
ATOM     16  C   UNL     1      46.005   3.495   6.986  0.00  0.00    +0.000 A 
ATOM     17  C   UNL     1      46.036   2.330   7.777  0.00  0.00    +0.000 A 
BRANCH  12  19
ATOM     18  C   UNL     1      46.485  -1.086   7.353  0.00  0.00    +0.000 C 
ATOM     19  O   UNL     1      46.819   0.085   8.093  0.00  0.00    +0.000 OA
ENDBRANCH  12  19
ENDBRANCH   8  17
ENDBRANCH   7  10
ENDBRANCH   1   7
BRANCH   4  20
ATOM     20  C   UNL     1      48.023   7.675  13.777  0.00  0.00    +0.000 C 
BRANCH  20  21
ATOM     21  N   UNL     1      47.932   7.428  15.204  0.00  0.00    +0.000 N 
ATOM     22  C   UNL     1      49.043   7.242  15.986  0.00  0.00    +0.000 C 
ATOM     23  O   UNL     1      50.184   7.277  15.521  0.00  0.00    +0.000 OA
ATOM     24  H   UNL     1      47.021   7.182  15.581  0.00  0.00    +0.000 HD
BRANCH  22  25
ATOM     25  C   UNL     1      48.823   7.056  17.422  0.00  0.00    +0.000 A 
ATOM     26  C   UNL     1      48.597   8.159  18.234  0.00  0.00    +0.000 A 
ATOM     27  S   UNL     1      48.368   7.762  19.876  0.00  0.00    +0.000 S 
ATOM     28  C   UNL     1      48.596   6.105  19.563  0.00  0.00    +0.000 A 
ATOM     29  N   UNL     1      48.560   5.190  20.569  0.00  0.00    +0.000 NA
ATOM     30  C   UNL     1      48.763   3.973  20.189  0.00  0.00    +0.000 A 
ATOM     31  N   UNL     1      48.989   3.586  18.891  0.00  0.00    +0.000 N 
ATOM     32  C   UNL     1      49.028   4.471  17.844  0.00  0.00    +0.000 A 
ATOM     33  O   UNL     1      49.204   4.094  16.690  0.00  0.00    +0.000 OA
ATOM     34  C   UNL     1      48.817   5.858  18.220  0.00  0.00    +0.000 A 
ATOM     35  H   UNL     1      49.128   2.614  18.658  0.00  0.00    +0.000 HD
ENDBRANCH  22  25
ENDBRANCH  20  21
ENDBRANCH   4  20
TORSDOF 7
ENDMDL
MODEL 4
REMARK VINA RESULT:    -7.477      3.246      4.193
REMARK INTER + INTRA:         -11.538
REMARK INTER:                 -10.194
REMARK INTRA:                  -1.344
REMARK UNBOUND:                -1.001
REMARK  Name = 
REMARK  8 active torsions:
REMARK  status: ('A' for Active; 'I' for Inactive)
REMARK    1  A    between atoms: C_1  and  O_2
REMARK    2  A    between atoms: O_2  and  C_3
REMARK    3  A    between atoms: C_8  and  C_9
REMARK    4  A    between atoms: N_11  and  C_12
REMARK    5  A    between atoms: C_12  and  C_13
REMARK    6  A    between atoms: C_16  and  C_17
REMARK    7  A    between atoms: C_17  and  N_18
REMARK    8  A    between atoms: C_19  and  C_21
REMARK                            x       y       z     vdW  Elec       q    Type
REMARK                         _______ _______ _______ _____ _____    ______ ____
ROOT
ATOM      1  C   UNL     1      44.363   4.377  12.361  0.00  0.00    +0.000 C 
ATOM      2  C   UNL     1      43.874   5.408  11.335  0.00  0.00    +0.000 C 
ATOM      3  C   UNL     1      43.936   6.837  11.868  0.00  0.00    +0.000 C 
ATOM      4  C   UNL     1      45.349   7.216  12.337  0.00  0.00    +0.000 C 
ATOM      5  C   UNL     1      45.838   6.202  13.385  0.00  0.00    +0.000 C 
ATOM      6  C   UNL     1      45.765   4.759  12.873  0.00  0.00    +0.000 C 
ENDROOT
BRANCH   1   7
ATOM      7  C   UNL     1      44.389   2.957  11.757  0.00  0.00    +0.000 C 
BRANCH   7  10
ATOM      8  C   UNL     1      44.870   2.175   9.451  0.00  0.00    +0.000 C 
ATOM      9  O   UNL     1      43.788   1.600   9.356  0.00  0.00    +0.000 OA
ATOM     10  N   UNL     1      45.245   2.841  10.592  0.00  0.00    +0.000 N 
ATOM     11  H   UNL     1      46.174   3.251  10.618  0.00  0.00    +0.000 HD
BRANCH   8  17
ATOM     12  C   UNL     1      46.065   3.316   7.460  0.00  0.00    +0.000 A 
ATOM     13  C   UNL     1      46.883   3.163   6.328  0.00  0.00    +0.000 A 
ATOM     14  C   UNL     1      47.445   1.930   6.005  0.00  0.00    +0.000 A 
ATOM     15  C   UNL     1      47.238   0.838   6.835  0.00  0.00    +0.000 A 
ATOM     16  C   UNL     1      46.436   0.972   7.969  0.00  0.00    +0.000 A 
ATOM     17  C   UNL     1      45.817   2.198   8.282  0.00  0.00    +0.000 A 
BRANCH  12  19
ATOM     18  C   UNL     1      46.351   5.332   8.686  0.00  0.00    +0.000 C 
ATOM     19  O   UNL     1      45.544   4.536   7.822  0.00  0.00    +0.000 OA
ENDBRANCH  12  19
ENDBRANCH   8  17
ENDBRANCH   7  10
ENDBRANCH   1   7
BRANCH   4  20
ATOM     20  C   UNL     1      45.389   8.646  12.908  0.00  0.00    +0.000 C 
BRANCH  20  21
ATOM     21  N   UNL     1      46.601   8.925  13.657  0.00  0.00    +0.000 N 
ATOM     22  C   UNL     1      47.675   9.568  13.096  0.00  0.00    +0.000 C 
ATOM     23  O   UNL     1      47.671   9.948  11.923  0.00  0.00    +0.000 OA
ATOM     24  H   UNL     1      46.725   8.447  14.545  0.00  0.00    +0.000 HD
BRANCH  22  25
ATOM     25  C   UNL     1      48.818   9.841  13.969  0.00  0.00    +0.000 A 
ATOM     26  C   UNL     1      49.133  11.151  14.306  0.00  0.00    +0.000 A 
ATOM     27  S   UNL     1      50.494  11.285  15.323  0.00  0.00    +0.000 S 
ATOM     28  C   UNL     1      50.730   9.600  15.322  0.00  0.00    +0.000 A 
ATOM     29  N   UNL     1      51.772   9.037  15.991  0.00  0.00    +0.000 NA
ATOM     30  C   UNL     1      51.836   7.752  15.892  0.00  0.00    +0.000 A 
ATOM     31  N   UNL     1      50.946   6.976  15.191  0.00  0.00    +0.000 N 
ATOM     32  C   UNL     1      49.877   7.498  14.507  0.00  0.00    +0.000 A 
ATOM     33  O   UNL     1      49.081   6.778  13.913  0.00  0.00    +0.000 OA
ATOM     34  C   UNL     1      49.766   8.944  14.577  0.00  0.00    +0.000 A 
ATOM     35  H   UNL     1      51.045   5.972  15.163  0.00  0.00    +0.000 HD
ENDBRANCH  22  25
ENDBRANCH  20  21
ENDBRANCH   4  20
TORSDOF 7
ENDMDL
MODEL 5
REMARK VINA RESULT:    -7.466      2.505      3.247
REMARK INTER + INTRA:         -11.522
REMARK INTER:                 -10.445
REMARK INTRA:                  -1.077
REMARK UNBOUND:                -1.001
REMARK  Name = 
REMARK  8 active torsions:
REMARK  status: ('A' for Active; 'I' for Inactive)
REMARK    1  A    between atoms: C_1  and  O_2
REMARK    2  A    between atoms: O_2  and  C_3
REMARK    3  A    between atoms: C_8  and  C_9
REMARK    4  A    between atoms: N_11  and  C_12
REMARK    5  A    between atoms: C_12  and  C_13
REMARK    6  A    between atoms: C_16  and  C_17
REMARK    7  A    between atoms: C_17  and  N_18
REMARK    8  A    between atoms: C_19  and  C_21
REMARK                            x       y       z     vdW  Elec       q    Type
REMARK                         _______ _______ _______ _____ _____    ______ ____
ROOT
ATOM      1  C   UNL     1      45.036   4.664  12.800  0.00  0.00    +0.000 C 
ATOM      2  C   UNL     1      44.520   5.803  11.911  0.00  0.00    +0.000 C 
ATOM      3  C   UNL     1      44.880   7.181  12.461  0.00  0.00    +0.000 C 
ATOM      4  C   UNL     1      46.394   7.341  12.668  0.00  0.00    +0.000 C 
ATOM      5  C   UNL     1      46.915   6.217  13.579  0.00  0.00    +0.000 C 
ATOM      6  C   UNL     1      46.546   4.826  13.051  0.00  0.00    +0.000 C 
ENDROOT
BRANCH   1   7
ATOM      7  C   UNL     1      44.750   3.287  12.165  0.00  0.00    +0.000 C 
BRANCH   7  10
ATOM      8  C   UNL     1      44.889   2.468   9.826  0.00  0.00    +0.000 C 
ATOM      9  O   UNL     1      43.735   2.046   9.841  0.00  0.00    +0.000 OA
ATOM     10  N   UNL     1      45.463   3.066  10.921  0.00  0.00    +0.000 N 
ATOM     11  H   UNL     1      46.437   3.346  10.853  0.00  0.00    +0.000 HD
BRANCH   8  17
ATOM     12  C   UNL     1      45.934   3.429   7.663  0.00  0.00    +0.000 A 
ATOM     13  C   UNL     1      46.622   3.169   6.465  0.00  0.00    +0.000 A 
ATOM     14  C   UNL     1      47.078   1.889   6.159  0.00  0.00    +0.000 A 
ATOM     15  C   UNL     1      46.897   0.855   7.066  0.00  0.00    +0.000 A 
ATOM     16  C   UNL     1      46.225   1.096   8.265  0.00  0.00    +0.000 A 
ATOM     17  C   UNL     1      45.710   2.372   8.569  0.00  0.00    +0.000 A 
BRANCH  12  19
ATOM     18  C   UNL     1      46.427   5.457   8.801  0.00  0.00    +0.000 C 
ATOM     19  O   UNL     1      45.523   4.696   8.004  0.00  0.00    +0.000 OA
ENDBRANCH  12  19
ENDBRANCH   8  17
ENDBRANCH   7  10
ENDBRANCH   1   7
BRANCH   4  20
ATOM     20  C   UNL     1      46.740   8.721  13.260  0.00  0.00    +0.000 C 
BRANCH  20  21
ATOM     21  N   UNL     1      47.090   8.664  14.667  0.00  0.00    +0.000 N 
ATOM     22  C   UNL     1      48.372   8.869  15.110  0.00  0.00    +0.000 C 
ATOM     23  O   UNL     1      49.300   9.116  14.337  0.00  0.00    +0.000 OA
ATOM     24  H   UNL     1      46.411   8.259  15.304  0.00  0.00    +0.000 HD
BRANCH  22  25
ATOM     25  C   UNL     1      48.589   8.841  16.558  0.00  0.00    +0.000 A 
ATOM     26  C   UNL     1      48.314   9.969  17.319  0.00  0.00    +0.000 A 
ATOM     27  S   UNL     1      48.629   9.762  18.982  0.00  0.00    +0.000 S 
ATOM     28  C   UNL     1      49.176   8.170  18.737  0.00  0.00    +0.000 A 
ATOM     29  N   UNL     1      49.635   7.418  19.774  0.00  0.00    +0.000 NA
ATOM     30  C   UNL     1      50.030   6.235  19.440  0.00  0.00    +0.000 A 
ATOM     31  N   UNL     1      49.998   5.731  18.163  0.00  0.00    +0.000 N 
ATOM     32  C   UNL     1      49.539   6.449  17.087  0.00  0.00    +0.000 A 
ATOM     33  O   UNL     1      49.496   5.964  15.962  0.00  0.00    +0.000 OA
ATOM     34  C   UNL     1      49.092   7.794  17.407  0.00  0.00    +0.000 A 
ATOM     35  H   UNL     1      50.311   4.792  17.970  0.00  0.00    +0.000 HD
ENDBRANCH  22  25
ENDBRANCH  20  21
ENDBRANCH   4  20
TORSDOF 7
ENDMDL
MODEL 6
REMARK VINA RESULT:    -7.269      3.544      9.239
REMARK INTER + INTRA:         -11.244
REMARK INTER:                 -10.011
REMARK INTRA:                  -1.234
REMARK UNBOUND:                -1.001
REMARK  Name = 
REMARK  8 active torsions:
REMARK  status: ('A' for Active; 'I' for Inactive)
REMARK    1  A    between atoms: C_1  and  O_2
REMARK    2  A    between atoms: O_2  and  C_3
REMARK    3  A    between atoms: C_8  and  C_9
REMARK    4  A    between atoms: N_11  and  C_12
REMARK    5  A    between atoms: C_12  and  C_13
REMARK    6  A    between atoms: C_16  and  C_17
REMARK    7  A    between atoms: C_17  and  N_18
REMARK    8  A    between atoms: C_19  and  C_21
REMARK                            x       y       z     vdW  Elec       q    Type
REMARK                         _______ _______ _______ _____ _____    ______ ____
ROOT
ATOM      1  C   UNL     1      50.486   7.857  15.958  0.00  0.00    +0.000 C 
ATOM      2  C   UNL     1      49.381   6.831  15.671  0.00  0.00    +0.000 C 
ATOM      3  C   UNL     1      48.508   7.230  14.484  0.00  0.00    +0.000 C 
ATOM      4  C   UNL     1      49.336   7.457  13.210  0.00  0.00    +0.000 C 
ATOM      5  C   UNL     1      50.431   8.503  13.482  0.00  0.00    +0.000 C 
ATOM      6  C   UNL     1      51.306   8.127  14.682  0.00  0.00    +0.000 C 
ENDROOT
BRANCH   1   7
ATOM      7  C   UNL     1      51.415   7.375  17.092  0.00  0.00    +0.000 C 
BRANCH   7  10
ATOM      8  C   UNL     1      51.527   5.112  18.106  0.00  0.00    +0.000 C 
ATOM      9  O   UNL     1      51.141   5.517  19.200  0.00  0.00    +0.000 OA
ATOM     10  N   UNL     1      51.704   5.954  17.036  0.00  0.00    +0.000 N 
ATOM     11  H   UNL     1      52.073   5.558  16.177  0.00  0.00    +0.000 HD
BRANCH   8  17
ATOM     12  C   UNL     1      50.864   2.729  17.347  0.00  0.00    +0.000 A 
ATOM     13  C   UNL     1      51.193   1.363  17.318  0.00  0.00    +0.000 A 
ATOM     14  C   UNL     1      52.407   0.903  17.822  0.00  0.00    +0.000 A 
ATOM     15  C   UNL     1      53.335   1.806  18.322  0.00  0.00    +0.000 A 
ATOM     16  C   UNL     1      53.029   3.167  18.351  0.00  0.00    +0.000 A 
ATOM     17  C   UNL     1      51.785   3.645  17.894  0.00  0.00    +0.000 A 
BRANCH  12  19
ATOM     18  C   UNL     1      48.516   3.013  17.588  0.00  0.00    +0.000 C 
ATOM     19  O   UNL     1      49.692   3.206  16.808  0.00  0.00    +0.000 OA
ENDBRANCH  12  19
ENDBRANCH   8  17
ENDBRANCH   7  10
ENDBRANCH   1   7
BRANCH   4  20
ATOM     20  C   UNL     1      48.448   7.897  12.030  0.00  0.00    +0.000 C 
BRANCH  20  21
ATOM     21  N   UNL     1      47.696   6.801  11.447  0.00  0.00    +0.000 N 
ATOM     22  C   UNL     1      46.325   6.758  11.477  0.00  0.00    +0.000 C 
ATOM     23  O   UNL     1      45.653   7.649  11.999  0.00  0.00    +0.000 OA
ATOM     24  H   UNL     1      48.207   5.958  11.201  0.00  0.00    +0.000 HD
BRANCH  22  25
ATOM     25  C   UNL     1      45.679   5.628  10.804  0.00  0.00    +0.000 A 
ATOM     26  C   UNL     1      45.757   5.512   9.423  0.00  0.00    +0.000 A 
ATOM     27  S   UNL     1      44.946   4.144   8.808  0.00  0.00    +0.000 S 
ATOM     28  C   UNL     1      44.435   3.679  10.364  0.00  0.00    +0.000 A 
ATOM     29  N   UNL     1      43.655   2.580  10.547  0.00  0.00    +0.000 NA
ATOM     30  C   UNL     1      43.332   2.356  11.776  0.00  0.00    +0.000 A 
ATOM     31  N   UNL     1      43.728   3.125  12.842  0.00  0.00    +0.000 N 
ATOM     32  C   UNL     1      44.519   4.238  12.707  0.00  0.00    +0.000 A 
ATOM     33  O   UNL     1      44.881   4.891  13.680  0.00  0.00    +0.000 OA
ATOM     34  C   UNL     1      44.902   4.542  11.340  0.00  0.00    +0.000 A 
ATOM     35  H   UNL     1      43.451   2.888  13.783  0.00  0.00    +0.000 HD
ENDBRANCH  22  25
ENDBRANCH  20  21
ENDBRANCH   4  20
TORSDOF 7
ENDMDL
MODEL 7
REMARK VINA RESULT:    -7.026      3.021      9.634
REMARK INTER + INTRA:         -10.902
REMARK INTER:                  -9.664
REMARK INTRA:                  -1.238
REMARK UNBOUND:                -1.001
REMARK  Name = 
REMARK  8 active torsions:
REMARK  status: ('A' for Active; 'I' for Inactive)
REMARK    1  A    between atoms: C_1  and  O_2
REMARK    2  A    between atoms: O_2  and  C_3
REMARK    3  A    between atoms: C_8  and  C_9
REMARK    4  A    between atoms: N_11  and  C_12
REMARK    5  A    between atoms: C_12  and  C_13
REMARK    6  A    between atoms: C_16  and  C_17
REMARK    7  A    between atoms: C_17  and  N_18
REMARK    8  A    between atoms: C_19  and  C_21
REMARK                            x       y       z     vdW  Elec       q    Type
REMARK                         _______ _______ _______ _____ _____    ______ ____
ROOT
ATOM      1  C   UNL     1      50.154   7.006  15.085  0.00  0.00    +0.000 C 
ATOM      2  C   UNL     1      50.373   8.264  14.234  0.00  0.00    +0.000 C 
ATOM      3  C   UNL     1      49.583   8.230  12.928  0.00  0.00    +0.000 C 
ATOM      4  C   UNL     1      48.079   8.033  13.169  0.00  0.00    +0.000 C 
ATOM      5  C   UNL     1      47.849   6.759  14.001  0.00  0.00    +0.000 C 
ATOM      6  C   UNL     1      48.649   6.768  15.308  0.00  0.00    +0.000 C 
ENDROOT
BRANCH   1   7
ATOM      7  C   UNL     1      50.880   7.117  16.442  0.00  0.00    +0.000 C 
BRANCH   7  10
ATOM      8  C   UNL     1      50.893   4.876  17.509  0.00  0.00    +0.000 C 
ATOM      9  O   UNL     1      49.711   4.958  17.836  0.00  0.00    +0.000 OA
ATOM     10  N   UNL     1      51.540   5.890  16.846  0.00  0.00    +0.000 N 
ATOM     11  H   UNL     1      52.530   5.774  16.652  0.00  0.00    +0.000 HD
BRANCH   8  17
ATOM     12  C   UNL     1      52.950   3.576  18.388  0.00  0.00    +0.000 A 
ATOM     13  C   UNL     1      53.613   2.340  18.490  0.00  0.00    +0.000 A 
ATOM     14  C   UNL     1      53.030   1.168  18.016  0.00  0.00    +0.000 A 
ATOM     15  C   UNL     1      51.753   1.201  17.474  0.00  0.00    +0.000 A 
ATOM     16  C   UNL     1      51.075   2.416  17.373  0.00  0.00    +0.000 A 
ATOM     17  C   UNL     1      51.670   3.620  17.798  0.00  0.00    +0.000 A 
BRANCH  12  19
ATOM     18  C   UNL     1      53.378   4.913  20.306  0.00  0.00    +0.000 C 
ATOM     19  O   UNL     1      53.489   4.734  18.897  0.00  0.00    +0.000 OA
ENDBRANCH  12  19
ENDBRANCH   8  17
ENDBRANCH   7  10
ENDBRANCH   1   7
BRANCH   4  20
ATOM     20  C   UNL     1      47.299   7.961  11.842  0.00  0.00    +0.000 C 
BRANCH  20  21
ATOM     21  N   UNL     1      46.632   6.687  11.644  0.00  0.00    +0.000 N 
ATOM     22  C   UNL     1      45.267   6.583  11.555  0.00  0.00    +0.000 C 
ATOM     23  O   UNL     1      44.529   7.566  11.636  0.00  0.00    +0.000 OA
ATOM     24  H   UNL     1      47.180   5.843  11.785  0.00  0.00    +0.000 HD
BRANCH  22  25
ATOM     25  C   UNL     1      44.716   5.250  11.298  0.00  0.00    +0.000 A 
ATOM     26  C   UNL     1      43.920   4.636  12.255  0.00  0.00    +0.000 A 
ATOM     27  S   UNL     1      43.371   3.090  11.795  0.00  0.00    +0.000 S 
ATOM     28  C   UNL     1      44.206   3.174  10.314  0.00  0.00    +0.000 A 
ATOM     29  N   UNL     1      44.182   2.135   9.436  0.00  0.00    +0.000 NA
ATOM     30  C   UNL     1      44.870   2.332   8.361  0.00  0.00    +0.000 A 
ATOM     31  N   UNL     1      45.573   3.478   8.081  0.00  0.00    +0.000 N 
ATOM     32  C   UNL     1      45.621   4.552   8.933  0.00  0.00    +0.000 A 
ATOM     33  O   UNL     1      46.234   5.574   8.644  0.00  0.00    +0.000 OA
ATOM     34  C   UNL     1      44.871   4.378  10.164  0.00  0.00    +0.000 A 
ATOM     35  H   UNL     1      46.081   3.573   7.215  0.00  0.00    +0.000 HD
ENDBRANCH  22  25
ENDBRANCH  20  21
ENDBRANCH   4  20
TORSDOF 7
ENDMDL
MODEL 8
REMARK VINA RESULT:    -6.978      2.247      3.339
REMARK INTER + INTRA:         -10.835
REMARK INTER:                  -9.968
REMARK INTRA:                  -0.867
REMARK UNBOUND:                -1.001
REMARK  Name = 
REMARK  8 active torsions:
REMARK  status: ('A' for Active; 'I' for Inactive)
REMARK    1  A    between atoms: C_1  and  O_2
REMARK    2  A    between atoms: O_2  and  C_3
REMARK    3  A    between atoms: C_8  and  C_9
REMARK    4  A    between atoms: N_11  and  C_12
REMARK    5  A    between atoms: C_12  and  C_13
REMARK    6  A    between atoms: C_16  and  C_17
REMARK    7  A    between atoms: C_17  and  N_18
REMARK    8  A    between atoms: C_19  and  C_21
REMARK                            x       y       z     vdW  Elec       q    Type
REMARK                         _______ _______ _______ _____ _____    ______ ____
ROOT
ATOM      1  C   UNL     1      46.507   7.709  12.676  0.00  0.00    +0.000 C 
ATOM      2  C   UNL     1      46.990   9.073  12.162  0.00  0.00    +0.000 C 
ATOM      3  C   UNL     1      48.327   9.486  12.772  0.00  0.00    +0.000 C 
ATOM      4  C   UNL     1      49.420   8.434  12.530  0.00  0.00    +0.000 C 
ATOM      5  C   UNL     1      48.955   7.069  13.065  0.00  0.00    +0.000 C 
ATOM      6  C   UNL     1      47.604   6.647  12.477  0.00  0.00    +0.000 C 
ENDROOT
BRANCH   1   7
ATOM      7  C   UNL     1      45.211   7.272  11.963  0.00  0.00    +0.000 C 
BRANCH   7  10
ATOM      8  C   UNL     1      44.308   5.420  10.577  0.00  0.00    +0.000 C 
ATOM      9  O   UNL     1      43.150   5.813  10.699  0.00  0.00    +0.000 OA
ATOM     10  N   UNL     1      45.365   6.062  11.176  0.00  0.00    +0.000 N 
ATOM     11  H   UNL     1      46.288   5.654  11.073  0.00  0.00    +0.000 HD
BRANCH   8  17
ATOM     12  C   UNL     1      44.181   2.905   9.983  0.00  0.00    +0.000 A 
ATOM     13  C   UNL     1      44.639   1.860   9.163  0.00  0.00    +0.000 A 
ATOM     14  C   UNL     1      45.510   2.102   8.104  0.00  0.00    +0.000 A 
ATOM     15  C   UNL     1      45.903   3.402   7.816  0.00  0.00    +0.000 A 
ATOM     16  C   UNL     1      45.451   4.454   8.613  0.00  0.00    +0.000 A 
ATOM     17  C   UNL     1      44.612   4.222   9.720  0.00  0.00    +0.000 A 
BRANCH  12  19
ATOM     18  C   UNL     1      43.814   2.685  12.321  0.00  0.00    +0.000 C 
ATOM     19  O   UNL     1      43.280   2.691  10.999  0.00  0.00    +0.000 OA
ENDBRANCH  12  19
ENDBRANCH   8  17
ENDBRANCH   7  10
ENDBRANCH   1   7
BRANCH   4  20
ATOM     20  C   UNL     1      50.754   8.846  13.184  0.00  0.00    +0.000 C 
BRANCH  20  21
ATOM     21  N   UNL     1      51.284   7.832  14.077  0.00  0.00    +0.000 N 
ATOM     22  C   UNL     1      51.269   7.980  15.441  0.00  0.00    +0.000 C 
ATOM     23  O   UNL     1      50.801   8.981  15.986  0.00  0.00    +0.000 OA
ATOM     24  H   UNL     1      51.862   7.103  13.670  0.00  0.00    +0.000 HD
BRANCH  22  25
ATOM     25  C   UNL     1      51.783   6.863  16.237  0.00  0.00    +0.000 A 
ATOM     26  C   UNL     1      53.150   6.736  16.446  0.00  0.00    +0.000 A 
ATOM     27  S   UNL     1      53.572   5.379  17.388  0.00  0.00    +0.000 S 
ATOM     28  C   UNL     1      51.945   4.896  17.520  0.00  0.00    +0.000 A 
ATOM     29  N   UNL     1      51.603   3.762  18.189  0.00  0.00    +0.000 NA
ATOM     30  C   UNL     1      50.336   3.511  18.197  0.00  0.00    +0.000 A 
ATOM     31  N   UNL     1      49.379   4.298  17.605  0.00  0.00    +0.000 N 
ATOM     32  C   UNL     1      49.677   5.453  16.926  0.00  0.00    +0.000 A 
ATOM     33  O   UNL     1      48.798   6.152  16.431  0.00  0.00    +0.000 OA
ATOM     34  C   UNL     1      51.092   5.775  16.877  0.00  0.00    +0.000 A 
ATOM     35  H   UNL     1      48.402   4.053  17.659  0.00  0.00    +0.000 HD
ENDBRANCH  22  25
ENDBRANCH  20  21
ENDBRANCH   4  20
TORSDOF 7
ENDMDL
MODEL 9
REMARK VINA RESULT:    -6.905      2.597      3.547
REMARK INTER + INTRA:         -10.732
REMARK INTER:                 -10.101
REMARK INTRA:                  -0.631
REMARK UNBOUND:                -1.001
REMARK  Name = 
REMARK  8 active torsions:
REMARK  status: ('A' for Active; 'I' for Inactive)
REMARK    1  A    between atoms: C_1  and  O_2
REMARK    2  A    between atoms: O_2  and  C_3
REMARK    3  A    between atoms: C_8  and  C_9
REMARK    4  A    between atoms: N_11  and  C_12
REMARK    5  A    between atoms: C_12  and  C_13
REMARK    6  A    between atoms: C_16  and  C_17
REMARK    7  A    between atoms: C_17  and  N_18
REMARK    8  A    between atoms: C_19  and  C_21
REMARK                            x       y       z     vdW  Elec       q    Type
REMARK                         _______ _______ _______ _____ _____    ______ ____
ROOT
ATOM      1  C   UNL     1      45.928   7.832  12.537  0.00  0.00    +0.000 C 
ATOM      2  C   UNL     1      46.720   9.096  12.179  0.00  0.00    +0.000 C 
ATOM      3  C   UNL     1      47.827   9.397  13.187  0.00  0.00    +0.000 C 
ATOM      4  C   UNL     1      48.796   8.216  13.347  0.00  0.00    +0.000 C 
ATOM      5  C   UNL     1      48.012   6.949  13.730  0.00  0.00    +0.000 C 
ATOM      6  C   UNL     1      46.885   6.643  12.738  0.00  0.00    +0.000 C 
ENDROOT
BRANCH   1   7
ATOM      7  C   UNL     1      44.890   7.496  11.445  0.00  0.00    +0.000 C 
BRANCH   7  10
ATOM      8  C   UNL     1      44.186   5.368  10.378  0.00  0.00    +0.000 C 
ATOM      9  O   UNL     1      43.002   5.554  10.650  0.00  0.00    +0.000 OA
ATOM     10  N   UNL     1      45.168   6.256  10.746  0.00  0.00    +0.000 N 
ATOM     11  H   UNL     1      46.130   6.014  10.532  0.00  0.00    +0.000 HD
BRANCH   8  17
ATOM     12  C   UNL     1      44.251   2.827   9.896  0.00  0.00    +0.000 A 
ATOM     13  C   UNL     1      44.804   1.782   9.137  0.00  0.00    +0.000 A 
ATOM     14  C   UNL     1      45.688   2.038   8.092  0.00  0.00    +0.000 A 
ATOM     15  C   UNL     1      45.998   3.348   7.755  0.00  0.00    +0.000 A 
ATOM     16  C   UNL     1      45.451   4.400   8.490  0.00  0.00    +0.000 A 
ATOM     17  C   UNL     1      44.597   4.158   9.584  0.00  0.00    +0.000 A 
BRANCH  12  19
ATOM     18  C   UNL     1      43.840   2.647  12.230  0.00  0.00    +0.000 C 
ATOM     19  O   UNL     1      43.338   2.595  10.897  0.00  0.00    +0.000 OA
ENDBRANCH  12  19
ENDBRANCH   8  17
ENDBRANCH   7  10
ENDBRANCH   1   7
BRANCH   4  20
ATOM     20  C   UNL     1      49.884   8.517  14.396  0.00  0.00    +0.000 C 
BRANCH  20  21
ATOM     21  N   UNL     1      49.478   8.182  15.748  0.00  0.00    +0.000 N 
ATOM     22  C   UNL     1      50.283   7.466  16.597  0.00  0.00    +0.000 C 
ATOM     23  O   UNL     1      51.399   7.068  16.260  0.00  0.00    +0.000 OA
ATOM     24  H   UNL     1      48.498   8.304  15.988  0.00  0.00    +0.000 HD
BRANCH  22  25
ATOM     25  C   UNL     1      49.784   7.240  17.955  0.00  0.00    +0.000 A 
ATOM     26  C   UNL     1      49.614   8.316  18.816  0.00  0.00    +0.000 A 
ATOM     27  S   UNL     1      49.032   7.872  20.356  0.00  0.00    +0.000 S 
ATOM     28  C   UNL     1      49.020   6.223  19.936  0.00  0.00    +0.000 A 
ATOM     29  N   UNL     1      48.648   5.273  20.836  0.00  0.00    +0.000 NA
ATOM     30  C   UNL     1      48.699   4.064  20.385  0.00  0.00    +0.000 A 
ATOM     31  N   UNL     1      49.080   3.720  19.112  0.00  0.00    +0.000 N 
ATOM     32  C   UNL     1      49.457   4.643  18.169  0.00  0.00    +0.000 A 
ATOM     33  O   UNL     1      49.766   4.309  17.030  0.00  0.00    +0.000 OA
ATOM     34  C   UNL     1      49.428   6.020  18.629  0.00  0.00    +0.000 A 
ATOM     35  H   UNL     1      49.087   2.755  18.817  0.00  0.00    +0.000 HD
ENDBRANCH  22  25
ENDBRANCH  20  21
ENDBRANCH   4  20
TORSDOF 7
ENDMDL
