MODEL 1
REMARK VINA RESULT:    -8.574      0.000      0.000
REMARK INTER + INTRA:         -12.275
REMARK INTER:                 -11.581
REMARK INTRA:                  -0.694
REMARK UNBOUND:                -0.694
REMARK  Name = 
REMARK  7 active torsions:
REMARK  status: ('A' for Active; 'I' for Inactive)
REMARK    1  A    between atoms: C_1  and  C_2
REMARK    2  A    between atoms: C_2  and  N_3
REMARK    3  A    between atoms: C_2  and  C_16
REMARK    4  A    between atoms: C_4  and  C_6
REMARK    5  A    between atoms: C_19  and  O_20
REMARK    6  A    between atoms: O_20  and  C_21
REMARK    7  A    between atoms: C_21  and  C_22
REMARK                            x       y       z     vdW  Elec       q    Type
REMARK                         _______ _______ _______ _____ _____    ______ ____
ROOT
ATOM      1  C   UNL     1      47.817   8.920  12.326  0.00  0.00    +0.000 C 
ATOM      2  C   UNL     1      46.750   8.165  13.123  0.00  0.00    +0.000 C 
ENDROOT
BRANCH   2   3
ATOM      3  C   UNL     1      46.091   7.033  12.355  0.00  0.00    +0.000 A 
ATOM      4  C   UNL     1      46.434   6.859  11.008  0.00  0.00    +0.000 A 
ATOM      5  C   UNL     1      45.876   5.832  10.246  0.00  0.00    +0.000 A 
ATOM      6  C   UNL     1      44.960   4.952  10.821  0.00  0.00    +0.000 A 
ATOM      7  C   UNL     1      44.569   5.143  12.145  0.00  0.00    +0.000 A 
ATOM      8  C   UNL     1      45.128   6.176  12.908  0.00  0.00    +0.000 A 
BRANCH   6   9
ATOM      9  O   UNL     1      44.364   3.909  10.161  0.00  0.00    +0.000 OA
BRANCH   9  10
ATOM     10  C   UNL     1      44.420   4.004   8.732  0.00  0.00    +0.000 C 
BRANCH  10  11
ATOM     11  C   UNL     1      45.509   3.137   8.143  0.00  0.00    +0.000 A 
ATOM     12  C   UNL     1      46.409   3.627   7.200  0.00  0.00    +0.000 A 
ATOM     13  C   UNL     1      47.365   2.765   6.670  0.00  0.00    +0.000 A 
ATOM     14  C   UNL     1      47.391   1.438   7.083  0.00  0.00    +0.000 A 
ATOM     15  C   UNL     1      46.457   1.026   8.015  0.00  0.00    +0.000 A 
ATOM     16  N   UNL     1      45.520   1.837   8.545  0.00  0.00    +0.000 NA
ENDBRANCH  10  11
ENDBRANCH   9  10
ENDBRANCH   6   9
ENDBRANCH   2   3
BRANCH   2  17
ATOM     17  N   UNL     1      47.326   7.659  14.350  0.00  0.00    +0.000 N 
ATOM     18  C   UNL     1      48.317   6.715  14.404  0.00  0.00    +0.000 C 
ATOM     19  O   UNL     1      48.860   6.250  13.409  0.00  0.00    +0.000 OA
ATOM     20  H   UNL     1      46.906   7.986  15.209  0.00  0.00    +0.000 HD
BRANCH  18  21
ATOM     21  C   UNL     1      48.715   6.314  15.757  0.00  0.00    +0.000 A 
ATOM     22  C   UNL     1      49.613   7.080  16.488  0.00  0.00    +0.000 A 
ATOM     23  S   UNL     1      49.932   6.449  18.042  0.00  0.00    +0.000 S 
ATOM     24  C   UNL     1      48.926   5.103  17.766  0.00  0.00    +0.000 A 
ATOM     25  N   UNL     1      48.778   4.131  18.707  0.00  0.00    +0.000 NA
ATOM     26  C   UNL     1      48.023   3.147  18.339  0.00  0.00    +0.000 A 
ATOM     27  N   UNL     1      47.397   3.052  17.127  0.00  0.00    +0.000 N 
ATOM     28  C   UNL     1      47.456   4.042  16.177  0.00  0.00    +0.000 A 
ATOM     29  O   UNL     1      46.774   3.980  15.163  0.00  0.00    +0.000 OA
ATOM     30  C   UNL     1      48.330   5.150  16.519  0.00  0.00    +0.000 A 
ATOM     31  H   UNL     1      46.791   2.273  16.914  0.00  0.00    +0.000 HD
ENDBRANCH  18  21
ENDBRANCH   2  17
TORSDOF 6
ENDMDL
MODEL 2
REMARK VINA RESULT:    -7.833      1.907      2.442
REMARK INTER + INTRA:         -11.274
REMARK INTER:                 -10.245
REMARK INTRA:                  -1.029
REMARK UNBOUND:                -0.694
REMARK  Name = 
REMARK  7 active torsions:
REMARK  status: ('A' for Active; 'I' for Inactive)
REMARK    1  A    between atoms: C_1  and  C_2
REMARK    2  A    between atoms: C_2  and  N_3
REMARK    3  A    between atoms: C_2  and  C_16
REMARK    4  A    between atoms: C_4  and  C_6
REMARK    5  A    between atoms: C_19  and  O_20
REMARK    6  A    between atoms: O_20  and  C_21
REMARK    7  A    between atoms: C_21  and  C_22
REMARK                            x       y       z     vdW  Elec       q    Type
REMARK                         _______ _______ _______ _____ _____    ______ ____
ROOT
ATOM      1  C   UNL     1      49.663   7.364  13.299  0.00  0.00    +0.000 C 
ATOM      2  C   UNL     1      48.214   7.593  13.737  0.00  0.00    +0.000 C 
ENDROOT
BRANCH   2   3
ATOM      3  C   UNL     1      47.209   6.686  13.049  0.00  0.00    +0.000 A 
ATOM      4  C   UNL     1      46.904   5.459  13.653  0.00  0.00    +0.000 A 
ATOM      5  C   UNL     1      45.980   4.583  13.082  0.00  0.00    +0.000 A 
ATOM      6  C   UNL     1      45.339   4.920  11.890  0.00  0.00    +0.000 A 
ATOM      7  C   UNL     1      45.670   6.113  11.251  0.00  0.00    +0.000 A 
ATOM      8  C   UNL     1      46.599   6.991  11.823  0.00  0.00    +0.000 A 
BRANCH   6   9
ATOM      9  O   UNL     1      44.413   4.133  11.257  0.00  0.00    +0.000 OA
BRANCH   9  10
ATOM     10  C   UNL     1      44.212   4.451   9.874  0.00  0.00    +0.000 C 
BRANCH  10  11
ATOM     11  C   UNL     1      45.088   3.622   8.963  0.00  0.00    +0.000 A 
ATOM     12  C   UNL     1      45.224   2.246   9.128  0.00  0.00    +0.000 A 
ATOM     13  C   UNL     1      46.078   1.548   8.277  0.00  0.00    +0.000 A 
ATOM     14  C   UNL     1      46.778   2.238   7.295  0.00  0.00    +0.000 A 
ATOM     15  C   UNL     1      46.596   3.605   7.203  0.00  0.00    +0.000 A 
ATOM     16  N   UNL     1      45.778   4.309   8.012  0.00  0.00    +0.000 NA
ENDBRANCH  10  11
ENDBRANCH   9  10
ENDBRANCH   6   9
ENDBRANCH   2   3
BRANCH   2  17
ATOM     17  N   UNL     1      48.111   7.444  15.173  0.00  0.00    +0.000 N 
ATOM     18  C   UNL     1      48.591   8.354  16.078  0.00  0.00    +0.000 C 
ATOM     19  O   UNL     1      49.102   9.420  15.756  0.00  0.00    +0.000 OA
ATOM     20  H   UNL     1      47.719   6.574  15.506  0.00  0.00    +0.000 HD
BRANCH  18  21
ATOM     21  C   UNL     1      48.420   7.975  17.484  0.00  0.00    +0.000 A 
ATOM     22  C   UNL     1      47.878   8.869  18.397  0.00  0.00    +0.000 A 
ATOM     23  S   UNL     1      47.752   8.229  19.975  0.00  0.00    +0.000 S 
ATOM     24  C   UNL     1      48.471   6.760  19.501  0.00  0.00    +0.000 A 
ATOM     25  N   UNL     1      48.696   5.764  20.400  0.00  0.00    +0.000 NA
ATOM     26  C   UNL     1      49.293   4.728  19.907  0.00  0.00    +0.000 A 
ATOM     27  N   UNL     1      49.674   4.594  18.600  0.00  0.00    +0.000 N 
ATOM     28  C   UNL     1      49.401   5.538  17.642  0.00  0.00    +0.000 A 
ATOM     29  O   UNL     1      49.638   5.322  16.461  0.00  0.00    +0.000 OA
ATOM     30  C   UNL     1      48.774   6.745  18.152  0.00  0.00    +0.000 A 
ATOM     31  H   UNL     1      50.106   3.743  18.268  0.00  0.00    +0.000 HD
ENDBRANCH  18  21
ENDBRANCH   2  17
TORSDOF 6
ENDMDL
MODEL 3
REMARK VINA RESULT:    -7.685      1.795      2.160
REMARK INTER + INTRA:         -11.074
REMARK INTER:                  -9.839
REMARK INTRA:                  -1.235
REMARK UNBOUND:                -0.694
REMARK  Name = 
REMARK  7 active torsions:
REMARK  status: ('A' for Active; 'I' for Inactive)
REMARK    1  A    between atoms: C_1  and  C_2
REMARK    2  A    between atoms: C_2  and  N_3
REMARK    3  A    between atoms: C_2  and  C_16
REMARK    4  A    between atoms: C_4  and  C_6
REMARK    5  A    between atoms: C_19  and  O_20
REMARK    6  A    between atoms: O_20  and  C_21
REMARK    7  A    between atoms: C_21  and  C_22
REMARK                            x       y       z     vdW  Elec       q    Type
REMARK                         _______ _______ _______ _____ _____    ______ ____
ROOT
ATOM      1  C   UNL     1      48.011   9.079  12.257  0.00  0.00    +0.000 C 
ATOM      2  C   UNL     1      47.497   8.096  13.313  0.00  0.00    +0.000 C 
ENDROOT
BRANCH   2   3
ATOM      3  C   UNL     1      46.679   6.950  12.746  0.00  0.00    +0.000 A 
ATOM      4  C   UNL     1      45.750   7.236  11.736  0.00  0.00    +0.000 A 
ATOM      5  C   UNL     1      44.975   6.229  11.161  0.00  0.00    +0.000 A 
ATOM      6  C   UNL     1      45.114   4.908  11.585  0.00  0.00    +0.000 A 
ATOM      7  C   UNL     1      45.996   4.616  12.624  0.00  0.00    +0.000 A 
ATOM      8  C   UNL     1      46.773   5.627  13.202  0.00  0.00    +0.000 A 
BRANCH   6   9
ATOM      9  O   UNL     1      44.407   3.850  11.078  0.00  0.00    +0.000 OA
BRANCH   9  10
ATOM     10  C   UNL     1      44.067   3.975   9.691  0.00  0.00    +0.000 C 
BRANCH  10  11
ATOM     11  C   UNL     1      45.082   3.310   8.791  0.00  0.00    +0.000 A 
ATOM     12  C   UNL     1      45.376   1.954   8.891  0.00  0.00    +0.000 A 
ATOM     13  C   UNL     1      46.350   1.412   8.056  0.00  0.00    +0.000 A 
ATOM     14  C   UNL     1      47.010   2.237   7.153  0.00  0.00    +0.000 A 
ATOM     15  C   UNL     1      46.669   3.576   7.122  0.00  0.00    +0.000 A 
ATOM     16  N   UNL     1      45.731   4.129   7.918  0.00  0.00    +0.000 NA
ENDBRANCH  10  11
ENDBRANCH   9  10
ENDBRANCH   6   9
ENDBRANCH   2   3
BRANCH   2  17
ATOM     17  N   UNL     1      48.611   7.577  14.077  0.00  0.00    +0.000 N 
ATOM     18  C   UNL     1      49.185   8.225  15.139  0.00  0.00    +0.000 C 
ATOM     19  O   UNL     1      48.768   9.287  15.586  0.00  0.00    +0.000 OA
ATOM     20  H   UNL     1      49.017   6.714  13.745  0.00  0.00    +0.000 HD
BRANCH  18  21
ATOM     21  C   UNL     1      50.334   7.536  15.735  0.00  0.00    +0.000 A 
ATOM     22  C   UNL     1      51.616   8.053  15.602  0.00  0.00    +0.000 A 
ATOM     23  S   UNL     1      52.808   7.109  16.379  0.00  0.00    +0.000 S 
ATOM     24  C   UNL     1      51.659   5.951  16.866  0.00  0.00    +0.000 A 
ATOM     25  N   UNL     1      52.029   4.839  17.556  0.00  0.00    +0.000 NA
ATOM     26  C   UNL     1      51.058   4.026  17.815  0.00  0.00    +0.000 A 
ATOM     27  N   UNL     1      49.753   4.228  17.457  0.00  0.00    +0.000 N 
ATOM     28  C   UNL     1      49.319   5.368  16.827  0.00  0.00    +0.000 A 
ATOM     29  O   UNL     1      48.126   5.570  16.645  0.00  0.00    +0.000 OA
ATOM     30  C   UNL     1      50.379   6.295  16.470  0.00  0.00    +0.000 A 
ATOM     31  H   UNL     1      49.033   3.570  17.720  0.00  0.00    +0.000 HD
ENDBRANCH  18  21
ENDBRANCH   2  17
TORSDOF 6
ENDMDL
MODEL 4
REMARK VINA RESULT:    -7.239      2.308      2.843
REMARK INTER + INTRA:         -10.472
REMARK INTER:                  -9.420
REMARK INTRA:                  -1.053
REMARK UNBOUND:                -0.694
REMARK  Name = 
REMARK  7 active torsions:
REMARK  status: ('A' for Active; 'I' for Inactive)
REMARK    1  A    between atoms: C_1  and  C_2
REMARK    2  A    between atoms: C_2  and  N_3
REMARK    3  A    between atoms: C_2  and  C_16
REMARK    4  A    between atoms: C_4  and  C_6
REMARK    5  A    between atoms: C_19  and  O_20
REMARK    6  A    between atoms: O_20  and  C_21
REMARK    7  A    between atoms: C_21  and  C_22
REMARK                            x       y       z     vdW  Elec       q    Type
REMARK                         _______ _______ _______ _____ _____    ______ ____
ROOT
ATOM      1  C   UNL     1      49.402   8.770  14.518  0.00  0.00    +0.000 C 
ATOM      2  C   UNL     1      48.641   7.613  15.170  0.00  0.00    +0.000 C 
ENDROOT
BRANCH   2   3
ATOM      3  C   UNL     1      47.695   6.887  14.231  0.00  0.00    +0.000 A 
ATOM      4  C   UNL     1      46.956   7.650  13.316  0.00  0.00    +0.000 A 
ATOM      5  C   UNL     1      46.077   7.047  12.415  0.00  0.00    +0.000 A 
ATOM      6  C   UNL     1      45.921   5.661  12.409  0.00  0.00    +0.000 A 
ATOM      7  C   UNL     1      46.610   4.894  13.347  0.00  0.00    +0.000 A 
ATOM      8  C   UNL     1      47.490   5.499  14.252  0.00  0.00    +0.000 A 
BRANCH   6   9
ATOM      9  O   UNL     1      45.093   4.976  11.560  0.00  0.00    +0.000 OA
BRANCH   9  10
ATOM     10  C   UNL     1      45.149   5.414  10.196  0.00  0.00    +0.000 C 
BRANCH  10  11
ATOM     11  C   UNL     1      45.514   4.294   9.250  0.00  0.00    +0.000 A 
ATOM     12  C   UNL     1      45.318   2.957   9.585  0.00  0.00    +0.000 A 
ATOM     13  C   UNL     1      45.713   1.972   8.682  0.00  0.00    +0.000 A 
ATOM     14  C   UNL     1      46.299   2.345   7.478  0.00  0.00    +0.000 A 
ATOM     15  C   UNL     1      46.469   3.693   7.225  0.00  0.00    +0.000 A 
ATOM     16  N   UNL     1      46.099   4.668   8.080  0.00  0.00    +0.000 NA
ENDBRANCH  10  11
ENDBRANCH   9  10
ENDBRANCH   6   9
ENDBRANCH   2   3
BRANCH   2  17
ATOM     17  N   UNL     1      49.580   6.675  15.746  0.00  0.00    +0.000 N 
ATOM     18  C   UNL     1      49.544   6.249  17.048  0.00  0.00    +0.000 C 
ATOM     19  O   UNL     1      48.668   6.576  17.840  0.00  0.00    +0.000 OA
ATOM     20  H   UNL     1      50.343   6.383  15.150  0.00  0.00    +0.000 HD
BRANCH  18  21
ATOM     21  C   UNL     1      50.625   5.335  17.428  0.00  0.00    +0.000 A 
ATOM     22  C   UNL     1      51.835   5.827  17.900  0.00  0.00    +0.000 A 
ATOM     23  S   UNL     1      52.953   4.601  18.301  0.00  0.00    +0.000 S 
ATOM     24  C   UNL     1      51.879   3.377  17.802  0.00  0.00    +0.000 A 
ATOM     25  N   UNL     1      52.236   2.065  17.849  0.00  0.00    +0.000 NA
ATOM     26  C   UNL     1      51.339   1.253  17.393  0.00  0.00    +0.000 A 
ATOM     27  N   UNL     1      50.117   1.631  16.906  0.00  0.00    +0.000 N 
ATOM     28  C   UNL     1      49.684   2.934  16.908  0.00  0.00    +0.000 A 
ATOM     29  O   UNL     1      48.536   3.214  16.590  0.00  0.00    +0.000 OA
ATOM     30  C   UNL     1      50.673   3.894  17.366  0.00  0.00    +0.000 A 
ATOM     31  H   UNL     1      49.445   0.944  16.596  0.00  0.00    +0.000 HD
ENDBRANCH  18  21
ENDBRANCH   2  17
TORSDOF 6
ENDMDL
MODEL 5
REMARK VINA RESULT:    -6.707      4.387      8.821
REMARK INTER + INTRA:          -9.754
REMARK INTER:                  -9.311
REMARK INTRA:                  -0.442
REMARK UNBOUND:                -0.694
REMARK  Name = 
REMARK  7 active torsions:
REMARK  status: ('A' for Active; 'I' for Inactive)
REMARK    1  A    between atoms: C_1  and  C_2
REMARK    2  A    between atoms: C_2  and  N_3
REMARK    3  A    between atoms: C_2  and  C_16
REMARK    4  A    between atoms: C_4  and  C_6
REMARK    5  A    between atoms: C_19  and  O_20
REMARK    6  A    between atoms: O_20  and  C_21
REMARK    7  A    between atoms: C_21  and  C_22
REMARK                            x       y       z     vdW  Elec       q    Type
REMARK                         _______ _______ _______ _____ _____    ______ ____
ROOT
ATOM      1  C   UNL     1      46.799   2.968  17.352  0.00  0.00    +0.000 C 
ATOM      2  C   UNL     1      47.624   4.256  17.303  0.00  0.00    +0.000 C 
ENDROOT
BRANCH   2   3
ATOM      3  C   UNL     1      49.121   4.037  17.418  0.00  0.00    +0.000 A 
ATOM      4  C   UNL     1      49.601   2.720  17.394  0.00  0.00    +0.000 A 
ATOM      5  C   UNL     1      50.966   2.447  17.482  0.00  0.00    +0.000 A 
ATOM      6  C   UNL     1      51.885   3.490  17.594  0.00  0.00    +0.000 A 
ATOM      7  C   UNL     1      51.420   4.802  17.671  0.00  0.00    +0.000 A 
ATOM      8  C   UNL     1      50.049   5.076  17.585  0.00  0.00    +0.000 A 
BRANCH   6   9
ATOM      9  O   UNL     1      53.242   3.326  17.677  0.00  0.00    +0.000 OA
BRANCH   9  10
ATOM     10  C   UNL     1      53.666   2.398  18.685  0.00  0.00    +0.000 C 
BRANCH  10  11
ATOM     11  C   UNL     1      54.183   1.107  18.094  0.00  0.00    +0.000 A 
ATOM     12  C   UNL     1      54.832   1.071  16.864  0.00  0.00    +0.000 A 
ATOM     13  C   UNL     1      55.250  -0.159  16.359  0.00  0.00    +0.000 A 
ATOM     14  C   UNL     1      55.001  -1.316  17.088  0.00  0.00    +0.000 A 
ATOM     15  C   UNL     1      54.341  -1.197  18.296  0.00  0.00    +0.000 A 
ATOM     16  N   UNL     1      53.923  -0.022  18.809  0.00  0.00    +0.000 NA
ENDBRANCH  10  11
ENDBRANCH   9  10
ENDBRANCH   6   9
ENDBRANCH   2   3
BRANCH   2  17
ATOM     17  N   UNL     1      47.323   4.981  16.088  0.00  0.00    +0.000 N 
ATOM     18  C   UNL     1      47.297   4.416  14.840  0.00  0.00    +0.000 C 
ATOM     19  O   UNL     1      47.468   3.220  14.638  0.00  0.00    +0.000 OA
ATOM     20  H   UNL     1      47.194   5.979  16.183  0.00  0.00    +0.000 HD
BRANCH  18  21
ATOM     21  C   UNL     1      47.017   5.351  13.745  0.00  0.00    +0.000 A 
ATOM     22  C   UNL     1      47.965   6.286  13.353  0.00  0.00    +0.000 A 
ATOM     23  S   UNL     1      47.449   7.266  12.054  0.00  0.00    +0.000 S 
ATOM     24  C   UNL     1      45.923   6.512  12.014  0.00  0.00    +0.000 A 
ATOM     25  N   UNL     1      44.964   6.911  11.134  0.00  0.00    +0.000 NA
ATOM     26  C   UNL     1      43.840   6.281  11.252  0.00  0.00    +0.000 A 
ATOM     27  N   UNL     1      43.593   5.287  12.158  0.00  0.00    +0.000 N 
ATOM     28  C   UNL     1      44.550   4.801  13.013  0.00  0.00    +0.000 A 
ATOM     29  O   UNL     1      44.328   3.822  13.713  0.00  0.00    +0.000 OA
ATOM     30  C   UNL     1      45.819   5.506  12.956  0.00  0.00    +0.000 A 
ATOM     31  H   UNL     1      42.702   4.810  12.177  0.00  0.00    +0.000 HD
ENDBRANCH  18  21
ENDBRANCH   2  17
TORSDOF 6
ENDMDL
MODEL 6
REMARK VINA RESULT:    -6.500      4.350      8.885
REMARK INTER + INTRA:          -9.473
REMARK INTER:                  -8.790
REMARK INTRA:                  -0.683
REMARK UNBOUND:                -0.694
REMARK  Name = 
REMARK  7 active torsions:
REMARK  status: ('A' for Active; 'I' for Inactive)
REMARK    1  A    between atoms: C_1  and  C_2
REMARK    2  A    between atoms: C_2  and  N_3
REMARK    3  A    between atoms: C_2  and  C_16
REMARK    4  A    between atoms: C_4  and  C_6
REMARK    5  A    between atoms: C_19  and  O_20
REMARK    6  A    between atoms: O_20  and  C_21
REMARK    7  A    between atoms: C_21  and  C_22
REMARK                            x       y       z     vdW  Elec       q    Type
REMARK                         _______ _______ _______ _____ _____    ______ ____
ROOT
ATOM      1  C   UNL     1      46.878   2.874  17.570  0.00  0.00    +0.000 C 
ATOM      2  C   UNL     1      47.713   4.154  17.483  0.00  0.00    +0.000 C 
ENDROOT
BRANCH   2   3
ATOM      3  C   UNL     1      49.210   3.924  17.576  0.00  0.00    +0.000 A 
ATOM      4  C   UNL     1      49.693   2.622  17.385  0.00  0.00    +0.000 A 
ATOM      5  C   UNL     1      51.058   2.341  17.444  0.00  0.00    +0.000 A 
ATOM      6  C   UNL     1      51.974   3.363  17.695  0.00  0.00    +0.000 A 
ATOM      7  C   UNL     1      51.506   4.653  17.939  0.00  0.00    +0.000 A 
ATOM      8  C   UNL     1      50.135   4.934  17.881  0.00  0.00    +0.000 A 
BRANCH   6   9
ATOM      9  O   UNL     1      53.331   3.190  17.764  0.00  0.00    +0.000 OA
BRANCH   9  10
ATOM     10  C   UNL     1      53.759   2.251  18.759  0.00  0.00    +0.000 C 
BRANCH  10  11
ATOM     11  C   UNL     1      54.200   0.939  18.155  0.00  0.00    +0.000 A 
ATOM     12  C   UNL     1      54.635   0.846  16.836  0.00  0.00    +0.000 A 
ATOM     13  C   UNL     1      54.991  -0.402  16.330  0.00  0.00    +0.000 A 
ATOM     14  C   UNL     1      54.895  -1.522  17.146  0.00  0.00    +0.000 A 
ATOM     15  C   UNL     1      54.444  -1.349  18.441  0.00  0.00    +0.000 A 
ATOM     16  N   UNL     1      54.091  -0.154  18.958  0.00  0.00    +0.000 NA
ENDBRANCH  10  11
ENDBRANCH   9  10
ENDBRANCH   6   9
ENDBRANCH   2   3
BRANCH   2  17
ATOM     17  N   UNL     1      47.397   4.859  16.259  0.00  0.00    +0.000 N 
ATOM     18  C   UNL     1      47.365   4.275  15.020  0.00  0.00    +0.000 C 
ATOM     19  O   UNL     1      47.541   3.076  14.835  0.00  0.00    +0.000 OA
ATOM     20  H   UNL     1      47.263   5.857  16.339  0.00  0.00    +0.000 HD
BRANCH  18  21
ATOM     21  C   UNL     1      47.070   5.190  13.913  0.00  0.00    +0.000 A 
ATOM     22  C   UNL     1      45.967   4.980  13.096  0.00  0.00    +0.000 A 
ATOM     23  S   UNL     1      45.794   6.164  11.879  0.00  0.00    +0.000 S 
ATOM     24  C   UNL     1      47.217   6.961  12.368  0.00  0.00    +0.000 A 
ATOM     25  N   UNL     1      47.672   8.060  11.706  0.00  0.00    +0.000 NA
ATOM     26  C   UNL     1      48.788   8.528  12.159  0.00  0.00    +0.000 A 
ATOM     27  N   UNL     1      49.484   8.007  13.216  0.00  0.00    +0.000 N 
ATOM     28  C   UNL     1      49.028   6.947  13.959  0.00  0.00    +0.000 A 
ATOM     29  O   UNL     1      49.611   6.596  14.977  0.00  0.00    +0.000 OA
ATOM     30  C   UNL     1      47.799   6.351  13.464  0.00  0.00    +0.000 A 
ATOM     31  H   UNL     1      50.335   8.441  13.544  0.00  0.00    +0.000 HD
ENDBRANCH  18  21
ENDBRANCH   2  17
TORSDOF 6
ENDMDL
MODEL 7
REMARK VINA RESULT:    -6.182      4.939      9.278
REMARK INTER + INTRA:          -9.044
REMARK INTER:                  -7.892
REMARK INTRA:                  -1.152
REMARK UNBOUND:                -0.694
REMARK  Name = 
REMARK  7 active torsions:
REMARK  status: ('A' for Active; 'I' for Inactive)
REMARK    1  A    between atoms: C_1  and  C_2
REMARK    2  A    between atoms: C_2  and  N_3
REMARK    3  A    between atoms: C_2  and  C_16
REMARK    4  A    between atoms: C_4  and  C_6
REMARK    5  A    between atoms: C_19  and  O_20
REMARK    6  A    between atoms: O_20  and  C_21
REMARK    7  A    between atoms: C_21  and  C_22
REMARK                            x       y       z     vdW  Elec       q    Type
REMARK                         _______ _______ _______ _____ _____    ______ ____
ROOT
ATOM      1  C   UNL     1      47.825   2.811  17.718  0.00  0.00    +0.000 C 
ATOM      2  C   UNL     1      48.937   3.851  17.557  0.00  0.00    +0.000 C 
ENDROOT
BRANCH   2   3
ATOM      3  C   UNL     1      50.339   3.274  17.635  0.00  0.00    +0.000 A 
ATOM      4  C   UNL     1      50.512   1.914  17.345  0.00  0.00    +0.000 A 
ATOM      5  C   UNL     1      51.774   1.321  17.385  0.00  0.00    +0.000 A 
ATOM      6  C   UNL     1      52.896   2.081  17.715  0.00  0.00    +0.000 A 
ATOM      7  C   UNL     1      52.734   3.422  18.056  0.00  0.00    +0.000 A 
ATOM      8  C   UNL     1      51.466   4.017  18.018  0.00  0.00    +0.000 A 
BRANCH   6   9
ATOM      9  O   UNL     1      54.175   1.594  17.773  0.00  0.00    +0.000 OA
BRANCH   9  10
ATOM     10  C   UNL     1      54.464   0.825  18.947  0.00  0.00    +0.000 C 
BRANCH  10  11
ATOM     11  C   UNL     1      54.518  -0.658  18.661  0.00  0.00    +0.000 A 
ATOM     12  C   UNL     1      54.989  -1.156  17.450  0.00  0.00    +0.000 A 
ATOM     13  C   UNL     1      54.976  -2.532  17.236  0.00  0.00    +0.000 A 
ATOM     14  C   UNL     1      54.485  -3.372  18.229  0.00  0.00    +0.000 A 
ATOM     15  C   UNL     1      54.025  -2.800  19.400  0.00  0.00    +0.000 A 
ATOM     16  N   UNL     1      54.024  -1.471  19.635  0.00  0.00    +0.000 NA
ENDBRANCH  10  11
ENDBRANCH   9  10
ENDBRANCH   6   9
ENDBRANCH   2   3
BRANCH   2  17
ATOM     17  N   UNL     1      48.764   4.560  16.308  0.00  0.00    +0.000 N 
ATOM     18  C   UNL     1      48.623   5.919  16.207  0.00  0.00    +0.000 C 
ATOM     19  O   UNL     1      48.692   6.677  17.167  0.00  0.00    +0.000 OA
ATOM     20  H   UNL     1      48.676   3.990  15.478  0.00  0.00    +0.000 HD
BRANCH  18  21
ATOM     21  C   UNL     1      48.410   6.418  14.845  0.00  0.00    +0.000 A 
ATOM     22  C   UNL     1      49.157   7.481  14.356  0.00  0.00    +0.000 A 
ATOM     23  S   UNL     1      48.766   7.898  12.747  0.00  0.00    +0.000 S 
ATOM     24  C   UNL     1      47.548   6.711  12.674  0.00  0.00    +0.000 A 
ATOM     25  N   UNL     1      46.783   6.556  11.558  0.00  0.00    +0.000 NA
ATOM     26  C   UNL     1      45.866   5.650  11.665  0.00  0.00    +0.000 A 
ATOM     27  N   UNL     1      45.652   4.882  12.776  0.00  0.00    +0.000 N 
ATOM     28  C   UNL     1      46.444   4.950  13.895  0.00  0.00    +0.000 A 
ATOM     29  O   UNL     1      46.304   4.154  14.814  0.00  0.00    +0.000 OA
ATOM     30  C   UNL     1      47.461   5.986  13.847  0.00  0.00    +0.000 A 
ATOM     31  H   UNL     1      44.939   4.165  12.784  0.00  0.00    +0.000 HD
ENDBRANCH  18  21
ENDBRANCH   2  17
TORSDOF 6
ENDMDL
