MODEL 1
REMARK VINA RESULT:    -8.212      0.000      0.000
REMARK INTER + INTRA:         -11.376
REMARK INTER:                 -10.612
REMARK INTRA:                  -0.764
REMARK UNBOUND:                -0.764
REMARK  Name = 
REMARK  5 active torsions:
REMARK  status: ('A' for Active; 'I' for Inactive)
REMARK    1  A    between atoms: C_2  and  C_4
REMARK    2  A    between atoms: C_7  and  N_8
REMARK    3  A    between atoms: N_8  and  C_9
REMARK    4  A    between atoms: C_9  and  C_10
REMARK    5  A    between atoms: C_14  and  C_15
REMARK                            x       y       z     vdW  Elec       q    Type
REMARK                         _______ _______ _______ _____ _____    ______ ____
ROOT
ATOM      1  N   UNL     1      43.734   4.744   9.867  0.00  0.00    +0.000 N 
ATOM      2  H   UNL     1      43.487   5.615   9.407  0.00  0.00    +0.000 HD
ENDROOT
BRANCH   1   6
ATOM      3  C   UNL     1      46.497   2.592   7.712  0.00  0.00    +0.000 A 
ATOM      4  N   UNL     1      45.712   1.886   8.551  0.00  0.00    +0.000 NA
ATOM      5  C   UNL     1      44.841   2.619   9.279  0.00  0.00    +0.000 A 
ATOM      6  C   UNL     1      44.713   4.000   9.231  0.00  0.00    +0.000 A 
ATOM      7  C   UNL     1      45.582   4.587   8.321  0.00  0.00    +0.000 A 
ATOM      8  N   UNL     1      46.485   3.928   7.560  0.00  0.00    +0.000 NA
BRANCH   3  10
ATOM      9  N   UNL     1      48.550   2.459   6.390  0.00  0.00    +0.000 N 
ATOM     10  C   UNL     1      47.431   1.789   6.833  0.00  0.00    +0.000 C 
ATOM     11  O   UNL     1      47.248   0.615   6.523  0.00  0.00    +0.000 OA
ATOM     12  H   UNL     1      49.226   1.963   5.827  0.00  0.00    +0.000 HD
ATOM     13  H   UNL     1      48.712   3.419   6.673  0.00  0.00    +0.000 HD
ENDBRANCH   3  10
ENDBRANCH   1   6
BRANCH   1  14
ATOM     14  C   UNL     1      43.540   4.750  11.310  0.00  0.00    +0.000 C 
BRANCH  14  15
ATOM     15  C   UNL     1      44.814   5.050  12.064  0.00  0.00    +0.000 A 
ATOM     16  C   UNL     1      45.393   4.094  12.907  0.00  0.00    +0.000 A 
ATOM     17  C   UNL     1      46.599   4.364  13.549  0.00  0.00    +0.000 A 
ATOM     18  C   UNL     1      47.251   5.580  13.337  0.00  0.00    +0.000 A 
ATOM     19  C   UNL     1      46.725   6.554  12.470  0.00  0.00    +0.000 A 
ATOM     20  C   UNL     1      45.486   6.269  11.861  0.00  0.00    +0.000 A 
BRANCH  19  21
ATOM     21  C   UNL     1      47.469   7.794  12.158  0.00  0.00    +0.000 A 
ATOM     22  C   UNL     1      48.806   7.793  11.734  0.00  0.00    +0.000 A 
ATOM     23  C   UNL     1      49.483   8.991  11.499  0.00  0.00    +0.000 A 
ATOM     24  C   UNL     1      48.799  10.180  11.680  0.00  0.00    +0.000 A 
ATOM     25  N   UNL     1      47.515  10.244  12.082  0.00  0.00    +0.000 NA
ATOM     26  C   UNL     1      46.893   9.060  12.314  0.00  0.00    +0.000 A 
ENDBRANCH  19  21
ENDBRANCH  14  15
ENDBRANCH   1  14
TORSDOF 5
ENDMDL
MODEL 2
REMARK VINA RESULT:    -7.880      2.303      3.866
REMARK INTER + INTRA:         -10.947
REMARK INTER:                 -10.363
REMARK INTRA:                  -0.585
REMARK UNBOUND:                -0.764
REMARK  Name = 
REMARK  5 active torsions:
REMARK  status: ('A' for Active; 'I' for Inactive)
REMARK    1  A    between atoms: C_2  and  C_4
REMARK    2  A    between atoms: C_7  and  N_8
REMARK    3  A    between atoms: N_8  and  C_9
REMARK    4  A    between atoms: C_9  and  C_10
REMARK    5  A    between atoms: C_14  and  C_15
REMARK                            x       y       z     vdW  Elec       q    Type
REMARK                         _______ _______ _______ _____ _____    ______ ____
ROOT
ATOM      1  N   UNL     1      44.048   4.800  10.264  0.00  0.00    +0.000 N 
ATOM      2  H   UNL     1      43.873   5.744   9.935  0.00  0.00    +0.000 HD
ENDROOT
BRANCH   1   6
ATOM      3  C   UNL     1      46.323   2.322   7.899  0.00  0.00    +0.000 A 
ATOM      4  N   UNL     1      46.431   3.644   7.656  0.00  0.00    +0.000 NA
ATOM      5  C   UNL     1      45.642   4.436   8.417  0.00  0.00    +0.000 A 
ATOM      6  C   UNL     1      44.755   3.994   9.388  0.00  0.00    +0.000 A 
ATOM      7  C   UNL     1      44.757   2.612   9.527  0.00  0.00    +0.000 A 
ATOM      8  N   UNL     1      45.509   1.751   8.804  0.00  0.00    +0.000 NA
BRANCH   3  10
ATOM      9  N   UNL     1      48.322   2.046   6.517  0.00  0.00    +0.000 N 
ATOM     10  C   UNL     1      47.247   1.419   7.111  0.00  0.00    +0.000 C 
ATOM     11  O   UNL     1      47.095   0.207   6.994  0.00  0.00    +0.000 OA
ATOM     12  H   UNL     1      48.992   1.488   6.007  0.00  0.00    +0.000 HD
ATOM     13  H   UNL     1      48.460   3.042   6.641  0.00  0.00    +0.000 HD
ENDBRANCH   3  10
ENDBRANCH   1   6
BRANCH   1  14
ATOM     14  C   UNL     1      44.124   4.671  11.712  0.00  0.00    +0.000 C 
BRANCH  14  15
ATOM     15  C   UNL     1      45.426   5.194  12.273  0.00  0.00    +0.000 A 
ATOM     16  C   UNL     1      46.121   6.228  11.634  0.00  0.00    +0.000 A 
ATOM     17  C   UNL     1      47.287   6.740  12.196  0.00  0.00    +0.000 A 
ATOM     18  C   UNL     1      47.759   6.242  13.412  0.00  0.00    +0.000 A 
ATOM     19  C   UNL     1      47.073   5.231  14.107  0.00  0.00    +0.000 A 
ATOM     20  C   UNL     1      45.915   4.707  13.499  0.00  0.00    +0.000 A 
BRANCH  19  21
ATOM     21  C   UNL     1      47.510   4.782  15.448  0.00  0.00    +0.000 A 
ATOM     22  C   UNL     1      47.044   3.600  16.043  0.00  0.00    +0.000 A 
ATOM     23  C   UNL     1      47.447   3.242  17.331  0.00  0.00    +0.000 A 
ATOM     24  C   UNL     1      48.326   4.072  18.001  0.00  0.00    +0.000 A 
ATOM     25  N   UNL     1      48.809   5.217  17.480  0.00  0.00    +0.000 NA
ATOM     26  C   UNL     1      48.386   5.540  16.231  0.00  0.00    +0.000 A 
ENDBRANCH  19  21
ENDBRANCH  14  15
ENDBRANCH   1  14
TORSDOF 5
ENDMDL
MODEL 3
REMARK VINA RESULT:    -7.386      3.668      7.165
REMARK INTER + INTRA:         -10.309
REMARK INTER:                 -10.131
REMARK INTRA:                  -0.178
REMARK UNBOUND:                -0.764
REMARK  Name = 
REMARK  5 active torsions:
REMARK  status: ('A' for Active; 'I' for Inactive)
REMARK    1  A    between atoms: C_2  and  C_4
REMARK    2  A    between atoms: C_7  and  N_8
REMARK    3  A    between atoms: N_8  and  C_9
REMARK    4  A    between atoms: C_9  and  C_10
REMARK    5  A    between atoms: C_14  and  C_15
REMARK                            x       y       z     vdW  Elec       q    Type
REMARK                         _______ _______ _______ _____ _____    ______ ____
ROOT
ATOM      1  N   UNL     1      46.648   6.537  12.136  0.00  0.00    +0.000 N 
ATOM      2  H   UNL     1      47.204   7.378  12.013  0.00  0.00    +0.000 HD
ENDROOT
BRANCH   1   6
ATOM      3  C   UNL     1      47.636   4.419  15.519  0.00  0.00    +0.000 A 
ATOM      4  N   UNL     1      46.718   3.855  14.708  0.00  0.00    +0.000 NA
ATOM      5  C   UNL     1      46.378   4.588  13.624  0.00  0.00    +0.000 A 
ATOM      6  C   UNL     1      46.884   5.841  13.309  0.00  0.00    +0.000 A 
ATOM      7  C   UNL     1      47.820   6.289  14.232  0.00  0.00    +0.000 A 
ATOM      8  N   UNL     1      48.211   5.622  15.341  0.00  0.00    +0.000 NA
BRANCH   3  10
ATOM      9  N   UNL     1      47.121   3.333  17.648  0.00  0.00    +0.000 N 
ATOM     10  C   UNL     1      48.088   3.588  16.699  0.00  0.00    +0.000 C 
ATOM     11  O   UNL     1      49.222   3.140  16.836  0.00  0.00    +0.000 OA
ATOM     12  H   UNL     1      47.356   2.754  18.442  0.00  0.00    +0.000 HD
ATOM     13  H   UNL     1      46.178   3.679  17.517  0.00  0.00    +0.000 HD
ENDBRANCH   3  10
ENDBRANCH   1   6
BRANCH   1  14
ATOM     14  C   UNL     1      45.355   6.568  11.467  0.00  0.00    +0.000 C 
BRANCH  14  15
ATOM     15  C   UNL     1      44.946   5.216  10.933  0.00  0.00    +0.000 A 
ATOM     16  C   UNL     1      43.793   4.575  11.403  0.00  0.00    +0.000 A 
ATOM     17  C   UNL     1      43.397   3.357  10.859  0.00  0.00    +0.000 A 
ATOM     18  C   UNL     1      44.133   2.777   9.823  0.00  0.00    +0.000 A 
ATOM     19  C   UNL     1      45.275   3.403   9.294  0.00  0.00    +0.000 A 
ATOM     20  C   UNL     1      45.674   4.617   9.888  0.00  0.00    +0.000 A 
BRANCH  19  21
ATOM     21  C   UNL     1      45.990   2.847   8.124  0.00  0.00    +0.000 A 
ATOM     22  C   UNL     1      46.253   3.595   6.967  0.00  0.00    +0.000 A 
ATOM     23  C   UNL     1      46.887   3.012   5.868  0.00  0.00    +0.000 A 
ATOM     24  C   UNL     1      47.264   1.684   5.953  0.00  0.00    +0.000 A 
ATOM     25  N   UNL     1      47.041   0.917   7.038  0.00  0.00    +0.000 NA
ATOM     26  C   UNL     1      46.411   1.513   8.082  0.00  0.00    +0.000 A 
ENDBRANCH  19  21
ENDBRANCH  14  15
ENDBRANCH   1  14
TORSDOF 5
ENDMDL
MODEL 4
REMARK VINA RESULT:    -7.354      2.704      6.621
REMARK INTER + INTRA:         -10.267
REMARK INTER:                  -9.530
REMARK INTRA:                  -0.738
REMARK UNBOUND:                -0.764
REMARK  Name = 
REMARK  5 active torsions:
REMARK  status: ('A' for Active; 'I' for Inactive)
REMARK    1  A    between atoms: C_2  and  C_4
REMARK    2  A    between atoms: C_7  and  N_8
REMARK    3  A    between atoms: N_8  and  C_9
REMARK    4  A    between atoms: C_9  and  C_10
REMARK    5  A    between atoms: C_14  and  C_15
REMARK                            x       y       z     vdW  Elec       q    Type
REMARK                         _______ _______ _______ _____ _____    ______ ____
ROOT
ATOM      1  N   UNL     1      44.816   6.905  12.666  0.00  0.00    +0.000 N 
ATOM      2  H   UNL     1      44.420   6.503  13.511  0.00  0.00    +0.000 HD
ENDROOT
BRANCH   1   6
ATOM      3  C   UNL     1      48.871   7.564  12.472  0.00  0.00    +0.000 A 
ATOM      4  N   UNL     1      48.483   6.359  12.938  0.00  0.00    +0.000 NA
ATOM      5  C   UNL     1      47.146   6.181  13.032  0.00  0.00    +0.000 A 
ATOM      6  C   UNL     1      46.182   7.124  12.704  0.00  0.00    +0.000 A 
ATOM      7  C   UNL     1      46.732   8.311  12.236  0.00  0.00    +0.000 A 
ATOM      8  N   UNL     1      48.054   8.571  12.117  0.00  0.00    +0.000 NA
BRANCH   3  10
ATOM      9  N   UNL     1      51.096   7.830  13.450  0.00  0.00    +0.000 N 
ATOM     10  C   UNL     1      50.359   7.762  12.288  0.00  0.00    +0.000 C 
ATOM     11  O   UNL     1      50.915   7.849  11.197  0.00  0.00    +0.000 OA
ATOM     12  H   UNL     1      52.099   7.928  13.388  0.00  0.00    +0.000 HD
ATOM     13  H   UNL     1      50.637   7.727  14.348  0.00  0.00    +0.000 HD
ENDBRANCH   3  10
ENDBRANCH   1   6
BRANCH   1  14
ATOM     14  C   UNL     1      44.088   6.584  11.448  0.00  0.00    +0.000 C 
BRANCH  14  15
ATOM     15  C   UNL     1      44.143   5.112  11.111  0.00  0.00    +0.000 A 
ATOM     16  C   UNL     1      43.326   4.190  11.777  0.00  0.00    +0.000 A 
ATOM     17  C   UNL     1      43.345   2.847  11.414  0.00  0.00    +0.000 A 
ATOM     18  C   UNL     1      44.161   2.412  10.367  0.00  0.00    +0.000 A 
ATOM     19  C   UNL     1      44.969   3.309   9.646  0.00  0.00    +0.000 A 
ATOM     20  C   UNL     1      44.957   4.657  10.057  0.00  0.00    +0.000 A 
BRANCH  19  21
ATOM     21  C   UNL     1      45.747   2.870   8.467  0.00  0.00    +0.000 A 
ATOM     22  C   UNL     1      46.064   3.728   7.403  0.00  0.00    +0.000 A 
ATOM     23  C   UNL     1      46.758   3.256   6.287  0.00  0.00    +0.000 A 
ATOM     24  C   UNL     1      47.140   1.927   6.262  0.00  0.00    +0.000 A 
ATOM     25  N   UNL     1      46.867   1.058   7.255  0.00  0.00    +0.000 NA
ATOM     26  C   UNL     1      46.179   1.548   8.317  0.00  0.00    +0.000 A 
ENDBRANCH  19  21
ENDBRANCH  14  15
ENDBRANCH   1  14
TORSDOF 5
ENDMDL
MODEL 5
REMARK VINA RESULT:    -6.871      4.284      7.317
REMARK INTER + INTRA:          -9.643
REMARK INTER:                  -9.043
REMARK INTRA:                  -0.600
REMARK UNBOUND:                -0.764
REMARK  Name = 
REMARK  5 active torsions:
REMARK  status: ('A' for Active; 'I' for Inactive)
REMARK    1  A    between atoms: C_2  and  C_4
REMARK    2  A    between atoms: C_7  and  N_8
REMARK    3  A    between atoms: N_8  and  C_9
REMARK    4  A    between atoms: C_9  and  C_10
REMARK    5  A    between atoms: C_14  and  C_15
REMARK                            x       y       z     vdW  Elec       q    Type
REMARK                         _______ _______ _______ _____ _____    ______ ____
ROOT
ATOM      1  N   UNL     1      47.243   6.220  13.313  0.00  0.00    +0.000 N 
ATOM      2  H   UNL     1      48.029   6.737  12.930  0.00  0.00    +0.000 HD
ENDROOT
BRANCH   1   6
ATOM      3  C   UNL     1      48.348   4.042  16.621  0.00  0.00    +0.000 A 
ATOM      4  N   UNL     1      47.477   3.449  15.779  0.00  0.00    +0.000 NA
ATOM      5  C   UNL     1      47.095   4.201  14.722  0.00  0.00    +0.000 A 
ATOM      6  C   UNL     1      47.517   5.496  14.460  0.00  0.00    +0.000 A 
ATOM      7  C   UNL     1      48.414   5.970  15.410  0.00  0.00    +0.000 A 
ATOM      8  N   UNL     1      48.841   5.287  16.496  0.00  0.00    +0.000 NA
BRANCH   3  10
ATOM      9  N   UNL     1      50.128   2.708  17.637  0.00  0.00    +0.000 N 
ATOM     10  C   UNL     1      48.846   3.196  17.772  0.00  0.00    +0.000 C 
ATOM     11  O   UNL     1      48.193   2.949  18.781  0.00  0.00    +0.000 OA
ATOM     12  H   UNL     1      50.526   2.164  18.390  0.00  0.00    +0.000 HD
ATOM     13  H   UNL     1      50.675   2.939  16.816  0.00  0.00    +0.000 HD
ENDBRANCH   3  10
ENDBRANCH   1   6
BRANCH   1  14
ATOM     14  C   UNL     1      45.941   6.806  13.025  0.00  0.00    +0.000 C 
BRANCH  14  15
ATOM     15  C   UNL     1      45.065   5.893  12.200  0.00  0.00    +0.000 A 
ATOM     16  C   UNL     1      43.682   5.841  12.409  0.00  0.00    +0.000 A 
ATOM     17  C   UNL     1      42.880   5.040  11.601  0.00  0.00    +0.000 A 
ATOM     18  C   UNL     1      43.447   4.301  10.560  0.00  0.00    +0.000 A 
ATOM     19  C   UNL     1      44.826   4.352  10.291  0.00  0.00    +0.000 A 
ATOM     20  C   UNL     1      45.619   5.143  11.146  0.00  0.00    +0.000 A 
BRANCH  19  21
ATOM     21  C   UNL     1      45.411   3.659   9.121  0.00  0.00    +0.000 A 
ATOM     22  C   UNL     1      45.550   2.264   9.055  0.00  0.00    +0.000 A 
ATOM     23  C   UNL     1      46.153   1.659   7.951  0.00  0.00    +0.000 A 
ATOM     24  C   UNL     1      46.597   2.464   6.917  0.00  0.00    +0.000 A 
ATOM     25  N   UNL     1      46.487   3.807   6.924  0.00  0.00    +0.000 NA
ATOM     26  C   UNL     1      45.908   4.362   8.018  0.00  0.00    +0.000 A 
ENDBRANCH  19  21
ENDBRANCH  14  15
ENDBRANCH   1  14
TORSDOF 5
ENDMDL
MODEL 6
REMARK VINA RESULT:    -6.422      4.732      7.738
REMARK INTER + INTRA:          -9.063
REMARK INTER:                  -8.399
REMARK INTRA:                  -0.664
REMARK UNBOUND:                -0.764
REMARK  Name = 
REMARK  5 active torsions:
REMARK  status: ('A' for Active; 'I' for Inactive)
REMARK    1  A    between atoms: C_2  and  C_4
REMARK    2  A    between atoms: C_7  and  N_8
REMARK    3  A    between atoms: N_8  and  C_9
REMARK    4  A    between atoms: C_9  and  C_10
REMARK    5  A    between atoms: C_14  and  C_15
REMARK                            x       y       z     vdW  Elec       q    Type
REMARK                         _______ _______ _______ _____ _____    ______ ____
ROOT
ATOM      1  N   UNL     1      48.263   7.363  15.737  0.00  0.00    +0.000 N 
ATOM      2  H   UNL     1      47.353   7.624  16.106  0.00  0.00    +0.000 HD
ENDROOT
BRANCH   1   6
ATOM      3  C   UNL     1      50.034   3.890  17.046  0.00  0.00    +0.000 A 
ATOM      4  N   UNL     1      48.733   3.804  16.697  0.00  0.00    +0.000 NA
ATOM      5  C   UNL     1      48.162   4.966  16.311  0.00  0.00    +0.000 A 
ATOM      6  C   UNL     1      48.797   6.199  16.261  0.00  0.00    +0.000 A 
ATOM      7  C   UNL     1      50.131   6.130  16.643  0.00  0.00    +0.000 A 
ATOM      8  N   UNL     1      50.776   5.012  17.047  0.00  0.00    +0.000 NA
BRANCH   3  10
ATOM      9  N   UNL     1      51.744   2.698  18.323  0.00  0.00    +0.000 N 
ATOM     10  C   UNL     1      50.716   2.591  17.412  0.00  0.00    +0.000 C 
ATOM     11  O   UNL     1      50.399   1.493  16.963  0.00  0.00    +0.000 OA
ATOM     12  H   UNL     1      52.214   1.859  18.631  0.00  0.00    +0.000 HD
ATOM     13  H   UNL     1      51.983   3.602  18.714  0.00  0.00    +0.000 HD
ENDBRANCH   3  10
ENDBRANCH   1   6
BRANCH   1  14
ATOM     14  C   UNL     1      48.518   7.825  14.380  0.00  0.00    +0.000 C 
BRANCH  14  15
ATOM     15  C   UNL     1      47.269   7.841  13.530  0.00  0.00    +0.000 A 
ATOM     16  C   UNL     1      46.825   9.022  12.925  0.00  0.00    +0.000 A 
ATOM     17  C   UNL     1      45.707   9.009  12.096  0.00  0.00    +0.000 A 
ATOM     18  C   UNL     1      45.034   7.811  11.843  0.00  0.00    +0.000 A 
ATOM     19  C   UNL     1      45.467   6.595  12.399  0.00  0.00    +0.000 A 
ATOM     20  C   UNL     1      46.580   6.643  13.262  0.00  0.00    +0.000 A 
BRANCH  19  21
ATOM     21  C   UNL     1      44.823   5.311  12.044  0.00  0.00    +0.000 A 
ATOM     22  C   UNL     1      44.570   4.928  10.718  0.00  0.00    +0.000 A 
ATOM     23  C   UNL     1      43.916   3.729  10.433  0.00  0.00    +0.000 A 
ATOM     24  C   UNL     1      43.536   2.918  11.487  0.00  0.00    +0.000 A 
ATOM     25  N   UNL     1      43.756   3.231  12.779  0.00  0.00    +0.000 NA
ATOM     26  C   UNL     1      44.382   4.411  13.020  0.00  0.00    +0.000 A 
ENDBRANCH  19  21
ENDBRANCH  14  15
ENDBRANCH   1  14
TORSDOF 5
ENDMDL
MODEL 7
REMARK VINA RESULT:    -6.147      5.474      7.607
REMARK INTER + INTRA:          -8.708
REMARK INTER:                  -8.081
REMARK INTRA:                  -0.627
REMARK UNBOUND:                -0.764
REMARK  Name = 
REMARK  5 active torsions:
REMARK  status: ('A' for Active; 'I' for Inactive)
REMARK    1  A    between atoms: C_2  and  C_4
REMARK    2  A    between atoms: C_7  and  N_8
REMARK    3  A    between atoms: N_8  and  C_9
REMARK    4  A    between atoms: C_9  and  C_10
REMARK    5  A    between atoms: C_14  and  C_15
REMARK                            x       y       z     vdW  Elec       q    Type
REMARK                         _______ _______ _______ _____ _____    ______ ____
ROOT
ATOM      1  N   UNL     1      48.662   6.610  14.536  0.00  0.00    +0.000 N 
ATOM      2  H   UNL     1      49.561   6.192  14.313  0.00  0.00    +0.000 HD
ENDROOT
BRANCH   1   6
ATOM      3  C   UNL     1      45.209   4.777  13.264  0.00  0.00    +0.000 A 
ATOM      4  N   UNL     1      45.962   4.087  14.145  0.00  0.00    +0.000 NA
ATOM      5  C   UNL     1      47.113   4.691  14.516  0.00  0.00    +0.000 A 
ATOM      6  C   UNL     1      47.559   5.923  14.060  0.00  0.00    +0.000 A 
ATOM      7  C   UNL     1      46.678   6.514  13.162  0.00  0.00    +0.000 A 
ATOM      8  N   UNL     1      45.513   5.975  12.737  0.00  0.00    +0.000 NA
BRANCH   3  10
ATOM      9  N   UNL     1      43.908   2.797  12.657  0.00  0.00    +0.000 N 
ATOM     10  C   UNL     1      43.881   4.155  12.888  0.00  0.00    +0.000 C 
ATOM     11  O   UNL     1      42.828   4.778  12.797  0.00  0.00    +0.000 OA
ATOM     12  H   UNL     1      43.044   2.322  12.435  0.00  0.00    +0.000 HD
ATOM     13  H   UNL     1      44.774   2.281  12.763  0.00  0.00    +0.000 HD
ENDBRANCH   3  10
ENDBRANCH   1   6
BRANCH   1  14
ATOM     14  C   UNL     1      48.652   7.395  15.762  0.00  0.00    +0.000 C 
BRANCH  14  15
ATOM     15  C   UNL     1      48.934   6.559  16.987  0.00  0.00    +0.000 A 
ATOM     16  C   UNL     1      48.246   6.783  18.186  0.00  0.00    +0.000 A 
ATOM     17  C   UNL     1      48.474   5.965  19.289  0.00  0.00    +0.000 A 
ATOM     18  C   UNL     1      49.374   4.900  19.200  0.00  0.00    +0.000 A 
ATOM     19  C   UNL     1      50.059   4.616  18.006  0.00  0.00    +0.000 A 
ATOM     20  C   UNL     1      49.836   5.481  16.916  0.00  0.00    +0.000 A 
BRANCH  19  21
ATOM     21  C   UNL     1      50.926   3.423  17.878  0.00  0.00    +0.000 A 
ATOM     22  C   UNL     1      52.283   3.427  18.235  0.00  0.00    +0.000 A 
ATOM     23  C   UNL     1      53.073   2.292  18.050  0.00  0.00    +0.000 A 
ATOM     24  C   UNL     1      52.484   1.158  17.521  0.00  0.00    +0.000 A 
ATOM     25  N   UNL     1      51.187   1.094  17.163  0.00  0.00    +0.000 NA
ATOM     26  C   UNL     1      50.452   2.220  17.344  0.00  0.00    +0.000 A 
ENDBRANCH  19  21
ENDBRANCH  14  15
ENDBRANCH   1  14
TORSDOF 5
ENDMDL
MODEL 8
REMARK VINA RESULT:    -6.031      3.503      5.839
REMARK INTER + INTRA:          -8.558
REMARK INTER:                  -7.888
REMARK INTRA:                  -0.670
REMARK UNBOUND:                -0.764
REMARK  Name = 
REMARK  5 active torsions:
REMARK  status: ('A' for Active; 'I' for Inactive)
REMARK    1  A    between atoms: C_2  and  C_4
REMARK    2  A    between atoms: C_7  and  N_8
REMARK    3  A    between atoms: N_8  and  C_9
REMARK    4  A    between atoms: C_9  and  C_10
REMARK    5  A    between atoms: C_14  and  C_15
REMARK                            x       y       z     vdW  Elec       q    Type
REMARK                         _______ _______ _______ _____ _____    ______ ____
ROOT
ATOM      1  N   UNL     1      46.111   7.935  13.290  0.00  0.00    +0.000 N 
ATOM      2  H   UNL     1      45.442   8.545  13.750  0.00  0.00    +0.000 HD
ENDROOT
BRANCH   1   6
ATOM      3  C   UNL     1      44.577   5.044  10.801  0.00  0.00    +0.000 A 
ATOM      4  N   UNL     1      45.637   5.734  10.333  0.00  0.00    +0.000 NA
ATOM      5  C   UNL     1      46.098   6.707  11.151  0.00  0.00    +0.000 A 
ATOM      6  C   UNL     1      45.565   7.038  12.389  0.00  0.00    +0.000 A 
ATOM      7  C   UNL     1      44.482   6.240  12.737  0.00  0.00    +0.000 A 
ATOM      8  N   UNL     1      43.958   5.252  11.976  0.00  0.00    +0.000 NA
BRANCH   3  10
ATOM      9  N   UNL     1      44.135   4.126   8.578  0.00  0.00    +0.000 N 
ATOM     10  C   UNL     1      44.088   3.902   9.937  0.00  0.00    +0.000 C 
ATOM     11  O   UNL     1      43.682   2.830  10.374  0.00  0.00    +0.000 OA
ATOM     12  H   UNL     1      43.853   3.386   7.951  0.00  0.00    +0.000 HD
ATOM     13  H   UNL     1      44.500   5.001   8.220  0.00  0.00    +0.000 HD
ENDBRANCH   3  10
ENDBRANCH   1   6
BRANCH   1  14
ATOM     14  C   UNL     1      47.445   8.501  13.153  0.00  0.00    +0.000 C 
BRANCH  14  15
ATOM     15  C   UNL     1      48.443   7.867  14.094  0.00  0.00    +0.000 A 
ATOM     16  C   UNL     1      49.691   8.457  14.323  0.00  0.00    +0.000 A 
ATOM     17  C   UNL     1      50.576   7.894  15.239  0.00  0.00    +0.000 A 
ATOM     18  C   UNL     1      50.214   6.750  15.953  0.00  0.00    +0.000 A 
ATOM     19  C   UNL     1      48.956   6.145  15.782  0.00  0.00    +0.000 A 
ATOM     20  C   UNL     1      48.094   6.716  14.824  0.00  0.00    +0.000 A 
BRANCH  19  21
ATOM     21  C   UNL     1      48.529   5.001  16.618  0.00  0.00    +0.000 A 
ATOM     22  C   UNL     1      49.326   4.468  17.642  0.00  0.00    +0.000 A 
ATOM     23  C   UNL     1      48.901   3.355  18.371  0.00  0.00    +0.000 A 
ATOM     24  C   UNL     1      47.670   2.801  18.072  0.00  0.00    +0.000 A 
ATOM     25  N   UNL     1      46.861   3.272  17.103  0.00  0.00    +0.000 NA
ATOM     26  C   UNL     1      47.311   4.345  16.405  0.00  0.00    +0.000 A 
ENDBRANCH  19  21
ENDBRANCH  14  15
ENDBRANCH   1  14
TORSDOF 5
ENDMDL
MODEL 9
REMARK VINA RESULT:    -5.847      6.221      8.420
REMARK INTER + INTRA:          -8.320
REMARK INTER:                  -7.685
REMARK INTRA:                  -0.635
REMARK UNBOUND:                -0.764
REMARK  Name = 
REMARK  5 active torsions:
REMARK  status: ('A' for Active; 'I' for Inactive)
REMARK    1  A    between atoms: C_2  and  C_4
REMARK    2  A    between atoms: C_7  and  N_8
REMARK    3  A    between atoms: N_8  and  C_9
REMARK    4  A    between atoms: C_9  and  C_10
REMARK    5  A    between atoms: C_14  and  C_15
REMARK                            x       y       z     vdW  Elec       q    Type
REMARK                         _______ _______ _______ _____ _____    ______ ____
ROOT
ATOM      1  N   UNL     1      49.333   4.728  17.432  0.00  0.00    +0.000 N 
ATOM      2  H   UNL     1      48.421   4.478  17.060  0.00  0.00    +0.000 HD
ENDROOT
BRANCH   1   6
ATOM      3  C   UNL     1      52.119   1.711  17.630  0.00  0.00    +0.000 A 
ATOM      4  N   UNL     1      50.872   1.350  17.264  0.00  0.00    +0.000 NA
ATOM      5  C   UNL     1      49.964   2.351  17.247  0.00  0.00    +0.000 A 
ATOM      6  C   UNL     1      50.217   3.674  17.579  0.00  0.00    +0.000 A 
ATOM      7  C   UNL     1      51.543   3.894  17.930  0.00  0.00    +0.000 A 
ATOM      8  N   UNL     1      52.510   2.950  17.978  0.00  0.00    +0.000 NA
BRANCH   3  10
ATOM      9  N   UNL     1      52.919  -0.474  18.382  0.00  0.00    +0.000 N 
ATOM     10  C   UNL     1      53.170   0.624  17.588  0.00  0.00    +0.000 C 
ATOM     11  O   UNL     1      54.185   0.670  16.898  0.00  0.00    +0.000 OA
ATOM     12  H   UNL     1      53.570  -1.247  18.368  0.00  0.00    +0.000 HD
ATOM     13  H   UNL     1      52.066  -0.522  18.927  0.00  0.00    +0.000 HD
ENDBRANCH   3  10
ENDBRANCH   1   6
BRANCH   1  14
ATOM     14  C   UNL     1      49.750   6.091  17.136  0.00  0.00    +0.000 C 
BRANCH  14  15
ATOM     15  C   UNL     1      49.374   6.521  15.737  0.00  0.00    +0.000 A 
ATOM     16  C   UNL     1      50.188   7.397  15.010  0.00  0.00    +0.000 A 
ATOM     17  C   UNL     1      49.859   7.737  13.701  0.00  0.00    +0.000 A 
ATOM     18  C   UNL     1      48.727   7.187  13.095  0.00  0.00    +0.000 A 
ATOM     19  C   UNL     1      47.902   6.275  13.775  0.00  0.00    +0.000 A 
ATOM     20  C   UNL     1      48.238   5.976  15.110  0.00  0.00    +0.000 A 
BRANCH  19  21
ATOM     21  C   UNL     1      46.767   5.607  13.099  0.00  0.00    +0.000 A 
ATOM     22  C   UNL     1      46.277   6.019  11.850  0.00  0.00    +0.000 A 
ATOM     23  C   UNL     1      45.173   5.389  11.274  0.00  0.00    +0.000 A 
ATOM     24  C   UNL     1      44.582   4.339  11.955  0.00  0.00    +0.000 A 
ATOM     25  N   UNL     1      45.011   3.898  13.154  0.00  0.00    +0.000 NA
ATOM     26  C   UNL     1      46.078   4.543  13.690  0.00  0.00    +0.000 A 
ENDBRANCH  19  21
ENDBRANCH  14  15
ENDBRANCH   1  14
TORSDOF 5
ENDMDL
