MODEL 1
REMARK VINA RESULT:    -8.285      0.000      0.000
REMARK INTER + INTRA:         -11.965
REMARK INTER:                 -10.707
REMARK INTRA:                  -1.257
REMARK UNBOUND:                -1.257
REMARK  Name = 
REMARK  5 active torsions:
REMARK  status: ('A' for Active; 'I' for Inactive)
REMARK    1  A    between atoms: C_2  and  C_3
REMARK    2  A    between atoms: C_6  and  N_7
REMARK    3  A    between atoms: N_7  and  C_8
REMARK    4  A    between atoms: C_8  and  C_9
REMARK    5  A    between atoms: C_13  and  C_14
REMARK                            x       y       z     vdW  Elec       q    Type
REMARK                         _______ _______ _______ _____ _____    ______ ____
ROOT
ATOM      1  C   UNL     1      43.775   5.055  11.287  0.00  0.00    +0.000 C 
ATOM      2  C   UNL     1      42.376   5.331  11.844  0.00  0.00    +0.000 C 
ATOM      3  C   UNL     1      43.046   6.362  11.010  0.00  0.00    +0.000 C 
ENDROOT
BRANCH   1   4
ATOM      4  C   UNL     1      44.995   5.238  12.178  0.00  0.00    +0.000 A 
ATOM      5  C   UNL     1      45.457   4.183  12.977  0.00  0.00    +0.000 A 
ATOM      6  C   UNL     1      46.712   4.235  13.572  0.00  0.00    +0.000 A 
ATOM      7  C   UNL     1      47.527   5.351  13.374  0.00  0.00    +0.000 A 
ATOM      8  C   UNL     1      47.077   6.459  12.636  0.00  0.00    +0.000 A 
ATOM      9  C   UNL     1      45.781   6.400  12.103  0.00  0.00    +0.000 A 
BRANCH   8  10
ATOM     10  C   UNL     1      47.962   7.590  12.294  0.00  0.00    +0.000 A 
ATOM     11  C   UNL     1      49.306   7.360  11.948  0.00  0.00    +0.000 A 
ATOM     12  C   UNL     1      50.138   8.402  11.531  0.00  0.00    +0.000 A 
ATOM     13  C   UNL     1      49.632   9.695  11.443  0.00  0.00    +0.000 A 
ATOM     14 CL   UNL     1      50.649  10.975  10.908  0.00  0.00    +0.000 Cl
ATOM     15  C   UNL     1      48.306   9.954  11.774  0.00  0.00    +0.000 A 
ATOM     16  C   UNL     1      47.479   8.908  12.202  0.00  0.00    +0.000 A 
ENDBRANCH   8  10
ENDBRANCH   1   4
BRANCH   1  17
ATOM     17  N   UNL     1      43.856   3.862  10.442  0.00  0.00    +0.000 N 
ATOM     18  H   UNL     1      43.248   3.089  10.706  0.00  0.00    +0.000 HD
BRANCH  17  22
ATOM     19  C   UNL     1      46.588   2.569   7.586  0.00  0.00    +0.000 A 
ATOM     20  C   UNL     1      46.357   3.934   7.676  0.00  0.00    +0.000 A 
ATOM     21  C   UNL     1      45.478   4.401   8.655  0.00  0.00    +0.000 A 
ATOM     22  C   UNL     1      44.848   3.511   9.520  0.00  0.00    +0.000 A 
ATOM     23  C   UNL     1      45.164   2.158   9.341  0.00  0.00    +0.000 A 
ATOM     24  N   UNL     1      46.011   1.664   8.407  0.00  0.00    +0.000 NA
BRANCH  19  26
ATOM     25  N   UNL     1      48.224   1.644   5.794  0.00  0.00    +0.000 NA
ATOM     26  C   UNL     1      47.464   2.029   6.586  0.00  0.00    +0.000 C 
ENDBRANCH  19  26
ENDBRANCH  17  22
ENDBRANCH   1  17
TORSDOF 5
ENDMDL
MODEL 2
REMARK VINA RESULT:    -8.193      2.851      4.123
REMARK INTER + INTRA:         -11.845
REMARK INTER:                 -11.329
REMARK INTRA:                  -0.516
REMARK UNBOUND:                -1.257
REMARK  Name = 
REMARK  5 active torsions:
REMARK  status: ('A' for Active; 'I' for Inactive)
REMARK    1  A    between atoms: C_2  and  C_3
REMARK    2  A    between atoms: C_6  and  N_7
REMARK    3  A    between atoms: N_7  and  C_8
REMARK    4  A    between atoms: C_8  and  C_9
REMARK    5  A    between atoms: C_13  and  C_14
REMARK                            x       y       z     vdW  Elec       q    Type
REMARK                         _______ _______ _______ _____ _____    ______ ____
ROOT
ATOM      1  C   UNL     1      44.074   4.754  11.622  0.00  0.00    +0.000 C 
ATOM      2  C   UNL     1      43.408   3.651  12.447  0.00  0.00    +0.000 C 
ATOM      3  C   UNL     1      43.007   5.066  12.660  0.00  0.00    +0.000 C 
ENDROOT
BRANCH   1   4
ATOM      4  C   UNL     1      45.450   5.270  12.018  0.00  0.00    +0.000 A 
ATOM      5  C   UNL     1      46.035   6.339  11.323  0.00  0.00    +0.000 A 
ATOM      6  C   UNL     1      47.144   7.001  11.837  0.00  0.00    +0.000 A 
ATOM      7  C   UNL     1      47.687   6.599  13.059  0.00  0.00    +0.000 A 
ATOM      8  C   UNL     1      47.173   5.492  13.754  0.00  0.00    +0.000 A 
ATOM      9  C   UNL     1      46.094   4.807  13.176  0.00  0.00    +0.000 A 
BRANCH   8  10
ATOM     10  C   UNL     1      47.633   5.130  15.109  0.00  0.00    +0.000 A 
ATOM     11  C   UNL     1      48.479   5.995  15.827  0.00  0.00    +0.000 A 
ATOM     12  C   UNL     1      48.853   5.718  17.145  0.00  0.00    +0.000 A 
ATOM     13  C   UNL     1      48.375   4.572  17.770  0.00  0.00    +0.000 A 
ATOM     14 CL   UNL     1      48.816   4.243  19.400  0.00  0.00    +0.000 Cl
ATOM     15  C   UNL     1      47.533   3.700  17.090  0.00  0.00    +0.000 A 
ATOM     16  C   UNL     1      47.170   3.974  15.766  0.00  0.00    +0.000 A 
ENDBRANCH   8  10
ENDBRANCH   1   4
BRANCH   1  17
ATOM     17  N   UNL     1      43.917   4.594  10.175  0.00  0.00    +0.000 N 
ATOM     18  H   UNL     1      43.013   4.866   9.794  0.00  0.00    +0.000 HD
BRANCH  17  22
ATOM     19  C   UNL     1      46.516   2.608   7.607  0.00  0.00    +0.000 A 
ATOM     20  C   UNL     1      45.785   1.836   8.498  0.00  0.00    +0.000 A 
ATOM     21  C   UNL     1      44.873   2.471   9.342  0.00  0.00    +0.000 A 
ATOM     22  C   UNL     1      44.703   3.851   9.288  0.00  0.00    +0.000 A 
ATOM     23  C   UNL     1      45.489   4.526   8.344  0.00  0.00    +0.000 A 
ATOM     24  N   UNL     1      46.383   3.949   7.505  0.00  0.00    +0.000 NA
BRANCH  19  26
ATOM     25  N   UNL     1      48.320   1.551   6.067  0.00  0.00    +0.000 NA
ATOM     26  C   UNL     1      47.484   2.013   6.730  0.00  0.00    +0.000 C 
ENDBRANCH  19  26
ENDBRANCH  17  22
ENDBRANCH   1  17
TORSDOF 5
ENDMDL
MODEL 3
REMARK VINA RESULT:    -7.054      3.954      7.355
REMARK INTER + INTRA:         -10.373
REMARK INTER:                  -9.327
REMARK INTRA:                  -1.045
REMARK UNBOUND:                -1.257
REMARK  Name = 
REMARK  5 active torsions:
REMARK  status: ('A' for Active; 'I' for Inactive)
REMARK    1  A    between atoms: C_2  and  C_3
REMARK    2  A    between atoms: C_6  and  N_7
REMARK    3  A    between atoms: N_7  and  C_8
REMARK    4  A    between atoms: C_8  and  C_9
REMARK    5  A    between atoms: C_13  and  C_14
REMARK                            x       y       z     vdW  Elec       q    Type
REMARK                         _______ _______ _______ _____ _____    ______ ____
ROOT
ATOM      1  C   UNL     1      46.307   7.393  12.637  0.00  0.00    +0.000 C 
ATOM      2  C   UNL     1      46.517   8.760  11.982  0.00  0.00    +0.000 C 
ATOM      3  C   UNL     1      45.644   8.652  13.179  0.00  0.00    +0.000 C 
ENDROOT
BRANCH   1   4
ATOM      4  C   UNL     1      45.309   6.411  12.041  0.00  0.00    +0.000 A 
ATOM      5  C   UNL     1      43.931   6.613  12.203  0.00  0.00    +0.000 A 
ATOM      6  C   UNL     1      43.012   5.900  11.441  0.00  0.00    +0.000 A 
ATOM      7  C   UNL     1      43.463   4.970  10.503  0.00  0.00    +0.000 A 
ATOM      8  C   UNL     1      44.831   4.690  10.355  0.00  0.00    +0.000 A 
ATOM      9  C   UNL     1      45.728   5.381  11.184  0.00  0.00    +0.000 A 
BRANCH   8  10
ATOM     10  C   UNL     1      45.346   3.819   9.280  0.00  0.00    +0.000 A 
ATOM     11  C   UNL     1      46.000   4.377   8.167  0.00  0.00    +0.000 A 
ATOM     12  C   UNL     1      46.577   3.569   7.183  0.00  0.00    +0.000 A 
ATOM     13  C   UNL     1      46.517   2.186   7.304  0.00  0.00    +0.000 A 
ATOM     14 CL   UNL     1      47.246   1.191   6.105  0.00  0.00    +0.000 Cl
ATOM     15  C   UNL     1      45.880   1.603   8.395  0.00  0.00    +0.000 A 
ATOM     16  C   UNL     1      45.294   2.415   9.373  0.00  0.00    +0.000 A 
ENDBRANCH   8  10
ENDBRANCH   1   4
BRANCH   1  17
ATOM     17  N   UNL     1      47.544   6.751  13.087  0.00  0.00    +0.000 N 
ATOM     18  H   UNL     1      48.257   6.614  12.374  0.00  0.00    +0.000 HD
BRANCH  17  22
ATOM     19  C   UNL     1      48.178   4.911  16.762  0.00  0.00    +0.000 A 
ATOM     20  C   UNL     1      47.338   4.270  15.864  0.00  0.00    +0.000 A 
ATOM     21  C   UNL     1      47.141   4.842  14.606  0.00  0.00    +0.000 A 
ATOM     22  C   UNL     1      47.776   6.032  14.264  0.00  0.00    +0.000 A 
ATOM     23  C   UNL     1      48.607   6.584  15.248  0.00  0.00    +0.000 A 
ATOM     24  N   UNL     1      48.827   6.062  16.478  0.00  0.00    +0.000 NA
BRANCH  19  26
ATOM     25  N   UNL     1      48.531   3.999  19.167  0.00  0.00    +0.000 NA
ATOM     26  C   UNL     1      48.402   4.382  18.077  0.00  0.00    +0.000 C 
ENDBRANCH  19  26
ENDBRANCH  17  22
ENDBRANCH   1  17
TORSDOF 5
ENDMDL
MODEL 4
REMARK VINA RESULT:    -6.777      2.225      2.997
REMARK INTER + INTRA:         -10.015
REMARK INTER:                  -9.165
REMARK INTRA:                  -0.850
REMARK UNBOUND:                -1.257
REMARK  Name = 
REMARK  5 active torsions:
REMARK  status: ('A' for Active; 'I' for Inactive)
REMARK    1  A    between atoms: C_2  and  C_3
REMARK    2  A    between atoms: C_6  and  N_7
REMARK    3  A    between atoms: N_7  and  C_8
REMARK    4  A    between atoms: C_8  and  C_9
REMARK    5  A    between atoms: C_13  and  C_14
REMARK                            x       y       z     vdW  Elec       q    Type
REMARK                         _______ _______ _______ _____ _____    ______ ____
ROOT
ATOM      1  C   UNL     1      44.096   5.376  11.838  0.00  0.00    +0.000 C 
ATOM      2  C   UNL     1      43.024   5.111  12.897  0.00  0.00    +0.000 C 
ATOM      3  C   UNL     1      42.644   5.774  11.623  0.00  0.00    +0.000 C 
ENDROOT
BRANCH   1   4
ATOM      4  C   UNL     1      45.022   6.576  11.979  0.00  0.00    +0.000 A 
ATOM      5  C   UNL     1      44.554   7.869  11.706  0.00  0.00    +0.000 A 
ATOM      6  C   UNL     1      45.283   8.987  12.094  0.00  0.00    +0.000 A 
ATOM      7  C   UNL     1      46.498   8.825  12.763  0.00  0.00    +0.000 A 
ATOM      8  C   UNL     1      47.035   7.548  12.997  0.00  0.00    +0.000 A 
ATOM      9  C   UNL     1      46.304   6.443  12.536  0.00  0.00    +0.000 A 
BRANCH   8  10
ATOM     10  C   UNL     1      48.241   7.339  13.822  0.00  0.00    +0.000 A 
ATOM     11  C   UNL     1      49.445   7.989  13.494  0.00  0.00    +0.000 A 
ATOM     12  C   UNL     1      50.575   7.880  14.311  0.00  0.00    +0.000 A 
ATOM     13  C   UNL     1      50.512   7.125  15.476  0.00  0.00    +0.000 A 
ATOM     14 CL   UNL     1      51.895   7.009  16.493  0.00  0.00    +0.000 Cl
ATOM     15  C   UNL     1      49.335   6.474  15.829  0.00  0.00    +0.000 A 
ATOM     16  C   UNL     1      48.210   6.576  15.004  0.00  0.00    +0.000 A 
ENDBRANCH   8  10
ENDBRANCH   1   4
BRANCH   1  17
ATOM     17  N   UNL     1      44.788   4.171  11.375  0.00  0.00    +0.000 N 
ATOM     18  H   UNL     1      45.285   3.642  12.089  0.00  0.00    +0.000 HD
BRANCH  17  22
ATOM     19  C   UNL     1      46.059   3.277   7.518  0.00  0.00    +0.000 A 
ATOM     20  C   UNL     1      45.652   2.218   8.316  0.00  0.00    +0.000 A 
ATOM     21  C   UNL     1      45.179   2.493   9.601  0.00  0.00    +0.000 A 
ATOM     22  C   UNL     1      45.119   3.803  10.066  0.00  0.00    +0.000 A 
ATOM     23  C   UNL     1      45.549   4.789   9.169  0.00  0.00    +0.000 A 
ATOM     24  N   UNL     1      46.012   4.567   7.916  0.00  0.00    +0.000 NA
BRANCH  19  26
ATOM     25  N   UNL     1      47.060   2.886   5.153  0.00  0.00    +0.000 NA
ATOM     26  C   UNL     1      46.574   3.054   6.197  0.00  0.00    +0.000 C 
ENDBRANCH  19  26
ENDBRANCH  17  22
ENDBRANCH   1  17
TORSDOF 5
ENDMDL
MODEL 5
REMARK VINA RESULT:    -6.527      3.647      6.711
REMARK INTER + INTRA:          -9.692
REMARK INTER:                  -8.556
REMARK INTRA:                  -1.136
REMARK UNBOUND:                -1.257
REMARK  Name = 
REMARK  5 active torsions:
REMARK  status: ('A' for Active; 'I' for Inactive)
REMARK    1  A    between atoms: C_2  and  C_3
REMARK    2  A    between atoms: C_6  and  N_7
REMARK    3  A    between atoms: N_7  and  C_8
REMARK    4  A    between atoms: C_8  and  C_9
REMARK    5  A    between atoms: C_13  and  C_14
REMARK                            x       y       z     vdW  Elec       q    Type
REMARK                         _______ _______ _______ _____ _____    ______ ____
ROOT
ATOM      1  C   UNL     1      46.450   4.910  14.037  0.00  0.00    +0.000 C 
ATOM      2  C   UNL     1      46.422   4.275  15.429  0.00  0.00    +0.000 C 
ATOM      3  C   UNL     1      47.339   3.728  14.396  0.00  0.00    +0.000 C 
ENDROOT
BRANCH   1   4
ATOM      4  C   UNL     1      45.377   4.552  13.019  0.00  0.00    +0.000 A 
ATOM      5  C   UNL     1      44.056   4.988  13.195  0.00  0.00    +0.000 A 
ATOM      6  C   UNL     1      43.136   4.917  12.155  0.00  0.00    +0.000 A 
ATOM      7  C   UNL     1      43.529   4.403  10.918  0.00  0.00    +0.000 A 
ATOM      8  C   UNL     1      44.823   3.895  10.718  0.00  0.00    +0.000 A 
ATOM      9  C   UNL     1      45.706   3.924  11.807  0.00  0.00    +0.000 A 
BRANCH   8  10
ATOM     10  C   UNL     1      45.309   3.476   9.388  0.00  0.00    +0.000 A 
ATOM     11  C   UNL     1      45.726   4.438   8.450  0.00  0.00    +0.000 A 
ATOM     12  C   UNL     1      46.276   4.063   7.221  0.00  0.00    +0.000 A 
ATOM     13  C   UNL     1      46.426   2.715   6.915  0.00  0.00    +0.000 A 
ATOM     14 CL   UNL     1      47.124   2.254   5.412  0.00  0.00    +0.000 Cl
ATOM     15  C   UNL     1      46.027   1.741   7.823  0.00  0.00    +0.000 A 
ATOM     16  C   UNL     1      45.466   2.120   9.048  0.00  0.00    +0.000 A 
ENDBRANCH   8  10
ENDBRANCH   1   4
BRANCH   1  17
ATOM     17  N   UNL     1      46.787   6.335  14.037  0.00  0.00    +0.000 N 
ATOM     18  H   UNL     1      46.058   6.963  14.369  0.00  0.00    +0.000 HD
BRANCH  17  22
ATOM     19  C   UNL     1      50.117   8.033  12.215  0.00  0.00    +0.000 A 
ATOM     20  C   UNL     1      49.006   7.797  11.420  0.00  0.00    +0.000 A 
ATOM     21  C   UNL     1      47.858   7.268  12.013  0.00  0.00    +0.000 A 
ATOM     22  C   UNL     1      47.834   6.985  13.375  0.00  0.00    +0.000 A 
ATOM     23  C   UNL     1      49.011   7.272  14.079  0.00  0.00    +0.000 A 
ATOM     24  N   UNL     1      50.144   7.787  13.544  0.00  0.00    +0.000 NA
BRANCH  19  26
ATOM     25  N   UNL     1      52.352   8.923  11.238  0.00  0.00    +0.000 NA
ATOM     26  C   UNL     1      51.331   8.555  11.657  0.00  0.00    +0.000 C 
ENDBRANCH  19  26
ENDBRANCH  17  22
ENDBRANCH   1  17
TORSDOF 5
ENDMDL
MODEL 6
REMARK VINA RESULT:    -5.958      5.988      8.349
REMARK INTER + INTRA:          -8.957
REMARK INTER:                  -7.980
REMARK INTRA:                  -0.977
REMARK UNBOUND:                -1.257
REMARK  Name = 
REMARK  5 active torsions:
REMARK  status: ('A' for Active; 'I' for Inactive)
REMARK    1  A    between atoms: C_2  and  C_3
REMARK    2  A    between atoms: C_6  and  N_7
REMARK    3  A    between atoms: N_7  and  C_8
REMARK    4  A    between atoms: C_8  and  C_9
REMARK    5  A    between atoms: C_13  and  C_14
REMARK                            x       y       z     vdW  Elec       q    Type
REMARK                         _______ _______ _______ _____ _____    ______ ____
ROOT
ATOM      1  C   UNL     1      48.692   5.076  17.491  0.00  0.00    +0.000 C 
ATOM      2  C   UNL     1      47.671   5.326  18.603  0.00  0.00    +0.000 C 
ATOM      3  C   UNL     1      47.464   4.194  17.664  0.00  0.00    +0.000 C 
ENDROOT
BRANCH   1   4
ATOM      4  C   UNL     1      48.645   5.908  16.217  0.00  0.00    +0.000 A 
ATOM      5  C   UNL     1      49.676   6.810  15.919  0.00  0.00    +0.000 A 
ATOM      6  C   UNL     1      49.796   7.361  14.648  0.00  0.00    +0.000 A 
ATOM      7  C   UNL     1      48.878   7.017  13.654  0.00  0.00    +0.000 A 
ATOM      8  C   UNL     1      47.792   6.170  13.928  0.00  0.00    +0.000 A 
ATOM      9  C   UNL     1      47.665   5.681  15.237  0.00  0.00    +0.000 A 
BRANCH   8  10
ATOM     10  C   UNL     1      46.889   5.677  12.869  0.00  0.00    +0.000 A 
ATOM     11  C   UNL     1      46.103   4.531  13.083  0.00  0.00    +0.000 A 
ATOM     12  C   UNL     1      45.174   4.099  12.132  0.00  0.00    +0.000 A 
ATOM     13  C   UNL     1      45.010   4.817  10.953  0.00  0.00    +0.000 A 
ATOM     14 CL   UNL     1      43.851   4.299   9.793  0.00  0.00    +0.000 Cl
ATOM     15  C   UNL     1      45.769   5.958  10.714  0.00  0.00    +0.000 A 
ATOM     16  C   UNL     1      46.706   6.381  11.664  0.00  0.00    +0.000 A 
ENDBRANCH   8  10
ENDBRANCH   1   4
BRANCH   1  17
ATOM     17  N   UNL     1      50.055   4.844  17.973  0.00  0.00    +0.000 N 
ATOM     18  H   UNL     1      50.563   5.670  18.282  0.00  0.00    +0.000 HD
BRANCH  17  22
ATOM     19  C   UNL     1      52.568   1.537  17.769  0.00  0.00    +0.000 A 
ATOM     20  C   UNL     1      51.274   1.385  17.294  0.00  0.00    +0.000 A 
ATOM     21  C   UNL     1      50.421   2.490  17.309  0.00  0.00    +0.000 A 
ATOM     22  C   UNL     1      50.865   3.717  17.793  0.00  0.00    +0.000 A 
ATOM     23  C   UNL     1      52.192   3.753  18.239  0.00  0.00    +0.000 A 
ATOM     24  N   UNL     1      53.053   2.707  18.240  0.00  0.00    +0.000 NA
BRANCH  19  26
ATOM     25  N   UNL     1      54.188  -0.490  17.881  0.00  0.00    +0.000 NA
ATOM     26  C   UNL     1      53.483   0.431  17.798  0.00  0.00    +0.000 C 
ENDBRANCH  19  26
ENDBRANCH  17  22
ENDBRANCH   1  17
TORSDOF 5
ENDMDL
MODEL 7
REMARK VINA RESULT:    -5.944      4.616      8.230
REMARK INTER + INTRA:          -8.939
REMARK INTER:                  -7.795
REMARK INTRA:                  -1.144
REMARK UNBOUND:                -1.257
REMARK  Name = 
REMARK  5 active torsions:
REMARK  status: ('A' for Active; 'I' for Inactive)
REMARK    1  A    between atoms: C_2  and  C_3
REMARK    2  A    between atoms: C_6  and  N_7
REMARK    3  A    between atoms: N_7  and  C_8
REMARK    4  A    between atoms: C_8  and  C_9
REMARK    5  A    between atoms: C_13  and  C_14
REMARK                            x       y       z     vdW  Elec       q    Type
REMARK                         _______ _______ _______ _____ _____    ______ ____
ROOT
ATOM      1  C   UNL     1      49.134   7.914  13.147  0.00  0.00    +0.000 C 
ATOM      2  C   UNL     1      50.137   7.970  11.992  0.00  0.00    +0.000 C 
ATOM      3  C   UNL     1      49.705   9.233  12.646  0.00  0.00    +0.000 C 
ENDROOT
BRANCH   1   4
ATOM      4  C   UNL     1      47.648   7.766  12.854  0.00  0.00    +0.000 A 
ATOM      5  C   UNL     1      46.799   8.880  12.906  0.00  0.00    +0.000 A 
ATOM      6  C   UNL     1      45.515   8.824  12.376  0.00  0.00    +0.000 A 
ATOM      7  C   UNL     1      45.061   7.644  11.784  0.00  0.00    +0.000 A 
ATOM      8  C   UNL     1      45.854   6.485  11.770  0.00  0.00    +0.000 A 
ATOM      9  C   UNL     1      47.120   6.558  12.371  0.00  0.00    +0.000 A 
BRANCH   8  10
ATOM     10  C   UNL     1      45.460   5.269  11.032  0.00  0.00    +0.000 A 
ATOM     11  C   UNL     1      45.600   5.210   9.634  0.00  0.00    +0.000 A 
ATOM     12  C   UNL     1      45.321   4.040   8.923  0.00  0.00    +0.000 A 
ATOM     13  C   UNL     1      44.905   2.902   9.606  0.00  0.00    +0.000 A 
ATOM     14 CL   UNL     1      44.584   1.454   8.735  0.00  0.00    +0.000 Cl
ATOM     15  C   UNL     1      44.761   2.926  10.989  0.00  0.00    +0.000 A 
ATOM     16  C   UNL     1      45.031   4.104  11.695  0.00  0.00    +0.000 A 
ENDBRANCH   8  10
ENDBRANCH   1   4
BRANCH   1  17
ATOM     17  N   UNL     1      49.578   7.104  14.283  0.00  0.00    +0.000 N 
ATOM     18  H   UNL     1      50.197   6.327  14.059  0.00  0.00    +0.000 HD
BRANCH  17  22
ATOM     19  C   UNL     1      48.217   6.671  18.189  0.00  0.00    +0.000 A 
ATOM     20  C   UNL     1      48.535   7.952  17.762  0.00  0.00    +0.000 A 
ATOM     21  C   UNL     1      48.953   8.134  16.442  0.00  0.00    +0.000 A 
ATOM     22  C   UNL     1      49.048   7.049  15.576  0.00  0.00    +0.000 A 
ATOM     23  C   UNL     1      48.693   5.805  16.115  0.00  0.00    +0.000 A 
ATOM     24  N   UNL     1      48.282   5.585  17.387  0.00  0.00    +0.000 NA
BRANCH  19  26
ATOM     25  N   UNL     1      47.470   6.291  20.646  0.00  0.00    +0.000 NA
ATOM     26  C   UNL     1      47.803   6.420  19.539  0.00  0.00    +0.000 C 
ENDBRANCH  19  26
ENDBRANCH  17  22
ENDBRANCH   1  17
TORSDOF 5
ENDMDL
MODEL 8
REMARK VINA RESULT:    -5.769      4.376      6.484
REMARK INTER + INTRA:          -8.712
REMARK INTER:                  -7.739
REMARK INTRA:                  -0.973
REMARK UNBOUND:                -1.257
REMARK  Name = 
REMARK  5 active torsions:
REMARK  status: ('A' for Active; 'I' for Inactive)
REMARK    1  A    between atoms: C_2  and  C_3
REMARK    2  A    between atoms: C_6  and  N_7
REMARK    3  A    between atoms: N_7  and  C_8
REMARK    4  A    between atoms: C_8  and  C_9
REMARK    5  A    between atoms: C_13  and  C_14
REMARK                            x       y       z     vdW  Elec       q    Type
REMARK                         _______ _______ _______ _____ _____    ______ ____
ROOT
ATOM      1  C   UNL     1      48.124   7.882  13.100  0.00  0.00    +0.000 C 
ATOM      2  C   UNL     1      48.639   8.774  11.969  0.00  0.00    +0.000 C 
ATOM      3  C   UNL     1      49.170   7.394  12.109  0.00  0.00    +0.000 C 
ENDROOT
BRANCH   1   4
ATOM      4  C   UNL     1      48.679   8.048  14.508  0.00  0.00    +0.000 A 
ATOM      5  C   UNL     1      48.173   9.040  15.359  0.00  0.00    +0.000 A 
ATOM      6  C   UNL     1      48.459   9.027  16.720  0.00  0.00    +0.000 A 
ATOM      7  C   UNL     1      49.261   8.014  17.249  0.00  0.00    +0.000 A 
ATOM      8  C   UNL     1      49.843   7.039  16.422  0.00  0.00    +0.000 A 
ATOM      9  C   UNL     1      49.585   7.119  15.045  0.00  0.00    +0.000 A 
BRANCH   8  10
ATOM     10  C   UNL     1      50.578   5.880  16.966  0.00  0.00    +0.000 A 
ATOM     11  C   UNL     1      49.887   4.711  17.334  0.00  0.00    +0.000 A 
ATOM     12  C   UNL     1      50.569   3.570  17.764  0.00  0.00    +0.000 A 
ATOM     13  C   UNL     1      51.958   3.578  17.822  0.00  0.00    +0.000 A 
ATOM     14 CL   UNL     1      52.799   2.165  18.330  0.00  0.00    +0.000 Cl
ATOM     15  C   UNL     1      52.670   4.716  17.461  0.00  0.00    +0.000 A 
ATOM     16  C   UNL     1      51.983   5.861  17.042  0.00  0.00    +0.000 A 
ENDBRANCH   8  10
ENDBRANCH   1   4
BRANCH   1  17
ATOM     17  N   UNL     1      46.676   7.665  13.077  0.00  0.00    +0.000 N 
ATOM     18  H   UNL     1      46.121   8.317  13.626  0.00  0.00    +0.000 HD
BRANCH  17  22
ATOM     19  C   UNL     1      44.455   4.266  12.180  0.00  0.00    +0.000 A 
ATOM     20  C   UNL     1      44.366   5.336  11.302  0.00  0.00    +0.000 A 
ATOM     21  C   UNL     1      45.134   6.474  11.554  0.00  0.00    +0.000 A 
ATOM     22  C   UNL     1      45.970   6.530  12.665  0.00  0.00    +0.000 A 
ATOM     23  C   UNL     1      45.984   5.387  13.475  0.00  0.00    +0.000 A 
ATOM     24  N   UNL     1      45.258   4.263  13.266  0.00  0.00    +0.000 NA
BRANCH  19  26
ATOM     25  N   UNL     1      43.025   2.140  11.756  0.00  0.00    +0.000 NA
ATOM     26  C   UNL     1      43.673   3.078  11.984  0.00  0.00    +0.000 C 
ENDBRANCH  19  26
ENDBRANCH  17  22
ENDBRANCH   1  17
TORSDOF 5
ENDMDL
MODEL 9
REMARK VINA RESULT:    -5.758      4.957      7.793
REMARK INTER + INTRA:          -8.698
REMARK INTER:                  -7.937
REMARK INTRA:                  -0.762
REMARK UNBOUND:                -1.257
REMARK  Name = 
REMARK  5 active torsions:
REMARK  status: ('A' for Active; 'I' for Inactive)
REMARK    1  A    between atoms: C_2  and  C_3
REMARK    2  A    between atoms: C_6  and  N_7
REMARK    3  A    between atoms: N_7  and  C_8
REMARK    4  A    between atoms: C_8  and  C_9
REMARK    5  A    between atoms: C_13  and  C_14
REMARK                            x       y       z     vdW  Elec       q    Type
REMARK                         _______ _______ _______ _____ _____    ______ ____
ROOT
ATOM      1  C   UNL     1      48.646   8.311  16.512  0.00  0.00    +0.000 C 
ATOM      2  C   UNL     1      49.682   9.212  17.189  0.00  0.00    +0.000 C 
ATOM      3  C   UNL     1      48.348   9.767  16.841  0.00  0.00    +0.000 C 
ENDROOT
BRANCH   1   4
ATOM      4  C   UNL     1      48.731   8.050  15.015  0.00  0.00    +0.000 A 
ATOM      5  C   UNL     1      49.931   8.267  14.323  0.00  0.00    +0.000 A 
ATOM      6  C   UNL     1      50.110   7.775  13.035  0.00  0.00    +0.000 A 
ATOM      7  C   UNL     1      49.084   7.057  12.419  0.00  0.00    +0.000 A 
ATOM      8  C   UNL     1      47.843   6.874  13.051  0.00  0.00    +0.000 A 
ATOM      9  C   UNL     1      47.673   7.438  14.324  0.00  0.00    +0.000 A 
BRANCH   8  10
ATOM     10  C   UNL     1      46.792   6.004  12.487  0.00  0.00    +0.000 A 
ATOM     11  C   UNL     1      46.257   6.270  11.213  0.00  0.00    +0.000 A 
ATOM     12  C   UNL     1      45.330   5.409  10.620  0.00  0.00    +0.000 A 
ATOM     13  C   UNL     1      44.929   4.259  11.291  0.00  0.00    +0.000 A 
ATOM     14 CL   UNL     1      43.804   3.188  10.551  0.00  0.00    +0.000 Cl
ATOM     15  C   UNL     1      45.442   3.966  12.550  0.00  0.00    +0.000 A 
ATOM     16  C   UNL     1      46.363   4.836  13.145  0.00  0.00    +0.000 A 
ENDBRANCH   8  10
ENDBRANCH   1   4
BRANCH   1  17
ATOM     17  N   UNL     1      48.301   7.115  17.284  0.00  0.00    +0.000 N 
ATOM     18  H   UNL     1      47.801   7.278  18.155  0.00  0.00    +0.000 HD
BRANCH  17  22
ATOM     19  C   UNL     1      50.015   3.327  17.199  0.00  0.00    +0.000 A 
ATOM     20  C   UNL     1      48.637   3.407  17.064  0.00  0.00    +0.000 A 
ATOM     21  C   UNL     1      48.038   4.668  17.045  0.00  0.00    +0.000 A 
ATOM     22  C   UNL     1      48.812   5.819  17.160  0.00  0.00    +0.000 A 
ATOM     23  C   UNL     1      50.193   5.616  17.282  0.00  0.00    +0.000 A 
ATOM     24  N   UNL     1      50.814   4.412  17.303  0.00  0.00    +0.000 NA
BRANCH  19  26
ATOM     25  N   UNL     1      51.242   1.039  17.212  0.00  0.00    +0.000 NA
ATOM     26  C   UNL     1      50.684   2.058  17.246  0.00  0.00    +0.000 C 
ENDBRANCH  19  26
ENDBRANCH  17  22
ENDBRANCH   1  17
TORSDOF 5
ENDMDL
