MODEL 1
REMARK VINA RESULT:    -7.857      0.000      0.000
REMARK INTER + INTRA:         -11.755
REMARK INTER:                 -10.613
REMARK INTRA:                  -1.142
REMARK UNBOUND:                -1.142
REMARK  Name = 
REMARK  7 active torsions:
REMARK  status: ('A' for Active; 'I' for Inactive)
REMARK    1  A    between atoms: C_1  and  N_2
REMARK    2  A    between atoms: N_2  and  C_3
REMARK    3  A    between atoms: C_3  and  C_4
REMARK    4  A    between atoms: C_7  and  C_8
REMARK    5  A    between atoms: C_8  and  N_9
REMARK    6  A    between atoms: C_10  and  C_12
REMARK    7  A    between atoms: C_19  and  C_21
REMARK                            x       y       z     vdW  Elec       q    Type
REMARK                         _______ _______ _______ _____ _____    ______ ____
ROOT
ATOM      1  C   UNL     1      47.376   6.560  12.529  0.00  0.00    +0.000 C 
ENDROOT
BRANCH   1   2
ATOM      2  C   UNL     1      47.514   5.724  13.775  0.00  0.00    +0.000 A 
ATOM      3  C   UNL     1      48.220   6.214  14.886  0.00  0.00    +0.000 A 
ATOM      4  C   UNL     1      48.309   5.464  16.059  0.00  0.00    +0.000 A 
ATOM      5  C   UNL     1      47.706   4.203  16.141  0.00  0.00    +0.000 A 
ATOM      6  C   UNL     1      46.993   3.719  15.036  0.00  0.00    +0.000 A 
ATOM      7  C   UNL     1      46.906   4.466  13.860  0.00  0.00    +0.000 A 
BRANCH   5   8
ATOM      8  C   UNL     1      47.801   3.394  17.407  0.00  0.00    +0.000 C 
BRANCH   8   9
ATOM      9  N   UNL     1      49.174   3.152  17.769  0.00  0.00    +0.000 N 
ATOM     10  C   UNL     1      49.961   2.251  17.085  0.00  0.00    +0.000 C 
ATOM     11  O   UNL     1      49.533   1.620  16.122  0.00  0.00    +0.000 OA
ATOM     12  H   UNL     1      49.588   3.690  18.519  0.00  0.00    +0.000 HD
BRANCH  10  13
ATOM     13  C   UNL     1      51.314   2.104  17.582  0.00  0.00    +0.000 A 
ATOM     14  C   UNL     1      52.037   0.936  17.739  0.00  0.00    +0.000 A 
ATOM     15  N   UNL     1      53.312   1.077  18.260  0.00  0.00    +0.000 NA
ATOM     16  C   UNL     1      53.543   2.349  18.495  0.00  0.00    +0.000 A 
ATOM     17  S   UNL     1      52.277   3.432  18.099  0.00  0.00    +0.000 S 
ENDBRANCH  10  13
ENDBRANCH   8   9
ENDBRANCH   5   8
ENDBRANCH   1   2
BRANCH   1  19
ATOM     18  C   UNL     1      46.353   8.800  13.111  0.00  0.00    +0.000 C 
ATOM     19  N   UNL     1      46.260   7.506  12.445  0.00  0.00    +0.000 N 
ATOM     20  C   UNL     1      45.200   7.354  11.529  0.00  0.00    +0.000 C 
ATOM     21  O   UNL     1      44.397   8.263  11.327  0.00  0.00    +0.000 OA
BRANCH  20  22
ATOM     22  C   UNL     1      45.025   6.070  10.831  0.00  0.00    +0.000 A 
ATOM     23  C   UNL     1      45.606   5.754   9.613  0.00  0.00    +0.000 A 
ATOM     24  S   UNL     1      45.273   4.166   9.085  0.00  0.00    +0.000 S 
ATOM     25  C   UNL     1      44.465   3.801  10.538  0.00  0.00    +0.000 A 
ATOM     26  N   UNL     1      44.011   2.544  10.787  0.00  0.00    +0.000 NA
ATOM     27  C   UNL     1      43.484   2.397  11.954  0.00  0.00    +0.000 A 
ATOM     28  N   UNL     1      43.329   3.399  12.876  0.00  0.00    +0.000 N 
ATOM     29  C   UNL     1      43.644   4.715  12.612  0.00  0.00    +0.000 A 
ATOM     30  O   UNL     1      43.265   5.617  13.354  0.00  0.00    +0.000 OA
ATOM     31  C   UNL     1      44.360   4.904  11.363  0.00  0.00    +0.000 A 
ATOM     32  H   UNL     1      42.841   3.232  13.744  0.00  0.00    +0.000 HD
ENDBRANCH  20  22
ENDBRANCH   1  19
TORSDOF 6
ENDMDL
MODEL 2
REMARK VINA RESULT:    -7.846      1.284      2.126
REMARK INTER + INTRA:         -11.740
REMARK INTER:                 -10.910
REMARK INTRA:                  -0.830
REMARK UNBOUND:                -1.142
REMARK  Name = 
REMARK  7 active torsions:
REMARK  status: ('A' for Active; 'I' for Inactive)
REMARK    1  A    between atoms: C_1  and  N_2
REMARK    2  A    between atoms: N_2  and  C_3
REMARK    3  A    between atoms: C_3  and  C_4
REMARK    4  A    between atoms: C_7  and  C_8
REMARK    5  A    between atoms: C_8  and  N_9
REMARK    6  A    between atoms: C_10  and  C_12
REMARK    7  A    between atoms: C_19  and  C_21
REMARK                            x       y       z     vdW  Elec       q    Type
REMARK                         _______ _______ _______ _____ _____    ______ ____
ROOT
ATOM      1  C   UNL     1      47.369   6.320  12.345  0.00  0.00    +0.000 C 
ENDROOT
BRANCH   1   2
ATOM      2  C   UNL     1      47.460   5.666  13.700  0.00  0.00    +0.000 A 
ATOM      3  C   UNL     1      46.895   4.399  13.917  0.00  0.00    +0.000 A 
ATOM      4  C   UNL     1      47.018   3.769  15.156  0.00  0.00    +0.000 A 
ATOM      5  C   UNL     1      47.697   4.398  16.207  0.00  0.00    +0.000 A 
ATOM      6  C   UNL     1      48.270   5.658  15.986  0.00  0.00    +0.000 A 
ATOM      7  C   UNL     1      48.144   6.292  14.749  0.00  0.00    +0.000 A 
BRANCH   5   8
ATOM      8  C   UNL     1      47.832   3.717  17.542  0.00  0.00    +0.000 C 
BRANCH   8   9
ATOM      9  N   UNL     1      49.208   3.400  17.829  0.00  0.00    +0.000 N 
ATOM     10  C   UNL     1      49.883   2.405  17.157  0.00  0.00    +0.000 C 
ATOM     11  O   UNL     1      49.348   1.749  16.267  0.00  0.00    +0.000 OA
ATOM     12  H   UNL     1      49.707   3.953  18.514  0.00  0.00    +0.000 HD
BRANCH  10  13
ATOM     13  C   UNL     1      51.254   2.194  17.574  0.00  0.00    +0.000 A 
ATOM     14  C   UNL     1      51.962   1.006  17.587  0.00  0.00    +0.000 A 
ATOM     15  N   UNL     1      53.262   1.079  18.058  0.00  0.00    +0.000 NA
ATOM     16  C   UNL     1      53.527   2.320  18.399  0.00  0.00    +0.000 A 
ATOM     17  S   UNL     1      52.264   3.453  18.166  0.00  0.00    +0.000 S 
ENDBRANCH  10  13
ENDBRANCH   8   9
ENDBRANCH   5   8
ENDBRANCH   1   2
BRANCH   1  19
ATOM     18  C   UNL     1      46.647   8.735  12.144  0.00  0.00    +0.000 C 
ATOM     19  N   UNL     1      46.318   7.316  12.121  0.00  0.00    +0.000 N 
ATOM     20  C   UNL     1      45.047   6.981  11.614  0.00  0.00    +0.000 C 
ATOM     21  O   UNL     1      44.263   7.848  11.232  0.00  0.00    +0.000 OA
BRANCH  20  22
ATOM     22  C   UNL     1      44.631   5.569  11.578  0.00  0.00    +0.000 A 
ATOM     23  C   UNL     1      43.868   4.951  12.557  0.00  0.00    +0.000 A 
ATOM     24  S   UNL     1      43.490   3.325  12.206  0.00  0.00    +0.000 S 
ATOM     25  C   UNL     1      44.205   3.439  10.666  0.00  0.00    +0.000 A 
ATOM     26  N   UNL     1      44.137   2.406   9.786  0.00  0.00    +0.000 NA
ATOM     27  C   UNL     1      44.659   2.659   8.635  0.00  0.00    +0.000 A 
ATOM     28  N   UNL     1      45.283   3.833   8.299  0.00  0.00    +0.000 N 
ATOM     29  C   UNL     1      45.501   4.851   9.202  0.00  0.00    +0.000 A 
ATOM     30  O   UNL     1      46.273   5.770   8.945  0.00  0.00    +0.000 OA
ATOM     31  C   UNL     1      44.815   4.663  10.468  0.00  0.00    +0.000 A 
ATOM     32  H   UNL     1      45.736   3.939   7.403  0.00  0.00    +0.000 HD
ENDBRANCH  20  22
ENDBRANCH   1  19
TORSDOF 6
ENDMDL
MODEL 3
REMARK VINA RESULT:    -7.328      3.379      8.116
REMARK INTER + INTRA:         -11.040
REMARK INTER:                  -9.903
REMARK INTRA:                  -1.138
REMARK UNBOUND:                -1.142
REMARK  Name = 
REMARK  7 active torsions:
REMARK  status: ('A' for Active; 'I' for Inactive)
REMARK    1  A    between atoms: C_1  and  N_2
REMARK    2  A    between atoms: N_2  and  C_3
REMARK    3  A    between atoms: C_3  and  C_4
REMARK    4  A    between atoms: C_7  and  C_8
REMARK    5  A    between atoms: C_8  and  N_9
REMARK    6  A    between atoms: C_10  and  C_12
REMARK    7  A    between atoms: C_19  and  C_21
REMARK                            x       y       z     vdW  Elec       q    Type
REMARK                         _______ _______ _______ _____ _____    ______ ____
ROOT
ATOM      1  C   UNL     1      47.381   7.633  13.866  0.00  0.00    +0.000 C 
ENDROOT
BRANCH   1   2
ATOM      2  C   UNL     1      46.588   6.536  13.204  0.00  0.00    +0.000 A 
ATOM      3  C   UNL     1      45.810   6.807  12.067  0.00  0.00    +0.000 A 
ATOM      4  C   UNL     1      45.112   5.785  11.422  0.00  0.00    +0.000 A 
ATOM      5  C   UNL     1      45.167   4.473  11.908  0.00  0.00    +0.000 A 
ATOM      6  C   UNL     1      45.952   4.201  13.037  0.00  0.00    +0.000 A 
ATOM      7  C   UNL     1      46.648   5.223  13.686  0.00  0.00    +0.000 A 
BRANCH   5   8
ATOM      8  C   UNL     1      44.416   3.371  11.212  0.00  0.00    +0.000 C 
BRANCH   8   9
ATOM      9  N   UNL     1      45.213   2.776  10.169  0.00  0.00    +0.000 N 
ATOM     10  C   UNL     1      45.120   3.184   8.856  0.00  0.00    +0.000 C 
ATOM     11  O   UNL     1      44.362   4.086   8.512  0.00  0.00    +0.000 OA
ATOM     12  H   UNL     1      45.894   2.067  10.413  0.00  0.00    +0.000 HD
BRANCH  10  13
ATOM     13  C   UNL     1      45.971   2.474   7.923  0.00  0.00    +0.000 A 
ATOM     14  C   UNL     1      46.343   1.143   7.958  0.00  0.00    +0.000 A 
ATOM     15  N   UNL     1      47.190   0.722   6.947  0.00  0.00    +0.000 NA
ATOM     16  C   UNL     1      47.455   1.738   6.157  0.00  0.00    +0.000 A 
ATOM     17  S   UNL     1      46.706   3.224   6.561  0.00  0.00    +0.000 S 
ENDBRANCH  10  13
ENDBRANCH   8   9
ENDBRANCH   5   8
ENDBRANCH   1   2
BRANCH   1  19
ATOM     18  C   UNL     1      49.507   7.333  12.528  0.00  0.00    +0.000 C 
ATOM     19  N   UNL     1      48.844   7.569  13.805  0.00  0.00    +0.000 N 
ATOM     20  C   UNL     1      49.670   7.993  14.864  0.00  0.00    +0.000 C 
ATOM     21  O   UNL     1      50.881   8.134  14.712  0.00  0.00    +0.000 OA
BRANCH  20  22
ATOM     22  C   UNL     1      49.079   8.232  16.191  0.00  0.00    +0.000 A 
ATOM     23  C   UNL     1      48.716   9.480  16.674  0.00  0.00    +0.000 A 
ATOM     24  S   UNL     1      47.997   9.434  18.221  0.00  0.00    +0.000 S 
ATOM     25  C   UNL     1      48.012   7.732  18.231  0.00  0.00    +0.000 A 
ATOM     26  N   UNL     1      47.435   7.035  19.245  0.00  0.00    +0.000 NA
ATOM     27  C   UNL     1      47.459   5.756  19.085  0.00  0.00    +0.000 A 
ATOM     28  N   UNL     1      48.046   5.110  18.028  0.00  0.00    +0.000 N 
ATOM     29  C   UNL     1      48.765   5.768  17.053  0.00  0.00    +0.000 A 
ATOM     30  O   UNL     1      49.481   5.150  16.270  0.00  0.00    +0.000 OA
ATOM     31  C   UNL     1      48.651   7.214  17.121  0.00  0.00    +0.000 A 
ATOM     32  H   UNL     1      48.093   4.102  18.001  0.00  0.00    +0.000 HD
ENDBRANCH  20  22
ENDBRANCH   1  19
TORSDOF 6
ENDMDL
MODEL 4
REMARK VINA RESULT:    -7.185      3.561      8.273
REMARK INTER + INTRA:         -10.847
REMARK INTER:                  -9.598
REMARK INTRA:                  -1.249
REMARK UNBOUND:                -1.142
REMARK  Name = 
REMARK  7 active torsions:
REMARK  status: ('A' for Active; 'I' for Inactive)
REMARK    1  A    between atoms: C_1  and  N_2
REMARK    2  A    between atoms: N_2  and  C_3
REMARK    3  A    between atoms: C_3  and  C_4
REMARK    4  A    between atoms: C_7  and  C_8
REMARK    5  A    between atoms: C_8  and  N_9
REMARK    6  A    between atoms: C_10  and  C_12
REMARK    7  A    between atoms: C_19  and  C_21
REMARK                            x       y       z     vdW  Elec       q    Type
REMARK                         _______ _______ _______ _____ _____    ______ ____
ROOT
ATOM      1  C   UNL     1      47.526   7.507  13.986  0.00  0.00    +0.000 C 
ENDROOT
BRANCH   1   2
ATOM      2  C   UNL     1      46.698   6.426  13.340  0.00  0.00    +0.000 A 
ATOM      3  C   UNL     1      45.708   6.755  12.400  0.00  0.00    +0.000 A 
ATOM      4  C   UNL     1      44.972   5.756  11.763  0.00  0.00    +0.000 A 
ATOM      5  C   UNL     1      45.201   4.407  12.063  0.00  0.00    +0.000 A 
ATOM      6  C   UNL     1      46.196   4.079  12.994  0.00  0.00    +0.000 A 
ATOM      7  C   UNL     1      46.930   5.078  13.635  0.00  0.00    +0.000 A 
BRANCH   5   8
ATOM      8  C   UNL     1      44.408   3.328  11.375  0.00  0.00    +0.000 C 
BRANCH   8   9
ATOM      9  N   UNL     1      45.169   2.719  10.314  0.00  0.00    +0.000 N 
ATOM     10  C   UNL     1      45.114   3.182   9.018  0.00  0.00    +0.000 C 
ATOM     11  O   UNL     1      44.424   4.148   8.705  0.00  0.00    +0.000 OA
ATOM     12  H   UNL     1      45.796   1.956  10.535  0.00  0.00    +0.000 HD
BRANCH  10  13
ATOM     13  C   UNL     1      45.921   2.450   8.063  0.00  0.00    +0.000 A 
ATOM     14  C   UNL     1      46.238   1.104   8.075  0.00  0.00    +0.000 A 
ATOM     15  N   UNL     1      47.051   0.662   7.046  0.00  0.00    +0.000 NA
ATOM     16  C   UNL     1      47.345   1.676   6.263  0.00  0.00    +0.000 A 
ATOM     17  S   UNL     1      46.665   3.186   6.698  0.00  0.00    +0.000 S 
ENDBRANCH  10  13
ENDBRANCH   8   9
ENDBRANCH   5   8
ENDBRANCH   1   2
BRANCH   1  19
ATOM     18  C   UNL     1      49.768   7.739  12.838  0.00  0.00    +0.000 C 
ATOM     19  N   UNL     1      48.983   7.351  14.004  0.00  0.00    +0.000 N 
ATOM     20  C   UNL     1      49.708   7.100  15.185  0.00  0.00    +0.000 C 
ATOM     21  O   UNL     1      50.934   7.189  15.212  0.00  0.00    +0.000 OA
BRANCH  20  22
ATOM     22  C   UNL     1      48.990   6.683  16.401  0.00  0.00    +0.000 A 
ATOM     23  C   UNL     1      48.788   5.364  16.778  0.00  0.00    +0.000 A 
ATOM     24  S   UNL     1      47.977   5.195  18.270  0.00  0.00    +0.000 S 
ATOM     25  C   UNL     1      48.004   6.877  18.531  0.00  0.00    +0.000 A 
ATOM     26  N   UNL     1      47.553   7.409  19.697  0.00  0.00    +0.000 NA
ATOM     27  C   UNL     1      47.700   8.687  19.784  0.00  0.00    +0.000 A 
ATOM     28  N   UNL     1      48.214   9.485  18.795  0.00  0.00    +0.000 N 
ATOM     29  C   UNL     1      48.550   9.009  17.546  0.00  0.00    +0.000 A 
ATOM     30  O   UNL     1      48.766   9.777  16.614  0.00  0.00    +0.000 OA
ATOM     31  C   UNL     1      48.525   7.560  17.450  0.00  0.00    +0.000 A 
ATOM     32  H   UNL     1      48.233  10.489  18.900  0.00  0.00    +0.000 HD
ENDBRANCH  20  22
ENDBRANCH   1  19
TORSDOF 6
ENDMDL
MODEL 5
REMARK VINA RESULT:    -6.780      2.842      8.234
REMARK INTER + INTRA:         -10.300
REMARK INTER:                  -9.281
REMARK INTRA:                  -1.020
REMARK UNBOUND:                -1.142
REMARK  Name = 
REMARK  7 active torsions:
REMARK  status: ('A' for Active; 'I' for Inactive)
REMARK    1  A    between atoms: C_1  and  N_2
REMARK    2  A    between atoms: N_2  and  C_3
REMARK    3  A    between atoms: C_3  and  C_4
REMARK    4  A    between atoms: C_7  and  C_8
REMARK    5  A    between atoms: C_8  and  N_9
REMARK    6  A    between atoms: C_10  and  C_12
REMARK    7  A    between atoms: C_19  and  C_21
REMARK                            x       y       z     vdW  Elec       q    Type
REMARK                         _______ _______ _______ _____ _____    ______ ____
ROOT
ATOM      1  C   UNL     1      49.250   7.034  15.318  0.00  0.00    +0.000 C 
ENDROOT
BRANCH   1   2
ATOM      2  C   UNL     1      48.223   6.888  14.225  0.00  0.00    +0.000 A 
ATOM      3  C   UNL     1      47.953   7.957  13.356  0.00  0.00    +0.000 A 
ATOM      4  C   UNL     1      47.039   7.812  12.312  0.00  0.00    +0.000 A 
ATOM      5  C   UNL     1      46.364   6.599  12.125  0.00  0.00    +0.000 A 
ATOM      6  C   UNL     1      46.641   5.529  12.987  0.00  0.00    +0.000 A 
ATOM      7  C   UNL     1      47.553   5.674  14.034  0.00  0.00    +0.000 A 
BRANCH   5   8
ATOM      8  C   UNL     1      45.378   6.442  10.998  0.00  0.00    +0.000 C 
BRANCH   8   9
ATOM      9  N   UNL     1      45.766   5.374  10.112  0.00  0.00    +0.000 N 
ATOM     10  C   UNL     1      44.898   4.364   9.763  0.00  0.00    +0.000 C 
ATOM     11  O   UNL     1      43.743   4.331  10.178  0.00  0.00    +0.000 OA
ATOM     12  H   UNL     1      46.690   5.389   9.699  0.00  0.00    +0.000 HD
BRANCH  10  13
ATOM     13  C   UNL     1      45.443   3.353   8.880  0.00  0.00    +0.000 A 
ATOM     14  C   UNL     1      45.359   1.979   9.010  0.00  0.00    +0.000 A 
ATOM     15  N   UNL     1      45.993   1.236   8.029  0.00  0.00    +0.000 NA
ATOM     16  C   UNL     1      46.553   2.052   7.165  0.00  0.00    +0.000 A 
ATOM     17  S   UNL     1      46.345   3.725   7.464  0.00  0.00    +0.000 S 
ENDBRANCH  10  13
ENDBRANCH   8   9
ENDBRANCH   5   8
ENDBRANCH   1   2
BRANCH   1  19
ATOM     18  C   UNL     1      48.698   9.079  16.700  0.00  0.00    +0.000 C 
ATOM     19  N   UNL     1      48.834   7.632  16.589  0.00  0.00    +0.000 N 
ATOM     20  C   UNL     1      48.293   6.874  17.647  0.00  0.00    +0.000 C 
ATOM     21  O   UNL     1      47.755   7.417  18.610  0.00  0.00    +0.000 OA
BRANCH  20  22
ATOM     22  C   UNL     1      48.409   5.407  17.619  0.00  0.00    +0.000 A 
ATOM     23  C   UNL     1      47.362   4.543  17.337  0.00  0.00    +0.000 A 
ATOM     24  S   UNL     1      47.817   2.899  17.316  0.00  0.00    +0.000 S 
ATOM     25  C   UNL     1      49.456   3.299  17.535  0.00  0.00    +0.000 A 
ATOM     26  N   UNL     1      50.418   2.340  17.505  0.00  0.00    +0.000 NA
ATOM     27  C   UNL     1      51.620   2.796  17.614  0.00  0.00    +0.000 A 
ATOM     28  N   UNL     1      51.943   4.115  17.795  0.00  0.00    +0.000 N 
ATOM     29  C   UNL     1      50.996   5.101  17.975  0.00  0.00    +0.000 A 
ATOM     30  O   UNL     1      51.313   6.215  18.381  0.00  0.00    +0.000 OA
ATOM     31  C   UNL     1      49.636   4.655  17.728  0.00  0.00    +0.000 A 
ATOM     32  H   UNL     1      52.900   4.396  17.947  0.00  0.00    +0.000 HD
ENDBRANCH  20  22
ENDBRANCH   1  19
TORSDOF 6
ENDMDL
MODEL 6
REMARK VINA RESULT:    -6.731      2.598      8.094
REMARK INTER + INTRA:         -10.233
REMARK INTER:                  -9.260
REMARK INTRA:                  -0.973
REMARK UNBOUND:                -1.142
REMARK  Name = 
REMARK  7 active torsions:
REMARK  status: ('A' for Active; 'I' for Inactive)
REMARK    1  A    between atoms: C_1  and  N_2
REMARK    2  A    between atoms: N_2  and  C_3
REMARK    3  A    between atoms: C_3  and  C_4
REMARK    4  A    between atoms: C_7  and  C_8
REMARK    5  A    between atoms: C_8  and  N_9
REMARK    6  A    between atoms: C_10  and  C_12
REMARK    7  A    between atoms: C_19  and  C_21
REMARK                            x       y       z     vdW  Elec       q    Type
REMARK                         _______ _______ _______ _____ _____    ______ ____
ROOT
ATOM      1  C   UNL     1      49.299   7.893  15.309  0.00  0.00    +0.000 C 
ENDROOT
BRANCH   1   2
ATOM      2  C   UNL     1      48.256   7.563  14.274  0.00  0.00    +0.000 A 
ATOM      3  C   UNL     1      48.043   6.233  13.877  0.00  0.00    +0.000 A 
ATOM      4  C   UNL     1      47.045   5.917  12.955  0.00  0.00    +0.000 A 
ATOM      5  C   UNL     1      46.247   6.925  12.400  0.00  0.00    +0.000 A 
ATOM      6  C   UNL     1      46.453   8.251  12.804  0.00  0.00    +0.000 A 
ATOM      7  C   UNL     1      47.454   8.570  13.724  0.00  0.00    +0.000 A 
BRANCH   5   8
ATOM      8  C   UNL     1      45.170   6.584  11.406  0.00  0.00    +0.000 C 
BRANCH   8   9
ATOM      9  N   UNL     1      45.555   5.466  10.583  0.00  0.00    +0.000 N 
ATOM     10  C   UNL     1      44.625   4.646   9.984  0.00  0.00    +0.000 C 
ATOM     11  O   UNL     1      43.418   4.836  10.111  0.00  0.00    +0.000 OA
ATOM     12  H   UNL     1      46.538   5.304  10.403  0.00  0.00    +0.000 HD
BRANCH  10  13
ATOM     13  C   UNL     1      45.170   3.553   9.204  0.00  0.00    +0.000 A 
ATOM     14  C   UNL     1      45.063   2.197   9.455  0.00  0.00    +0.000 A 
ATOM     15  N   UNL     1      45.702   1.362   8.555  0.00  0.00    +0.000 NA
ATOM     16  C   UNL     1      46.288   2.090   7.632  0.00  0.00    +0.000 A 
ATOM     17  S   UNL     1      46.099   3.786   7.776  0.00  0.00    +0.000 S 
ENDBRANCH  10  13
ENDBRANCH   8   9
ENDBRANCH   5   8
ENDBRANCH   1   2
BRANCH   1  19
ATOM     18  C   UNL     1      47.912   9.258  16.925  0.00  0.00    +0.000 C 
ATOM     19  N   UNL     1      48.858   8.176  16.677  0.00  0.00    +0.000 N 
ATOM     20  C   UNL     1      49.083   7.291  17.750  0.00  0.00    +0.000 C 
ATOM     21  O   UNL     1      48.521   7.444  18.833  0.00  0.00    +0.000 OA
BRANCH  20  22
ATOM     22  C   UNL     1      50.040   6.185  17.586  0.00  0.00    +0.000 A 
ATOM     23  C   UNL     1      51.403   6.285  17.822  0.00  0.00    +0.000 A 
ATOM     24  S   UNL     1      52.246   4.817  17.609  0.00  0.00    +0.000 S 
ATOM     25  C   UNL     1      50.796   3.967  17.341  0.00  0.00    +0.000 A 
ATOM     26  N   UNL     1      50.797   2.616  17.191  0.00  0.00    +0.000 NA
ATOM     27  C   UNL     1      49.622   2.100  17.066  0.00  0.00    +0.000 A 
ATOM     28  N   UNL     1      48.453   2.814  17.031  0.00  0.00    +0.000 N 
ATOM     29  C   UNL     1      48.415   4.192  17.035  0.00  0.00    +0.000 A 
ATOM     30  O   UNL     1      47.385   4.797  16.753  0.00  0.00    +0.000 OA
ATOM     31  C   UNL     1      49.701   4.809  17.308  0.00  0.00    +0.000 A 
ATOM     32  H   UNL     1      47.571   2.354  16.857  0.00  0.00    +0.000 HD
ENDBRANCH  20  22
ENDBRANCH   1  19
TORSDOF 6
ENDMDL
MODEL 7
REMARK VINA RESULT:    -6.600      4.592      6.176
REMARK INTER + INTRA:         -10.057
REMARK INTER:                  -9.008
REMARK INTRA:                  -1.049
REMARK UNBOUND:                -1.142
REMARK  Name = 
REMARK  7 active torsions:
REMARK  status: ('A' for Active; 'I' for Inactive)
REMARK    1  A    between atoms: C_1  and  N_2
REMARK    2  A    between atoms: N_2  and  C_3
REMARK    3  A    between atoms: C_3  and  C_4
REMARK    4  A    between atoms: C_7  and  C_8
REMARK    5  A    between atoms: C_8  and  N_9
REMARK    6  A    between atoms: C_10  and  C_12
REMARK    7  A    between atoms: C_19  and  C_21
REMARK                            x       y       z     vdW  Elec       q    Type
REMARK                         _______ _______ _______ _____ _____    ______ ____
ROOT
ATOM      1  C   UNL     1      46.352   6.359  12.997  0.00  0.00    +0.000 C 
ENDROOT
BRANCH   1   2
ATOM      2  C   UNL     1      47.752   6.889  12.829  0.00  0.00    +0.000 A 
ATOM      3  C   UNL     1      48.235   7.231  11.556  0.00  0.00    +0.000 A 
ATOM      4  C   UNL     1      49.514   7.767  11.401  0.00  0.00    +0.000 A 
ATOM      5  C   UNL     1      50.341   7.960  12.514  0.00  0.00    +0.000 A 
ATOM      6  C   UNL     1      49.855   7.628  13.786  0.00  0.00    +0.000 A 
ATOM      7  C   UNL     1      48.577   7.087  13.943  0.00  0.00    +0.000 A 
BRANCH   5   8
ATOM      8  C   UNL     1      51.720   8.540  12.348  0.00  0.00    +0.000 C 
BRANCH   8   9
ATOM      9  N   UNL     1      52.515   7.743  11.448  0.00  0.00    +0.000 N 
ATOM     10  C   UNL     1      52.875   8.195  10.198  0.00  0.00    +0.000 C 
ATOM     11  O   UNL     1      52.548   9.307   9.792  0.00  0.00    +0.000 OA
ATOM     12  H   UNL     1      52.857   6.843  11.760  0.00  0.00    +0.000 HD
BRANCH  10  13
ATOM     13  C   UNL     1      53.658   7.269   9.405  0.00  0.00    +0.000 A 
ATOM     14  C   UNL     1      54.191   7.472   8.145  0.00  0.00    +0.000 A 
ATOM     15  N   UNL     1      54.885   6.405   7.600  0.00  0.00    +0.000 NA
ATOM     16  C   UNL     1      54.871   5.403   8.450  0.00  0.00    +0.000 A 
ATOM     17  S   UNL     1      54.054   5.679   9.929  0.00  0.00    +0.000 S 
ENDBRANCH  10  13
ENDBRANCH   8   9
ENDBRANCH   5   8
ENDBRANCH   1   2
BRANCH   1  19
ATOM     18  C   UNL     1      45.265   8.611  12.614  0.00  0.00    +0.000 C 
ATOM     19  N   UNL     1      45.238   7.159  12.482  0.00  0.00    +0.000 N 
ATOM     20  C   UNL     1      44.257   6.633  11.618  0.00  0.00    +0.000 C 
ATOM     21  O   UNL     1      43.465   7.366  11.030  0.00  0.00    +0.000 OA
BRANCH  20  22
ATOM     22  C   UNL     1      44.151   5.174  11.447  0.00  0.00    +0.000 A 
ATOM     23  C   UNL     1      43.385   4.345  12.252  0.00  0.00    +0.000 A 
ATOM     24  S   UNL     1      43.409   2.709  11.768  0.00  0.00    +0.000 S 
ATOM     25  C   UNL     1      44.322   3.081  10.381  0.00  0.00    +0.000 A 
ATOM     26  N   UNL     1      44.608   2.126   9.457  0.00  0.00    +0.000 NA
ATOM     27  C   UNL     1      45.244   2.566   8.426  0.00  0.00    +0.000 A 
ATOM     28  N   UNL     1      45.659   3.861   8.255  0.00  0.00    +0.000 N 
ATOM     29  C   UNL     1      45.517   4.828   9.227  0.00  0.00    +0.000 A 
ATOM     30  O   UNL     1      46.114   5.897   9.148  0.00  0.00    +0.000 OA
ATOM     31  C   UNL     1      44.691   4.412  10.347  0.00  0.00    +0.000 A 
ATOM     32  H   UNL     1      46.217   4.124   7.456  0.00  0.00    +0.000 HD
ENDBRANCH  20  22
ENDBRANCH   1  19
TORSDOF 6
ENDMDL
MODEL 8
REMARK VINA RESULT:    -6.573      2.555      8.012
REMARK INTER + INTRA:         -10.020
REMARK INTER:                  -8.583
REMARK INTRA:                  -1.437
REMARK UNBOUND:                -1.142
REMARK  Name = 
REMARK  7 active torsions:
REMARK  status: ('A' for Active; 'I' for Inactive)
REMARK    1  A    between atoms: C_1  and  N_2
REMARK    2  A    between atoms: N_2  and  C_3
REMARK    3  A    between atoms: C_3  and  C_4
REMARK    4  A    between atoms: C_7  and  C_8
REMARK    5  A    between atoms: C_8  and  N_9
REMARK    6  A    between atoms: C_10  and  C_12
REMARK    7  A    between atoms: C_19  and  C_21
REMARK                            x       y       z     vdW  Elec       q    Type
REMARK                         _______ _______ _______ _____ _____    ______ ____
ROOT
ATOM      1  C   UNL     1      49.454   8.291  17.191  0.00  0.00    +0.000 C 
ENDROOT
BRANCH   1   2
ATOM      2  C   UNL     1      48.971   8.093  15.778  0.00  0.00    +0.000 A 
ATOM      3  C   UNL     1      49.385   6.976  15.034  0.00  0.00    +0.000 A 
ATOM      4  C   UNL     1      48.902   6.763  13.743  0.00  0.00    +0.000 A 
ATOM      5  C   UNL     1      48.006   7.668  13.163  0.00  0.00    +0.000 A 
ATOM      6  C   UNL     1      47.584   8.777  13.909  0.00  0.00    +0.000 A 
ATOM      7  C   UNL     1      48.069   8.995  15.200  0.00  0.00    +0.000 A 
BRANCH   5   8
ATOM      8  C   UNL     1      47.484   7.437  11.770  0.00  0.00    +0.000 C 
BRANCH   8   9
ATOM      9  N   UNL     1      46.658   6.257  11.712  0.00  0.00    +0.000 N 
ATOM     10  C   UNL     1      45.300   6.327  11.495  0.00  0.00    +0.000 C 
ATOM     11  O   UNL     1      44.727   7.399  11.323  0.00  0.00    +0.000 OA
ATOM     12  H   UNL     1      47.095   5.347  11.791  0.00  0.00    +0.000 HD
BRANCH  10  13
ATOM     13  C   UNL     1      44.606   5.055  11.484  0.00  0.00    +0.000 A 
ATOM     14  C   UNL     1      44.278   4.277  10.389  0.00  0.00    +0.000 A 
ATOM     15  N   UNL     1      43.590   3.107  10.660  0.00  0.00    +0.000 NA
ATOM     16  C   UNL     1      43.401   3.008  11.956  0.00  0.00    +0.000 A 
ATOM     17  S   UNL     1      44.038   4.280  12.911  0.00  0.00    +0.000 S 
ENDBRANCH  10  13
ENDBRANCH   8   9
ENDBRANCH   5   8
ENDBRANCH   1   2
BRANCH   1  19
ATOM     18  C   UNL     1      47.494   8.881  18.677  0.00  0.00    +0.000 C 
ATOM     19  N   UNL     1      48.548   7.951  18.291  0.00  0.00    +0.000 N 
ATOM     20  C   UNL     1      48.459   6.653  18.831  0.00  0.00    +0.000 C 
ATOM     21  O   UNL     1      47.548   6.341  19.596  0.00  0.00    +0.000 OA
BRANCH  20  22
ATOM     22  C   UNL     1      49.497   5.661  18.506  0.00  0.00    +0.000 A 
ATOM     23  C   UNL     1      50.772   5.655  19.050  0.00  0.00    +0.000 A 
ATOM     24  S   UNL     1      51.732   4.343  18.531  0.00  0.00    +0.000 S 
ATOM     25  C   UNL     1      50.426   3.660  17.681  0.00  0.00    +0.000 A 
ATOM     26  N   UNL     1      50.542   2.447  17.080  0.00  0.00    +0.000 NA
ATOM     27  C   UNL     1      49.454   2.022  16.534  0.00  0.00    +0.000 A 
ATOM     28  N   UNL     1      48.274   2.719  16.497  0.00  0.00    +0.000 N 
ATOM     29  C   UNL     1      48.149   4.009  16.967  0.00  0.00    +0.000 A 
ATOM     30  O   UNL     1      47.164   4.688  16.696  0.00  0.00    +0.000 OA
ATOM     31  C   UNL     1      49.310   4.474  17.705  0.00  0.00    +0.000 A 
ATOM     32  H   UNL     1      47.478   2.360  15.990  0.00  0.00    +0.000 HD
ENDBRANCH  20  22
ENDBRANCH   1  19
TORSDOF 6
ENDMDL
MODEL 9
REMARK VINA RESULT:    -6.354      3.372      8.890
REMARK INTER + INTRA:          -9.724
REMARK INTER:                  -9.270
REMARK INTRA:                  -0.454
REMARK UNBOUND:                -1.142
REMARK  Name = 
REMARK  7 active torsions:
REMARK  status: ('A' for Active; 'I' for Inactive)
REMARK    1  A    between atoms: C_1  and  N_2
REMARK    2  A    between atoms: N_2  and  C_3
REMARK    3  A    between atoms: C_3  and  C_4
REMARK    4  A    between atoms: C_7  and  C_8
REMARK    5  A    between atoms: C_8  and  N_9
REMARK    6  A    between atoms: C_10  and  C_12
REMARK    7  A    between atoms: C_19  and  C_21
REMARK                            x       y       z     vdW  Elec       q    Type
REMARK                         _______ _______ _______ _____ _____    ______ ____
ROOT
ATOM      1  C   UNL     1      47.815   5.490  15.280  0.00  0.00    +0.000 C 
ENDROOT
BRANCH   1   2
ATOM      2  C   UNL     1      46.967   5.410  14.038  0.00  0.00    +0.000 A 
ATOM      3  C   UNL     1      47.312   6.144  12.892  0.00  0.00    +0.000 A 
ATOM      4  C   UNL     1      46.558   6.035  11.724  0.00  0.00    +0.000 A 
ATOM      5  C   UNL     1      45.434   5.201  11.681  0.00  0.00    +0.000 A 
ATOM      6  C   UNL     1      45.095   4.460  12.821  0.00  0.00    +0.000 A 
ATOM      7  C   UNL     1      45.847   4.571  13.993  0.00  0.00    +0.000 A 
BRANCH   5   8
ATOM      8  C   UNL     1      44.621   5.082  10.420  0.00  0.00    +0.000 C 
BRANCH   8   9
ATOM      9  N   UNL     1      45.340   4.359   9.402  0.00  0.00    +0.000 N 
ATOM     10  C   UNL     1      45.151   3.011   9.193  0.00  0.00    +0.000 C 
ATOM     11  O   UNL     1      44.348   2.360   9.855  0.00  0.00    +0.000 OA
ATOM     12  H   UNL     1      45.971   4.865   8.793  0.00  0.00    +0.000 HD
BRANCH  10  13
ATOM     13  C   UNL     1      45.964   2.425   8.146  0.00  0.00    +0.000 A 
ATOM     14  C   UNL     1      46.318   1.097   7.992  0.00  0.00    +0.000 A 
ATOM     15  N   UNL     1      47.128   0.807   6.907  0.00  0.00    +0.000 NA
ATOM     16  C   UNL     1      47.381   1.916   6.250  0.00  0.00    +0.000 A 
ATOM     17  S   UNL     1      46.665   3.342   6.872  0.00  0.00    +0.000 S 
ENDBRANCH  10  13
ENDBRANCH   8   9
ENDBRANCH   5   8
ENDBRANCH   1   2
BRANCH   1  19
ATOM     18  C   UNL     1      47.776   2.982  15.610  0.00  0.00    +0.000 C 
ATOM     19  N   UNL     1      47.861   4.326  16.169  0.00  0.00    +0.000 N 
ATOM     20  C   UNL     1      48.257   4.413  17.518  0.00  0.00    +0.000 C 
ATOM     21  O   UNL     1      48.496   3.404  18.180  0.00  0.00    +0.000 OA
BRANCH  20  22
ATOM     22  C   UNL     1      48.346   5.733  18.163  0.00  0.00    +0.000 A 
ATOM     23  C   UNL     1      47.358   6.282  18.966  0.00  0.00    +0.000 A 
ATOM     24  S   UNL     1      47.776   7.800  19.625  0.00  0.00    +0.000 S 
ATOM     25  C   UNL     1      49.347   7.703  18.980  0.00  0.00    +0.000 A 
ATOM     26  N   UNL     1      50.278   8.652  19.263  0.00  0.00    +0.000 NA
ATOM     27  C   UNL     1      51.443   8.412  18.766  0.00  0.00    +0.000 A 
ATOM     28  N   UNL     1      51.750   7.335  17.975  0.00  0.00    +0.000 N 
ATOM     29  C   UNL     1      50.807   6.427  17.546  0.00  0.00    +0.000 A 
ATOM     30  O   UNL     1      51.059   5.630  16.648  0.00  0.00    +0.000 OA
ATOM     31  C   UNL     1      49.513   6.583  18.188  0.00  0.00    +0.000 A 
ATOM     32  H   UNL     1      52.665   7.246  17.557  0.00  0.00    +0.000 HD
ENDBRANCH  20  22
ENDBRANCH   1  19
TORSDOF 6
ENDMDL
