MODEL 1
REMARK VINA RESULT:    -8.678      0.000      0.000
REMARK INTER + INTRA:         -12.176
REMARK INTER:                 -11.215
REMARK INTRA:                  -0.961
REMARK UNBOUND:                -0.961
REMARK  Name = 
REMARK  5 active torsions:
REMARK  status: ('A' for Active; 'I' for Inactive)
REMARK    1  A    between atoms: C_2  and  C_4
REMARK    2  A    between atoms: C_7  and  O_8
REMARK    3  A    between atoms: O_8  and  C_9
REMARK    4  A    between atoms: C_9  and  C_10
REMARK    5  A    between atoms: C_15  and  C_16
REMARK                            x       y       z     vdW  Elec       q    Type
REMARK                         _______ _______ _______ _____ _____    ______ ____
ROOT
ATOM      1  C   UNL     1      43.816   5.003  11.292  0.00  0.00    +0.000 C 
ATOM      2  C   UNL     1      42.530   5.311  12.056  0.00  0.00    +0.000 C 
ATOM      3  C   UNL     1      42.998   6.240  10.987  0.00  0.00    +0.000 C 
ENDROOT
BRANCH   1   4
ATOM      4  C   UNL     1      45.129   5.153  12.046  0.00  0.00    +0.000 A 
ATOM      5  C   UNL     1      45.574   4.180  12.950  0.00  0.00    +0.000 A 
ATOM      6  C   UNL     1      46.825   4.282  13.541  0.00  0.00    +0.000 A 
ATOM      7  F   UNL     1      47.249   3.310  14.358  0.00  0.00    +0.000 F 
ATOM      8  C   UNL     1      47.656   5.365  13.282  0.00  0.00    +0.000 A 
ATOM      9  C   UNL     1      47.243   6.391  12.422  0.00  0.00    +0.000 A 
ATOM     10  C   UNL     1      45.976   6.256  11.816  0.00  0.00    +0.000 A 
BRANCH   9  11
ATOM     11  C   UNL     1      48.101   7.559  12.150  0.00  0.00    +0.000 A 
ATOM     12  C   UNL     1      49.466   7.473  11.926  0.00  0.00    +0.000 A 
ATOM     13  N   UNL     1      50.283   8.527  11.685  0.00  0.00    +0.000 NA
ATOM     14  C   UNL     1      49.692   9.730  11.666  0.00  0.00    +0.000 A 
ATOM     15  N   UNL     1      48.381   9.953  11.855  0.00  0.00    +0.000 NA
ATOM     16  C   UNL     1      47.622   8.859  12.097  0.00  0.00    +0.000 A 
ENDBRANCH   9  11
ENDBRANCH   1   4
BRANCH   1  17
ATOM     17  O   UNL     1      43.621   3.801  10.510  0.00  0.00    +0.000 OA
BRANCH  17  21
ATOM     18  C   UNL     1      46.363   2.737   7.629  0.00  0.00    +0.000 A 
ATOM     19  C   UNL     1      45.827   1.770   8.477  0.00  0.00    +0.000 A 
ATOM     20  C   UNL     1      44.902   2.159   9.443  0.00  0.00    +0.000 A 
ATOM     21  C   UNL     1      44.537   3.499   9.521  0.00  0.00    +0.000 A 
ATOM     22  N   UNL     1      45.025   4.459   8.710  0.00  0.00    +0.000 NA
ATOM     23  C   UNL     1      45.943   4.055   7.790  0.00  0.00    +0.000 A 
BRANCH  18  25
ATOM     24  N   UNL     1      47.366   3.127   5.447  0.00  0.00    +0.000 N 
ATOM     25  C   UNL     1      47.395   2.422   6.619  0.00  0.00    +0.000 C 
ATOM     26  O   UNL     1      48.251   1.571   6.825  0.00  0.00    +0.000 OA
ATOM     27  H   UNL     1      48.107   2.937   4.783  0.00  0.00    +0.000 HD
ATOM     28  H   UNL     1      46.841   3.981   5.328  0.00  0.00    +0.000 HD
ENDBRANCH  18  25
ENDBRANCH  17  21
ENDBRANCH   1  17
TORSDOF 5
ENDMDL
MODEL 2
REMARK VINA RESULT:    -8.210      2.730      3.619
REMARK INTER + INTRA:         -11.571
REMARK INTER:                 -11.097
REMARK INTRA:                  -0.473
REMARK UNBOUND:                -0.961
REMARK  Name = 
REMARK  5 active torsions:
REMARK  status: ('A' for Active; 'I' for Inactive)
REMARK    1  A    between atoms: C_2  and  C_4
REMARK    2  A    between atoms: C_7  and  O_8
REMARK    3  A    between atoms: O_8  and  C_9
REMARK    4  A    between atoms: C_9  and  C_10
REMARK    5  A    between atoms: C_15  and  C_16
REMARK                            x       y       z     vdW  Elec       q    Type
REMARK                         _______ _______ _______ _____ _____    ______ ____
ROOT
ATOM      1  C   UNL     1      44.176   4.902  11.533  0.00  0.00    +0.000 C 
ATOM      2  C   UNL     1      42.927   5.046  12.399  0.00  0.00    +0.000 C 
ATOM      3  C   UNL     1      43.108   5.926  11.209  0.00  0.00    +0.000 C 
ENDROOT
BRANCH   1   4
ATOM      4  C   UNL     1      45.495   5.373  12.127  0.00  0.00    +0.000 A 
ATOM      5  C   UNL     1      46.250   6.389  11.526  0.00  0.00    +0.000 A 
ATOM      6  C   UNL     1      47.391   6.882  12.143  0.00  0.00    +0.000 A 
ATOM      7  F   UNL     1      48.064   7.891  11.576  0.00  0.00    +0.000 F 
ATOM      8  C   UNL     1      47.836   6.362  13.352  0.00  0.00    +0.000 A 
ATOM      9  C   UNL     1      47.146   5.312  13.974  0.00  0.00    +0.000 A 
ATOM     10  C   UNL     1      45.977   4.841  13.340  0.00  0.00    +0.000 A 
BRANCH   9  11
ATOM     11  C   UNL     1      47.613   4.732  15.247  0.00  0.00    +0.000 A 
ATOM     12  C   UNL     1      47.470   3.395  15.579  0.00  0.00    +0.000 A 
ATOM     13  N   UNL     1      47.877   2.835  16.744  0.00  0.00    +0.000 NA
ATOM     14  C   UNL     1      48.460   3.667  17.618  0.00  0.00    +0.000 A 
ATOM     15  N   UNL     1      48.671   4.978  17.419  0.00  0.00    +0.000 NA
ATOM     16  C   UNL     1      48.236   5.475  16.238  0.00  0.00    +0.000 A 
ENDBRANCH   9  11
ENDBRANCH   1   4
BRANCH   1  17
ATOM     17  O   UNL     1      44.151   3.608  10.886  0.00  0.00    +0.000 OA
BRANCH  17  21
ATOM     18  C   UNL     1      46.351   2.919   7.474  0.00  0.00    +0.000 A 
ATOM     19  C   UNL     1      45.953   1.853   8.278  0.00  0.00    +0.000 A 
ATOM     20  C   UNL     1      45.210   2.116   9.427  0.00  0.00    +0.000 A 
ATOM     21  C   UNL     1      44.882   3.435   9.727  0.00  0.00    +0.000 A 
ATOM     22  N   UNL     1      45.238   4.488   8.966  0.00  0.00    +0.000 NA
ATOM     23  C   UNL     1      45.982   4.205   7.862  0.00  0.00    +0.000 A 
BRANCH  18  25
ATOM     24  N   UNL     1      48.517   2.456   6.469  0.00  0.00    +0.000 N 
ATOM     25  C   UNL     1      47.192   2.736   6.273  0.00  0.00    +0.000 C 
ATOM     26  O   UNL     1      46.723   2.819   5.146  0.00  0.00    +0.000 OA
ATOM     27  H   UNL     1      49.074   2.285   5.640  0.00  0.00    +0.000 HD
ATOM     28  H   UNL     1      48.894   2.150   7.355  0.00  0.00    +0.000 HD
ENDBRANCH  18  25
ENDBRANCH  17  21
ENDBRANCH   1  17
TORSDOF 5
ENDMDL
MODEL 3
REMARK VINA RESULT:    -7.508      2.103      2.772
REMARK INTER + INTRA:         -10.664
REMARK INTER:                 -11.001
REMARK INTRA:                   0.337
REMARK UNBOUND:                -0.961
REMARK  Name = 
REMARK  5 active torsions:
REMARK  status: ('A' for Active; 'I' for Inactive)
REMARK    1  A    between atoms: C_2  and  C_4
REMARK    2  A    between atoms: C_7  and  O_8
REMARK    3  A    between atoms: O_8  and  C_9
REMARK    4  A    between atoms: C_9  and  C_10
REMARK    5  A    between atoms: C_15  and  C_16
REMARK                            x       y       z     vdW  Elec       q    Type
REMARK                         _______ _______ _______ _____ _____    ______ ____
ROOT
ATOM      1  C   UNL     1      44.099   4.350  11.518  0.00  0.00    +0.000 C 
ATOM      2  C   UNL     1      44.796   3.199  12.242  0.00  0.00    +0.000 C 
ATOM      3  C   UNL     1      43.488   3.708  12.746  0.00  0.00    +0.000 C 
ENDROOT
BRANCH   1   4
ATOM      4  C   UNL     1      44.724   5.732  11.642  0.00  0.00    +0.000 A 
ATOM      5  C   UNL     1      44.070   6.879  11.175  0.00  0.00    +0.000 A 
ATOM      6  C   UNL     1      44.604   8.140  11.398  0.00  0.00    +0.000 A 
ATOM      7  F   UNL     1      43.932   9.223  10.990  0.00  0.00    +0.000 F 
ATOM      8  C   UNL     1      45.816   8.299  12.060  0.00  0.00    +0.000 A 
ATOM      9  C   UNL     1      46.536   7.184  12.507  0.00  0.00    +0.000 A 
ATOM     10  C   UNL     1      45.963   5.913  12.288  0.00  0.00    +0.000 A 
BRANCH   9  11
ATOM     11  C   UNL     1      47.833   7.330  13.193  0.00  0.00    +0.000 A 
ATOM     12  C   UNL     1      48.238   6.531  14.250  0.00  0.00    +0.000 A 
ATOM     13  N   UNL     1      49.417   6.648  14.907  0.00  0.00    +0.000 NA
ATOM     14  C   UNL     1      50.231   7.621  14.476  0.00  0.00    +0.000 A 
ATOM     15  N   UNL     1      49.968   8.457  13.458  0.00  0.00    +0.000 NA
ATOM     16  C   UNL     1      48.773   8.291  12.848  0.00  0.00    +0.000 A 
ENDBRANCH   9  11
ENDBRANCH   1   4
BRANCH   1  17
ATOM     17  O   UNL     1      43.703   3.904  10.200  0.00  0.00    +0.000 OA
BRANCH  17  21
ATOM     18  C   UNL     1      46.628   2.693   7.568  0.00  0.00    +0.000 A 
ATOM     19  C   UNL     1      46.357   4.049   7.739  0.00  0.00    +0.000 A 
ATOM     20  C   UNL     1      45.362   4.430   8.636  0.00  0.00    +0.000 A 
ATOM     21  C   UNL     1      44.678   3.442   9.338  0.00  0.00    +0.000 A 
ATOM     22  N   UNL     1      44.923   2.123   9.208  0.00  0.00    +0.000 NA
ATOM     23  C   UNL     1      45.885   1.778   8.309  0.00  0.00    +0.000 A 
BRANCH  18  25
ATOM     24  N   UNL     1      47.813   2.940   5.457  0.00  0.00    +0.000 N 
ATOM     25  C   UNL     1      47.623   2.200   6.592  0.00  0.00    +0.000 C 
ATOM     26  O   UNL     1      48.262   1.176   6.795  0.00  0.00    +0.000 OA
ATOM     27  H   UNL     1      48.532   2.619   4.819  0.00  0.00    +0.000 HD
ATOM     28  H   UNL     1      47.493   3.892   5.357  0.00  0.00    +0.000 HD
ENDBRANCH  18  25
ENDBRANCH  17  21
ENDBRANCH   1  17
TORSDOF 5
ENDMDL
MODEL 4
REMARK VINA RESULT:    -7.391      3.611      7.223
REMARK INTER + INTRA:         -10.512
REMARK INTER:                  -9.826
REMARK INTRA:                  -0.685
REMARK UNBOUND:                -0.961
REMARK  Name = 
REMARK  5 active torsions:
REMARK  status: ('A' for Active; 'I' for Inactive)
REMARK    1  A    between atoms: C_2  and  C_4
REMARK    2  A    between atoms: C_7  and  O_8
REMARK    3  A    between atoms: O_8  and  C_9
REMARK    4  A    between atoms: C_9  and  C_10
REMARK    5  A    between atoms: C_15  and  C_16
REMARK                            x       y       z     vdW  Elec       q    Type
REMARK                         _______ _______ _______ _____ _____    ______ ____
ROOT
ATOM      1  C   UNL     1      46.408   7.284  12.516  0.00  0.00    +0.000 C 
ATOM      2  C   UNL     1      46.607   8.662  11.889  0.00  0.00    +0.000 C 
ATOM      3  C   UNL     1      45.884   8.537  13.187  0.00  0.00    +0.000 C 
ENDROOT
BRANCH   1   4
ATOM      4  C   UNL     1      45.422   6.344  11.838  0.00  0.00    +0.000 A 
ATOM      5  C   UNL     1      44.048   6.404  12.104  0.00  0.00    +0.000 A 
ATOM      6  C   UNL     1      43.155   5.615  11.393  0.00  0.00    +0.000 A 
ATOM      7  F   UNL     1      41.841   5.732  11.626  0.00  0.00    +0.000 F 
ATOM      8  C   UNL     1      43.597   4.723  10.424  0.00  0.00    +0.000 A 
ATOM      9  C   UNL     1      44.965   4.588  10.151  0.00  0.00    +0.000 A 
ATOM     10  C   UNL     1      45.854   5.415  10.871  0.00  0.00    +0.000 A 
BRANCH   9  11
ATOM     11  C   UNL     1      45.457   3.632   9.141  0.00  0.00    +0.000 A 
ATOM     12  C   UNL     1      45.399   2.256   9.293  0.00  0.00    +0.000 A 
ATOM     13  N   UNL     1      45.853   1.354   8.391  0.00  0.00    +0.000 NA
ATOM     14  C   UNL     1      46.392   1.865   7.275  0.00  0.00    +0.000 A 
ATOM     15  N   UNL     1      46.500   3.175   6.996  0.00  0.00    +0.000 NA
ATOM     16  C   UNL     1      46.033   4.023   7.941  0.00  0.00    +0.000 A 
ENDBRANCH   9  11
ENDBRANCH   1   4
BRANCH   1  17
ATOM     17  O   UNL     1      47.698   6.750  12.895  0.00  0.00    +0.000 OA
BRANCH  17  21
ATOM     18  C   UNL     1      47.895   4.653  16.433  0.00  0.00    +0.000 A 
ATOM     19  C   UNL     1      47.084   4.200  15.394  0.00  0.00    +0.000 A 
ATOM     20  C   UNL     1      47.037   4.930  14.209  0.00  0.00    +0.000 A 
ATOM     21  C   UNL     1      47.809   6.082  14.099  0.00  0.00    +0.000 A 
ATOM     22  N   UNL     1      48.614   6.542  15.078  0.00  0.00    +0.000 NA
ATOM     23  C   UNL     1      48.625   5.822  16.232  0.00  0.00    +0.000 A 
BRANCH  18  25
ATOM     24  N   UNL     1      47.138   2.895  17.935  0.00  0.00    +0.000 N 
ATOM     25  C   UNL     1      47.957   3.974  17.744  0.00  0.00    +0.000 C 
ATOM     26  O   UNL     1      48.718   4.354  18.624  0.00  0.00    +0.000 OA
ATOM     27  H   UNL     1      47.223   2.408  18.819  0.00  0.00    +0.000 HD
ATOM     28  H   UNL     1      46.676   2.410  17.179  0.00  0.00    +0.000 HD
ENDBRANCH  18  25
ENDBRANCH  17  21
ENDBRANCH   1  17
TORSDOF 5
ENDMDL
MODEL 5
REMARK VINA RESULT:    -6.440      4.154      8.057
REMARK INTER + INTRA:          -9.283
REMARK INTER:                  -8.289
REMARK INTRA:                  -0.994
REMARK UNBOUND:                -0.961
REMARK  Name = 
REMARK  5 active torsions:
REMARK  status: ('A' for Active; 'I' for Inactive)
REMARK    1  A    between atoms: C_2  and  C_4
REMARK    2  A    between atoms: C_7  and  O_8
REMARK    3  A    between atoms: O_8  and  C_9
REMARK    4  A    between atoms: C_9  and  C_10
REMARK    5  A    between atoms: C_15  and  C_16
REMARK                            x       y       z     vdW  Elec       q    Type
REMARK                         _______ _______ _______ _____ _____    ______ ____
ROOT
ATOM      1  C   UNL     1      49.123   8.065  12.710  0.00  0.00    +0.000 C 
ATOM      2  C   UNL     1      50.031   8.371  11.520  0.00  0.00    +0.000 C 
ATOM      3  C   UNL     1      49.749   9.433  12.528  0.00  0.00    +0.000 C 
ENDROOT
BRANCH   1   4
ATOM      4  C   UNL     1      47.638   7.891  12.427  0.00  0.00    +0.000 A 
ATOM      5  C   UNL     1      46.702   8.874  12.776  0.00  0.00    +0.000 A 
ATOM      6  C   UNL     1      45.371   8.745  12.409  0.00  0.00    +0.000 A 
ATOM      7  F   UNL     1      44.507   9.725  12.706  0.00  0.00    +0.000 F 
ATOM      8  C   UNL     1      44.920   7.628  11.717  0.00  0.00    +0.000 A 
ATOM      9  C   UNL     1      45.803   6.592  11.383  0.00  0.00    +0.000 A 
ATOM     10  C   UNL     1      47.157   6.753  11.748  0.00  0.00    +0.000 A 
BRANCH   9  11
ATOM     11  C   UNL     1      45.342   5.389  10.668  0.00  0.00    +0.000 A 
ATOM     12  C   UNL     1      44.575   4.393  11.252  0.00  0.00    +0.000 A 
ATOM     13  N   UNL     1      44.146   3.272  10.625  0.00  0.00    +0.000 NA
ATOM     14  C   UNL     1      44.508   3.148   9.340  0.00  0.00    +0.000 A 
ATOM     15  N   UNL     1      45.237   4.040   8.650  0.00  0.00    +0.000 NA
ATOM     16  C   UNL     1      45.638   5.135   9.337  0.00  0.00    +0.000 A 
ENDBRANCH   9  11
ENDBRANCH   1   4
BRANCH   1  17
ATOM     17  O   UNL     1      49.769   7.084  13.554  0.00  0.00    +0.000 OA
BRANCH  17  21
ATOM     18  C   UNL     1      48.315   6.550  17.369  0.00  0.00    +0.000 A 
ATOM     19  C   UNL     1      48.977   7.728  17.030  0.00  0.00    +0.000 A 
ATOM     20  C   UNL     1      49.458   7.881  15.732  0.00  0.00    +0.000 A 
ATOM     21  C   UNL     1      49.254   6.855  14.815  0.00  0.00    +0.000 A 
ATOM     22  N   UNL     1      48.607   5.708  15.104  0.00  0.00    +0.000 NA
ATOM     23  C   UNL     1      48.166   5.576  16.384  0.00  0.00    +0.000 A 
BRANCH  18  25
ATOM     24  N   UNL     1      46.687   5.533  18.864  0.00  0.00    +0.000 N 
ATOM     25  C   UNL     1      47.827   6.279  18.738  0.00  0.00    +0.000 C 
ATOM     26  O   UNL     1      48.424   6.695  19.721  0.00  0.00    +0.000 OA
ATOM     27  H   UNL     1      46.389   5.314  19.807  0.00  0.00    +0.000 HD
ATOM     28  H   UNL     1      46.300   4.981  18.113  0.00  0.00    +0.000 HD
ENDBRANCH  18  25
ENDBRANCH  17  21
ENDBRANCH   1  17
TORSDOF 5
ENDMDL
MODEL 6
REMARK VINA RESULT:    -6.290      3.865      5.975
REMARK INTER + INTRA:          -9.089
REMARK INTER:                  -8.304
REMARK INTRA:                  -0.786
REMARK UNBOUND:                -0.961
REMARK  Name = 
REMARK  5 active torsions:
REMARK  status: ('A' for Active; 'I' for Inactive)
REMARK    1  A    between atoms: C_2  and  C_4
REMARK    2  A    between atoms: C_7  and  O_8
REMARK    3  A    between atoms: O_8  and  C_9
REMARK    4  A    between atoms: C_9  and  C_10
REMARK    5  A    between atoms: C_15  and  C_16
REMARK                            x       y       z     vdW  Elec       q    Type
REMARK                         _______ _______ _______ _____ _____    ______ ____
ROOT
ATOM      1  C   UNL     1      48.014   8.119  12.499  0.00  0.00    +0.000 C 
ATOM      2  C   UNL     1      48.804   9.134  11.675  0.00  0.00    +0.000 C 
ATOM      3  C   UNL     1      49.092   7.678  11.530  0.00  0.00    +0.000 C 
ENDROOT
BRANCH   1   4
ATOM      4  C   UNL     1      48.296   8.061  13.993  0.00  0.00    +0.000 A 
ATOM      5  C   UNL     1      48.263   9.211  14.793  0.00  0.00    +0.000 A 
ATOM      6  C   UNL     1      48.411   9.120  16.169  0.00  0.00    +0.000 A 
ATOM      7  F   UNL     1      48.320  10.227  16.916  0.00  0.00    +0.000 F 
ATOM      8  C   UNL     1      48.631   7.896  16.789  0.00  0.00    +0.000 A 
ATOM      9  C   UNL     1      48.720   6.719  16.033  0.00  0.00    +0.000 A 
ATOM     10  C   UNL     1      48.545   6.832  14.637  0.00  0.00    +0.000 A 
BRANCH   9  11
ATOM     11  C   UNL     1      48.973   5.414  16.669  0.00  0.00    +0.000 A 
ATOM     12  C   UNL     1      50.162   5.083  17.299  0.00  0.00    +0.000 A 
ATOM     13  N   UNL     1      50.428   3.889  17.881  0.00  0.00    +0.000 NA
ATOM     14  C   UNL     1      49.443   2.981  17.828  0.00  0.00    +0.000 A 
ATOM     15  N   UNL     1      48.241   3.175  17.260  0.00  0.00    +0.000 NA
ATOM     16  C   UNL     1      48.042   4.385  16.691  0.00  0.00    +0.000 A 
ENDBRANCH   9  11
ENDBRANCH   1   4
BRANCH   1  17
ATOM     17  O   UNL     1      46.631   8.145  12.073  0.00  0.00    +0.000 OA
BRANCH  17  21
ATOM     18  C   UNL     1      44.647   4.563  11.645  0.00  0.00    +0.000 A 
ATOM     19  C   UNL     1      44.575   5.264  12.847  0.00  0.00    +0.000 A 
ATOM     20  C   UNL     1      45.257   6.473  12.964  0.00  0.00    +0.000 A 
ATOM     21  C   UNL     1      45.979   6.945  11.871  0.00  0.00    +0.000 A 
ATOM     22  N   UNL     1      46.059   6.300  10.690  0.00  0.00    +0.000 NA
ATOM     23  C   UNL     1      45.402   5.112  10.611  0.00  0.00    +0.000 A 
BRANCH  18  25
ATOM     24  N   UNL     1      43.785   2.486  12.573  0.00  0.00    +0.000 N 
ATOM     25  C   UNL     1      44.006   3.245  11.456  0.00  0.00    +0.000 C 
ATOM     26  O   UNL     1      43.674   2.850  10.347  0.00  0.00    +0.000 OA
ATOM     27  H   UNL     1      43.302   1.605  12.438  0.00  0.00    +0.000 HD
ATOM     28  H   UNL     1      43.823   2.857  13.512  0.00  0.00    +0.000 HD
ENDBRANCH  18  25
ENDBRANCH  17  21
ENDBRANCH   1  17
TORSDOF 5
ENDMDL
MODEL 7
REMARK VINA RESULT:    -5.790      3.297      6.935
REMARK INTER + INTRA:          -8.444
REMARK INTER:                  -7.499
REMARK INTRA:                  -0.945
REMARK UNBOUND:                -0.961
REMARK  Name = 
REMARK  5 active torsions:
REMARK  status: ('A' for Active; 'I' for Inactive)
REMARK    1  A    between atoms: C_2  and  C_4
REMARK    2  A    between atoms: C_7  and  O_8
REMARK    3  A    between atoms: O_8  and  C_9
REMARK    4  A    between atoms: C_9  and  C_10
REMARK    5  A    between atoms: C_15  and  C_16
REMARK                            x       y       z     vdW  Elec       q    Type
REMARK                         _______ _______ _______ _____ _____    ______ ____
ROOT
ATOM      1  C   UNL     1      45.417   8.435  11.864  0.00  0.00    +0.000 C 
ATOM      2  C   UNL     1      44.600   9.425  11.036  0.00  0.00    +0.000 C 
ATOM      3  C   UNL     1      44.486   9.432  12.522  0.00  0.00    +0.000 C 
ENDROOT
BRANCH   1   4
ATOM      4  C   UNL     1      45.007   6.971  11.805  0.00  0.00    +0.000 A 
ATOM      5  C   UNL     1      44.170   6.402  12.774  0.00  0.00    +0.000 A 
ATOM      6  C   UNL     1      43.718   5.097  12.641  0.00  0.00    +0.000 A 
ATOM      7  F   UNL     1      42.874   4.596  13.551  0.00  0.00    +0.000 F 
ATOM      8  C   UNL     1      44.106   4.308  11.564  0.00  0.00    +0.000 A 
ATOM      9  C   UNL     1      44.979   4.811  10.591  0.00  0.00    +0.000 A 
ATOM     10  C   UNL     1      45.410   6.147  10.736  0.00  0.00    +0.000 A 
BRANCH   9  11
ATOM     11  C   UNL     1      45.420   3.984   9.453  0.00  0.00    +0.000 A 
ATOM     12  C   UNL     1      45.900   4.508   8.262  0.00  0.00    +0.000 A 
ATOM     13  N   UNL     1      46.301   3.776   7.196  0.00  0.00    +0.000 NA
ATOM     14  C   UNL     1      46.216   2.445   7.336  0.00  0.00    +0.000 A 
ATOM     15  N   UNL     1      45.782   1.808   8.436  0.00  0.00    +0.000 NA
ATOM     16  C   UNL     1      45.390   2.597   9.463  0.00  0.00    +0.000 A 
ENDBRANCH   9  11
ENDBRANCH   1   4
BRANCH   1  17
ATOM     17  O   UNL     1      46.822   8.749  11.720  0.00  0.00    +0.000 OA
BRANCH  17  21
ATOM     18  C   UNL     1      49.482   7.521  14.613  0.00  0.00    +0.000 A 
ATOM     19  C   UNL     1      49.628   7.087  13.297  0.00  0.00    +0.000 A 
ATOM     20  C   UNL     1      48.713   7.518  12.340  0.00  0.00    +0.000 A 
ATOM     21  C   UNL     1      47.689   8.376  12.729  0.00  0.00    +0.000 A 
ATOM     22  N   UNL     1      47.525   8.826  13.989  0.00  0.00    +0.000 NA
ATOM     23  C   UNL     1      48.419   8.373  14.908  0.00  0.00    +0.000 A 
BRANCH  18  25
ATOM     24  N   UNL     1      49.932   6.026  16.479  0.00  0.00    +0.000 N 
ATOM     25  C   UNL     1      50.370   7.064  15.703  0.00  0.00    +0.000 C 
ATOM     26  O   UNL     1      51.459   7.585  15.899  0.00  0.00    +0.000 OA
ATOM     27  H   UNL     1      50.568   5.689  17.191  0.00  0.00    +0.000 HD
ATOM     28  H   UNL     1      49.166   5.422  16.215  0.00  0.00    +0.000 HD
ENDBRANCH  18  25
ENDBRANCH  17  21
ENDBRANCH   1  17
TORSDOF 5
ENDMDL
MODEL 8
REMARK VINA RESULT:    -5.782      6.010      8.048
REMARK INTER + INTRA:          -8.433
REMARK INTER:                  -7.858
REMARK INTRA:                  -0.574
REMARK UNBOUND:                -0.961
REMARK  Name = 
REMARK  5 active torsions:
REMARK  status: ('A' for Active; 'I' for Inactive)
REMARK    1  A    between atoms: C_2  and  C_4
REMARK    2  A    between atoms: C_7  and  O_8
REMARK    3  A    between atoms: O_8  and  C_9
REMARK    4  A    between atoms: C_9  and  C_10
REMARK    5  A    between atoms: C_15  and  C_16
REMARK                            x       y       z     vdW  Elec       q    Type
REMARK                         _______ _______ _______ _____ _____    ______ ____
ROOT
ATOM      1  C   UNL     1      48.140   3.820  16.697  0.00  0.00    +0.000 C 
ATOM      2  C   UNL     1      47.344   2.900  17.621  0.00  0.00    +0.000 C 
ATOM      3  C   UNL     1      47.003   4.350  17.546  0.00  0.00    +0.000 C 
ENDROOT
BRANCH   1   4
ATOM      4  C   UNL     1      49.572   4.141  17.098  0.00  0.00    +0.000 A 
ATOM      5  C   UNL     1      50.026   5.462  17.209  0.00  0.00    +0.000 A 
ATOM      6  C   UNL     1      51.300   5.736  17.684  0.00  0.00    +0.000 A 
ATOM      7  F   UNL     1      51.690   7.008  17.833  0.00  0.00    +0.000 F 
ATOM      8  C   UNL     1      52.173   4.711  18.031  0.00  0.00    +0.000 A 
ATOM      9  C   UNL     1      51.789   3.371  17.895  0.00  0.00    +0.000 A 
ATOM     10  C   UNL     1      50.481   3.117  17.430  0.00  0.00    +0.000 A 
BRANCH   9  11
ATOM     11  C   UNL     1      52.707   2.269  18.238  0.00  0.00    +0.000 A 
ATOM     12  C   UNL     1      52.537   0.964  17.804  0.00  0.00    +0.000 A 
ATOM     13  N   UNL     1      53.354  -0.071  18.111  0.00  0.00    +0.000 NA
ATOM     14  C   UNL     1      54.400   0.225  18.896  0.00  0.00    +0.000 A 
ATOM     15  N   UNL     1      54.688   1.446  19.375  0.00  0.00    +0.000 NA
ATOM     16  C   UNL     1      53.829   2.434  19.037  0.00  0.00    +0.000 A 
ENDBRANCH   9  11
ENDBRANCH   1   4
BRANCH   1  17
ATOM     17  O   UNL     1      47.894   3.433  15.325  0.00  0.00    +0.000 OA
BRANCH  17  21
ATOM     18  C   UNL     1      46.060   6.054  12.733  0.00  0.00    +0.000 A 
ATOM     19  C   UNL     1      45.495   4.805  12.982  0.00  0.00    +0.000 A 
ATOM     20  C   UNL     1      46.138   3.939  13.864  0.00  0.00    +0.000 A 
ATOM     21  C   UNL     1      47.318   4.354  14.472  0.00  0.00    +0.000 A 
ATOM     22  N   UNL     1      47.886   5.559  14.265  0.00  0.00    +0.000 NA
ATOM     23  C   UNL     1      47.249   6.377  13.383  0.00  0.00    +0.000 A 
BRANCH  18  25
ATOM     24  N   UNL     1      44.917   6.492  10.630  0.00  0.00    +0.000 N 
ATOM     25  C   UNL     1      45.478   7.009  11.766  0.00  0.00    +0.000 C 
ATOM     26  O   UNL     1      45.487   8.214  11.976  0.00  0.00    +0.000 OA
ATOM     27  H   UNL     1      44.479   7.152   9.998  0.00  0.00    +0.000 HD
ATOM     28  H   UNL     1      44.679   5.517  10.524  0.00  0.00    +0.000 HD
ENDBRANCH  18  25
ENDBRANCH  17  21
ENDBRANCH   1  17
TORSDOF 5
ENDMDL
