MODEL 1
REMARK VINA RESULT:    -8.917      0.000      0.000
REMARK INTER + INTRA:         -12.100
REMARK INTER:                 -11.524
REMARK INTRA:                  -0.576
REMARK UNBOUND:                -0.576
REMARK  Name = 
REMARK  6 active torsions:
REMARK  status: ('A' for Active; 'I' for Inactive)
REMARK    1  A    between atoms: C_1  and  C_2
REMARK    2  A    between atoms: C_4  and  N_5
REMARK    3  A    between atoms: N_5  and  C_6
REMARK    4  A    between atoms: C_6  and  C_7
REMARK    5  A    between atoms: C_11  and  C_12
REMARK    6  A    between atoms: C_21  and  C_22
REMARK                            x       y       z     vdW  Elec       q    Type
REMARK                         _______ _______ _______ _____ _____    ______ ____
ROOT
ATOM      1  N   UNL     1      44.227   7.232  12.348  0.00  0.00    +0.000 N 
ATOM      2  H   UNL     1      43.798   7.626  13.178  0.00  0.00    +0.000 HD
ENDROOT
BRANCH   1   6
ATOM      3  C   UNL     1      49.105   7.732  11.589  0.00  0.00    +0.000 C 
ATOM      4  C   UNL     1      47.930   7.065  12.235  0.00  0.00    +0.000 A 
ATOM      5  C   UNL     1      46.620   7.468  11.955  0.00  0.00    +0.000 A 
ATOM      6  C   UNL     1      45.530   6.828  12.551  0.00  0.00    +0.000 A 
ATOM      7  N   UNL     1      45.708   5.811  13.419  0.00  0.00    +0.000 NA
ATOM      8  C   UNL     1      46.995   5.442  13.702  0.00  0.00    +0.000 A 
ATOM      9  C   UNL     1      48.119   6.030  13.141  0.00  0.00    +0.000 A 
BRANCH   8  10
ATOM     10  C   UNL     1      47.185   4.340  14.700  0.00  0.00    +0.000 C 
ATOM     11  N   UNL     1      47.095   4.704  16.014  0.00  0.00    +0.000 N 
ATOM     12  O   UNL     1      47.415   3.179  14.374  0.00  0.00    +0.000 OA
ATOM     13  H   UNL     1      46.919   5.674  16.248  0.00  0.00    +0.000 HD
ATOM     14  H   UNL     1      47.228   4.013  16.737  0.00  0.00    +0.000 HD
ENDBRANCH   8  10
ENDBRANCH   1   6
BRANCH   1  15
ATOM     15  C   UNL     1      43.364   6.622  11.353  0.00  0.00    +0.000 C 
BRANCH  15  16
ATOM     16  C   UNL     1      43.637   5.140  11.169  0.00  0.00    +0.000 A 
ATOM     17  C   UNL     1      43.017   4.210  12.000  0.00  0.00    +0.000 A 
ATOM     18  C   UNL     1      43.233   2.859  11.770  0.00  0.00    +0.000 A 
ATOM     19  C   UNL     1      44.062   2.471  10.723  0.00  0.00    +0.000 A 
ATOM     20  C   UNL     1      44.660   3.443   9.921  0.00  0.00    +0.000 A 
ATOM     21  N   UNL     1      44.461   4.770  10.151  0.00  0.00    +0.000 NA
BRANCH  20  22
ATOM     22  C   UNL     1      45.539   3.092   8.784  0.00  0.00    +0.000 A 
ATOM     23  C   UNL     1      46.001   4.067   7.876  0.00  0.00    +0.000 A 
ATOM     24  C   UNL     1      46.779   3.727   6.765  0.00  0.00    +0.000 A 
ATOM     25  C   UNL     1      47.123   2.398   6.547  0.00  0.00    +0.000 A 
ATOM     26 CL   UNL     1      48.053   1.972   5.163  0.00  0.00    +0.000 Cl
ATOM     27  C   UNL     1      46.714   1.413   7.442  0.00  0.00    +0.000 A 
ATOM     28  C   UNL     1      45.935   1.761   8.552  0.00  0.00    +0.000 A 
ENDBRANCH  20  22
ENDBRANCH  15  16
ENDBRANCH   1  15
TORSDOF 5
ENDMDL
MODEL 2
REMARK VINA RESULT:    -8.116      1.903      2.719
REMARK INTER + INTRA:         -11.064
REMARK INTER:                 -10.327
REMARK INTRA:                  -0.737
REMARK UNBOUND:                -0.576
REMARK  Name = 
REMARK  6 active torsions:
REMARK  status: ('A' for Active; 'I' for Inactive)
REMARK    1  A    between atoms: C_1  and  C_2
REMARK    2  A    between atoms: C_4  and  N_5
REMARK    3  A    between atoms: N_5  and  C_6
REMARK    4  A    between atoms: C_6  and  C_7
REMARK    5  A    between atoms: C_11  and  C_12
REMARK    6  A    between atoms: C_21  and  C_22
REMARK                            x       y       z     vdW  Elec       q    Type
REMARK                         _______ _______ _______ _____ _____    ______ ____
ROOT
ATOM      1  N   UNL     1      47.252   6.597  13.080  0.00  0.00    +0.000 N 
ATOM      2  H   UNL     1      47.912   6.918  12.381  0.00  0.00    +0.000 HD
ENDROOT
BRANCH   1   6
ATOM      3  C   UNL     1      50.129   7.785  16.944  0.00  0.00    +0.000 C 
ATOM      4  C   UNL     1      49.216   6.847  16.215  0.00  0.00    +0.000 A 
ATOM      5  C   UNL     1      48.682   7.177  14.964  0.00  0.00    +0.000 A 
ATOM      6  C   UNL     1      47.845   6.287  14.286  0.00  0.00    +0.000 A 
ATOM      7  N   UNL     1      47.521   5.091  14.818  0.00  0.00    +0.000 NA
ATOM      8  C   UNL     1      48.031   4.791  16.052  0.00  0.00    +0.000 A 
ATOM      9  C   UNL     1      48.870   5.624  16.775  0.00  0.00    +0.000 A 
BRANCH   8  10
ATOM     10  C   UNL     1      47.630   3.479  16.655  0.00  0.00    +0.000 C 
ATOM     11  N   UNL     1      48.582   2.499  16.640  0.00  0.00    +0.000 N 
ATOM     12  O   UNL     1      46.517   3.278  17.132  0.00  0.00    +0.000 OA
ATOM     13  H   UNL     1      49.486   2.694  16.224  0.00  0.00    +0.000 HD
ATOM     14  H   UNL     1      48.372   1.587  17.017  0.00  0.00    +0.000 HD
ENDBRANCH   8  10
ENDBRANCH   1   6
BRANCH   1  15
ATOM     15  C   UNL     1      45.873   7.041  12.976  0.00  0.00    +0.000 C 
BRANCH  15  16
ATOM     16  C   UNL     1      44.979   6.022  12.291  0.00  0.00    +0.000 A 
ATOM     17  C   UNL     1      43.661   5.859  12.713  0.00  0.00    +0.000 A 
ATOM     18  C   UNL     1      42.846   4.968  12.029  0.00  0.00    +0.000 A 
ATOM     19  C   UNL     1      43.364   4.263  10.949  0.00  0.00    +0.000 A 
ATOM     20  C   UNL     1      44.692   4.463  10.569  0.00  0.00    +0.000 A 
ATOM     21  N   UNL     1      45.499   5.325  11.244  0.00  0.00    +0.000 NA
BRANCH  20  22
ATOM     22  C   UNL     1      45.295   3.752   9.420  0.00  0.00    +0.000 A 
ATOM     23  C   UNL     1      45.320   2.343   9.351  0.00  0.00    +0.000 A 
ATOM     24  C   UNL     1      45.948   1.670   8.298  0.00  0.00    +0.000 A 
ATOM     25  C   UNL     1      46.553   2.398   7.280  0.00  0.00    +0.000 A 
ATOM     26 CL   UNL     1      47.353   1.572   6.000  0.00  0.00    +0.000 Cl
ATOM     27  C   UNL     1      46.517   3.789   7.297  0.00  0.00    +0.000 A 
ATOM     28  C   UNL     1      45.888   4.457   8.356  0.00  0.00    +0.000 A 
ENDBRANCH  20  22
ENDBRANCH  15  16
ENDBRANCH   1  15
TORSDOF 5
ENDMDL
MODEL 3
REMARK VINA RESULT:    -7.886      2.429      3.725
REMARK INTER + INTRA:         -10.766
REMARK INTER:                 -10.216
REMARK INTRA:                  -0.550
REMARK UNBOUND:                -0.576
REMARK  Name = 
REMARK  6 active torsions:
REMARK  status: ('A' for Active; 'I' for Inactive)
REMARK    1  A    between atoms: C_1  and  C_2
REMARK    2  A    between atoms: C_4  and  N_5
REMARK    3  A    between atoms: N_5  and  C_6
REMARK    4  A    between atoms: C_6  and  C_7
REMARK    5  A    between atoms: C_11  and  C_12
REMARK    6  A    between atoms: C_21  and  C_22
REMARK                            x       y       z     vdW  Elec       q    Type
REMARK                         _______ _______ _______ _____ _____    ______ ____
ROOT
ATOM      1  N   UNL     1      46.470   4.007  14.605  0.00  0.00    +0.000 N 
ATOM      2  H   UNL     1      46.725   3.237  13.997  0.00  0.00    +0.000 HD
ENDROOT
BRANCH   1   6
ATOM      3  C   UNL     1      47.179   5.591  19.254  0.00  0.00    +0.000 C 
ATOM      4  C   UNL     1      47.566   4.765  18.066  0.00  0.00    +0.000 A 
ATOM      5  C   UNL     1      46.825   4.805  16.879  0.00  0.00    +0.000 A 
ATOM      6  C   UNL     1      47.205   4.043  15.772  0.00  0.00    +0.000 A 
ATOM      7  N   UNL     1      48.289   3.242  15.815  0.00  0.00    +0.000 NA
ATOM      8  C   UNL     1      48.992   3.195  16.988  0.00  0.00    +0.000 A 
ATOM      9  C   UNL     1      48.673   3.929  18.121  0.00  0.00    +0.000 A 
BRANCH   8  10
ATOM     10  C   UNL     1      50.169   2.270  17.042  0.00  0.00    +0.000 C 
ATOM     11  N   UNL     1      50.984   2.403  18.132  0.00  0.00    +0.000 N 
ATOM     12  O   UNL     1      50.406   1.441  16.168  0.00  0.00    +0.000 OA
ATOM     13  H   UNL     1      50.768   3.108  18.827  0.00  0.00    +0.000 HD
ATOM     14  H   UNL     1      51.803   1.820  18.222  0.00  0.00    +0.000 HD
ENDBRANCH   8  10
ENDBRANCH   1   6
BRANCH   1  15
ATOM     15  C   UNL     1      45.900   5.199  14.001  0.00  0.00    +0.000 C 
BRANCH  15  16
ATOM     16  C   UNL     1      44.972   4.882  12.842  0.00  0.00    +0.000 A 
ATOM     17  C   UNL     1      43.609   5.148  12.951  0.00  0.00    +0.000 A 
ATOM     18  C   UNL     1      42.792   4.909  11.854  0.00  0.00    +0.000 A 
ATOM     19  C   UNL     1      43.353   4.412  10.683  0.00  0.00    +0.000 A 
ATOM     20  C   UNL     1      44.724   4.162  10.628  0.00  0.00    +0.000 A 
ATOM     21  N   UNL     1      45.527   4.381  11.705  0.00  0.00    +0.000 NA
BRANCH  20  22
ATOM     22  C   UNL     1      45.380   3.645   9.407  0.00  0.00    +0.000 A 
ATOM     23  C   UNL     1      45.892   4.512   8.419  0.00  0.00    +0.000 A 
ATOM     24  C   UNL     1      46.454   4.025   7.234  0.00  0.00    +0.000 A 
ATOM     25  C   UNL     1      46.526   2.653   7.019  0.00  0.00    +0.000 A 
ATOM     26 CL   UNL     1      47.187   2.053   5.549  0.00  0.00    +0.000 Cl
ATOM     27  C   UNL     1      46.062   1.768   7.988  0.00  0.00    +0.000 A 
ATOM     28  C   UNL     1      45.500   2.262   9.172  0.00  0.00    +0.000 A 
ENDBRANCH  20  22
ENDBRANCH  15  16
ENDBRANCH   1  15
TORSDOF 5
ENDMDL
MODEL 4
REMARK VINA RESULT:    -7.804      2.208      3.331
REMARK INTER + INTRA:         -10.662
REMARK INTER:                  -9.907
REMARK INTRA:                  -0.754
REMARK UNBOUND:                -0.576
REMARK  Name = 
REMARK  6 active torsions:
REMARK  status: ('A' for Active; 'I' for Inactive)
REMARK    1  A    between atoms: C_1  and  C_2
REMARK    2  A    between atoms: C_4  and  N_5
REMARK    3  A    between atoms: N_5  and  C_6
REMARK    4  A    between atoms: C_6  and  C_7
REMARK    5  A    between atoms: C_11  and  C_12
REMARK    6  A    between atoms: C_21  and  C_22
REMARK                            x       y       z     vdW  Elec       q    Type
REMARK                         _______ _______ _______ _____ _____    ______ ____
ROOT
ATOM      1  N   UNL     1      47.305   5.625  13.339  0.00  0.00    +0.000 N 
ATOM      2  H   UNL     1      47.810   4.848  12.927  0.00  0.00    +0.000 HD
ENDROOT
BRANCH   1   6
ATOM      3  C   UNL     1      50.755   8.586  11.350  0.00  0.00    +0.000 C 
ATOM      4  C   UNL     1      49.368   8.324  11.853  0.00  0.00    +0.000 A 
ATOM      5  C   UNL     1      49.008   7.080  12.382  0.00  0.00    +0.000 A 
ATOM      6  C   UNL     1      47.717   6.853  12.864  0.00  0.00    +0.000 A 
ATOM      7  N   UNL     1      46.778   7.820  12.825  0.00  0.00    +0.000 NA
ATOM      8  C   UNL     1      47.136   9.025  12.284  0.00  0.00    +0.000 A 
ATOM      9  C   UNL     1      48.400   9.318  11.794  0.00  0.00    +0.000 A 
BRANCH   8  10
ATOM     10  C   UNL     1      46.074  10.080  12.204  0.00  0.00    +0.000 C 
ATOM     11  N   UNL     1      44.837   9.717  12.657  0.00  0.00    +0.000 N 
ATOM     12  O   UNL     1      46.285  11.204  11.757  0.00  0.00    +0.000 OA
ATOM     13  H   UNL     1      44.694   8.776  13.005  0.00  0.00    +0.000 HD
ATOM     14  H   UNL     1      44.074  10.375  12.617  0.00  0.00    +0.000 HD
ENDBRANCH   8  10
ENDBRANCH   1   6
BRANCH   1  15
ATOM     15  C   UNL     1      45.959   5.386  13.829  0.00  0.00    +0.000 C 
BRANCH  15  16
ATOM     16  C   UNL     1      45.010   4.924  12.737  0.00  0.00    +0.000 A 
ATOM     17  C   UNL     1      43.635   5.069  12.904  0.00  0.00    +0.000 A 
ATOM     18  C   UNL     1      42.793   4.699  11.865  0.00  0.00    +0.000 A 
ATOM     19  C   UNL     1      43.341   4.193  10.692  0.00  0.00    +0.000 A 
ATOM     20  C   UNL     1      44.726   4.067  10.577  0.00  0.00    +0.000 A 
ATOM     21  N   UNL     1      45.555   4.415  11.598  0.00  0.00    +0.000 NA
BRANCH  20  22
ATOM     22  C   UNL     1      45.368   3.548   9.349  0.00  0.00    +0.000 A 
ATOM     23  C   UNL     1      45.505   2.164   9.114  0.00  0.00    +0.000 A 
ATOM     24  C   UNL     1      46.170   1.673   7.985  0.00  0.00    +0.000 A 
ATOM     25  C   UNL     1      46.701   2.562   7.058  0.00  0.00    +0.000 A 
ATOM     26 CL   UNL     1      47.546   1.961   5.685  0.00  0.00    +0.000 Cl
ATOM     27  C   UNL     1      46.554   3.934   7.241  0.00  0.00    +0.000 A 
ATOM     28  C   UNL     1      45.888   4.419   8.374  0.00  0.00    +0.000 A 
ENDBRANCH  20  22
ENDBRANCH  15  16
ENDBRANCH   1  15
TORSDOF 5
ENDMDL
MODEL 5
REMARK VINA RESULT:    -7.721      2.564      4.038
REMARK INTER + INTRA:         -10.554
REMARK INTER:                 -10.012
REMARK INTRA:                  -0.543
REMARK UNBOUND:                -0.576
REMARK  Name = 
REMARK  6 active torsions:
REMARK  status: ('A' for Active; 'I' for Inactive)
REMARK    1  A    between atoms: C_1  and  C_2
REMARK    2  A    between atoms: C_4  and  N_5
REMARK    3  A    between atoms: N_5  and  C_6
REMARK    4  A    between atoms: C_6  and  C_7
REMARK    5  A    between atoms: C_11  and  C_12
REMARK    6  A    between atoms: C_21  and  C_22
REMARK                            x       y       z     vdW  Elec       q    Type
REMARK                         _______ _______ _______ _____ _____    ______ ____
ROOT
ATOM      1  N   UNL     1      46.718   3.674  14.739  0.00  0.00    +0.000 N 
ATOM      2  H   UNL     1      46.863   2.846  14.172  0.00  0.00    +0.000 HD
ENDROOT
BRANCH   1   6
ATOM      3  C   UNL     1      50.508   1.968  17.450  0.00  0.00    +0.000 C 
ATOM      4  C   UNL     1      49.367   2.912  17.219  0.00  0.00    +0.000 A 
ATOM      5  C   UNL     1      48.566   2.819  16.076  0.00  0.00    +0.000 A 
ATOM      6  C   UNL     1      47.495   3.693  15.879  0.00  0.00    +0.000 A 
ATOM      7  N   UNL     1      47.206   4.655  16.779  0.00  0.00    +0.000 NA
ATOM      8  C   UNL     1      48.011   4.750  17.881  0.00  0.00    +0.000 A 
ATOM      9  C   UNL     1      49.084   3.912  18.140  0.00  0.00    +0.000 A 
BRANCH   8  10
ATOM     10  C   UNL     1      47.709   5.850  18.854  0.00  0.00    +0.000 C 
ATOM     11  N   UNL     1      47.104   5.468  20.018  0.00  0.00    +0.000 N 
ATOM     12  O   UNL     1      47.978   7.027  18.631  0.00  0.00    +0.000 OA
ATOM     13  H   UNL     1      46.882   4.490  20.162  0.00  0.00    +0.000 HD
ATOM     14  H   UNL     1      46.860   6.162  20.709  0.00  0.00    +0.000 HD
ENDBRANCH   8  10
ENDBRANCH   1   6
BRANCH   1  15
ATOM     15  C   UNL     1      46.262   4.885  14.081  0.00  0.00    +0.000 C 
BRANCH  15  16
ATOM     16  C   UNL     1      45.240   4.612  12.991  0.00  0.00    +0.000 A 
ATOM     17  C   UNL     1      43.888   4.840  13.233  0.00  0.00    +0.000 A 
ATOM     18  C   UNL     1      42.982   4.643  12.200  0.00  0.00    +0.000 A 
ATOM     19  C   UNL     1      43.446   4.223  10.959  0.00  0.00    +0.000 A 
ATOM     20  C   UNL     1      44.811   4.007  10.771  0.00  0.00    +0.000 A 
ATOM     21  N   UNL     1      45.702   4.185  11.784  0.00  0.00    +0.000 NA
BRANCH  20  22
ATOM     22  C   UNL     1      45.366   3.572   9.470  0.00  0.00    +0.000 A 
ATOM     23  C   UNL     1      45.489   2.208   9.136  0.00  0.00    +0.000 A 
ATOM     24  C   UNL     1      46.073   1.795   7.934  0.00  0.00    +0.000 A 
ATOM     25  C   UNL     1      46.535   2.746   7.031  0.00  0.00    +0.000 A 
ATOM     26 CL   UNL     1      47.282   2.240   5.566  0.00  0.00    +0.000 Cl
ATOM     27  C   UNL     1      46.397   4.102   7.312  0.00  0.00    +0.000 A 
ATOM     28  C   UNL     1      45.812   4.508   8.518  0.00  0.00    +0.000 A 
ENDBRANCH  20  22
ENDBRANCH  15  16
ENDBRANCH   1  15
TORSDOF 5
ENDMDL
MODEL 6
REMARK VINA RESULT:    -7.554      2.346      3.226
REMARK INTER + INTRA:         -10.338
REMARK INTER:                  -9.709
REMARK INTRA:                  -0.629
REMARK UNBOUND:                -0.576
REMARK  Name = 
REMARK  6 active torsions:
REMARK  status: ('A' for Active; 'I' for Inactive)
REMARK    1  A    between atoms: C_1  and  C_2
REMARK    2  A    between atoms: C_4  and  N_5
REMARK    3  A    between atoms: N_5  and  C_6
REMARK    4  A    between atoms: C_6  and  C_7
REMARK    5  A    between atoms: C_11  and  C_12
REMARK    6  A    between atoms: C_21  and  C_22
REMARK                            x       y       z     vdW  Elec       q    Type
REMARK                         _______ _______ _______ _____ _____    ______ ____
ROOT
ATOM      1  N   UNL     1      47.256   5.300  13.538  0.00  0.00    +0.000 N 
ATOM      2  H   UNL     1      47.816   4.506  13.248  0.00  0.00    +0.000 HD
ENDROOT
BRANCH   1   6
ATOM      3  C   UNL     1      46.351   9.955  12.077  0.00  0.00    +0.000 C 
ATOM      4  C   UNL     1      47.266   8.784  12.270  0.00  0.00    +0.000 A 
ATOM      5  C   UNL     1      46.801   7.577  12.803  0.00  0.00    +0.000 A 
ATOM      6  C   UNL     1      47.659   6.486  12.963  0.00  0.00    +0.000 A 
ATOM      7  N   UNL     1      48.961   6.567  12.618  0.00  0.00    +0.000 NA
ATOM      8  C   UNL     1      49.408   7.761  12.120  0.00  0.00    +0.000 A 
ATOM      9  C   UNL     1      48.609   8.878  11.930  0.00  0.00    +0.000 A 
BRANCH   8  10
ATOM     10  C   UNL     1      50.865   7.855  11.781  0.00  0.00    +0.000 C 
ATOM     11  N   UNL     1      51.698   8.184  12.813  0.00  0.00    +0.000 N 
ATOM     12  O   UNL     1      51.299   7.659  10.649  0.00  0.00    +0.000 OA
ATOM     13  H   UNL     1      51.305   8.354  13.731  0.00  0.00    +0.000 HD
ATOM     14  H   UNL     1      52.689   8.278  12.649  0.00  0.00    +0.000 HD
ENDBRANCH   8  10
ENDBRANCH   1   6
BRANCH   1  15
ATOM     15  C   UNL     1      45.887   5.057  13.957  0.00  0.00    +0.000 C 
BRANCH  15  16
ATOM     16  C   UNL     1      44.955   4.787  12.789  0.00  0.00    +0.000 A 
ATOM     17  C   UNL     1      43.603   5.107  12.890  0.00  0.00    +0.000 A 
ATOM     18  C   UNL     1      42.785   4.910  11.787  0.00  0.00    +0.000 A 
ATOM     19  C   UNL     1      43.334   4.398  10.616  0.00  0.00    +0.000 A 
ATOM     20  C   UNL     1      44.694   4.093  10.568  0.00  0.00    +0.000 A 
ATOM     21  N   UNL     1      45.497   4.272  11.652  0.00  0.00    +0.000 NA
BRANCH  20  22
ATOM     22  C   UNL     1      45.337   3.559   9.347  0.00  0.00    +0.000 A 
ATOM     23  C   UNL     1      45.462   2.173   9.123  0.00  0.00    +0.000 A 
ATOM     24  C   UNL     1      46.127   1.667   8.000  0.00  0.00    +0.000 A 
ATOM     25  C   UNL     1      46.671   2.545   7.069  0.00  0.00    +0.000 A 
ATOM     26 CL   UNL     1      47.517   1.926   5.705  0.00  0.00    +0.000 Cl
ATOM     27  C   UNL     1      46.535   3.919   7.242  0.00  0.00    +0.000 A 
ATOM     28  C   UNL     1      45.869   4.419   8.368  0.00  0.00    +0.000 A 
ENDBRANCH  20  22
ENDBRANCH  15  16
ENDBRANCH   1  15
TORSDOF 5
ENDMDL
MODEL 7
REMARK VINA RESULT:    -7.507      1.532      2.020
REMARK INTER + INTRA:         -10.278
REMARK INTER:                  -9.507
REMARK INTRA:                  -0.771
REMARK UNBOUND:                -0.576
REMARK  Name = 
REMARK  6 active torsions:
REMARK  status: ('A' for Active; 'I' for Inactive)
REMARK    1  A    between atoms: C_1  and  C_2
REMARK    2  A    between atoms: C_4  and  N_5
REMARK    3  A    between atoms: N_5  and  C_6
REMARK    4  A    between atoms: C_6  and  C_7
REMARK    5  A    between atoms: C_11  and  C_12
REMARK    6  A    between atoms: C_21  and  C_22
REMARK                            x       y       z     vdW  Elec       q    Type
REMARK                         _______ _______ _______ _____ _____    ______ ____
ROOT
ATOM      1  N   UNL     1      46.277   7.752  11.789  0.00  0.00    +0.000 N 
ATOM      2  H   UNL     1      46.302   8.459  11.063  0.00  0.00    +0.000 HD
ENDROOT
BRANCH   1   6
ATOM      3  C   UNL     1      51.092   8.809  12.358  0.00  0.00    +0.000 C 
ATOM      4  C   UNL     1      49.816   8.172  12.816  0.00  0.00    +0.000 A 
ATOM      5  C   UNL     1      48.646   8.256  12.052  0.00  0.00    +0.000 A 
ATOM      6  C   UNL     1      47.465   7.644  12.481  0.00  0.00    +0.000 A 
ATOM      7  N   UNL     1      47.416   6.963  13.644  0.00  0.00    +0.000 NA
ATOM      8  C   UNL     1      48.560   6.908  14.392  0.00  0.00    +0.000 A 
ATOM      9  C   UNL     1      49.765   7.487  14.023  0.00  0.00    +0.000 A 
BRANCH   8  10
ATOM     10  C   UNL     1      48.484   6.188  15.704  0.00  0.00    +0.000 C 
ATOM     11  N   UNL     1      48.586   6.968  16.821  0.00  0.00    +0.000 N 
ATOM     12  O   UNL     1      48.346   4.971  15.788  0.00  0.00    +0.000 OA
ATOM     13  H   UNL     1      48.716   7.968  16.715  0.00  0.00    +0.000 HD
ATOM     14  H   UNL     1      48.558   6.544  17.736  0.00  0.00    +0.000 HD
ENDBRANCH   8  10
ENDBRANCH   1   6
BRANCH   1  15
ATOM     15  C   UNL     1      44.993   7.420  12.380  0.00  0.00    +0.000 C 
BRANCH  15  16
ATOM     16  C   UNL     1      44.507   6.036  11.986  0.00  0.00    +0.000 A 
ATOM     17  C   UNL     1      43.458   5.443  12.686  0.00  0.00    +0.000 A 
ATOM     18  C   UNL     1      42.991   4.205  12.266  0.00  0.00    +0.000 A 
ATOM     19  C   UNL     1      43.580   3.592  11.167  0.00  0.00    +0.000 A 
ATOM     20  C   UNL     1      44.629   4.229  10.503  0.00  0.00    +0.000 A 
ATOM     21  N   UNL     1      45.100   5.436  10.918  0.00  0.00    +0.000 NA
BRANCH  20  22
ATOM     22  C   UNL     1      45.287   3.632   9.319  0.00  0.00    +0.000 A 
ATOM     23  C   UNL     1      45.421   2.236   9.173  0.00  0.00    +0.000 A 
ATOM     24  C   UNL     1      46.100   1.674   8.086  0.00  0.00    +0.000 A 
ATOM     25  C   UNL     1      46.648   2.502   7.113  0.00  0.00    +0.000 A 
ATOM     26 CL   UNL     1      47.511   1.814   5.793  0.00  0.00    +0.000 Cl
ATOM     27  C   UNL     1      46.503   3.883   7.208  0.00  0.00    +0.000 A 
ATOM     28  C   UNL     1      45.824   4.440   8.299  0.00  0.00    +0.000 A 
ENDBRANCH  20  22
ENDBRANCH  15  16
ENDBRANCH   1  15
TORSDOF 5
ENDMDL
MODEL 8
REMARK VINA RESULT:    -7.454      5.105      8.486
REMARK INTER + INTRA:         -10.209
REMARK INTER:                  -9.496
REMARK INTRA:                  -0.713
REMARK UNBOUND:                -0.576
REMARK  Name = 
REMARK  6 active torsions:
REMARK  status: ('A' for Active; 'I' for Inactive)
REMARK    1  A    between atoms: C_1  and  C_2
REMARK    2  A    between atoms: C_4  and  N_5
REMARK    3  A    between atoms: N_5  and  C_6
REMARK    4  A    between atoms: C_6  and  C_7
REMARK    5  A    between atoms: C_11  and  C_12
REMARK    6  A    between atoms: C_21  and  C_22
REMARK                            x       y       z     vdW  Elec       q    Type
REMARK                         _______ _______ _______ _____ _____    ______ ____
ROOT
ATOM      1  N   UNL     1      47.066   3.621  15.015  0.00  0.00    +0.000 N 
ATOM      2  H   UNL     1      46.982   2.612  14.968  0.00  0.00    +0.000 HD
ENDROOT
BRANCH   1   6
ATOM      3  C   UNL     1      46.950   7.480  11.897  0.00  0.00    +0.000 C 
ATOM      4  C   UNL     1      46.509   6.114  12.327  0.00  0.00    +0.000 A 
ATOM      5  C   UNL     1      46.997   5.527  13.499  0.00  0.00    +0.000 A 
ATOM      6  C   UNL     1      46.567   4.260  13.899  0.00  0.00    +0.000 A 
ATOM      7  N   UNL     1      45.676   3.563  13.165  0.00  0.00    +0.000 NA
ATOM      8  C   UNL     1      45.224   4.138  12.009  0.00  0.00    +0.000 A 
ATOM      9  C   UNL     1      45.605   5.392  11.558  0.00  0.00    +0.000 A 
BRANCH   8  10
ATOM     10  C   UNL     1      44.268   3.338  11.177  0.00  0.00    +0.000 C 
ATOM     11  N   UNL     1      44.828   2.376  10.384  0.00  0.00    +0.000 N 
ATOM     12  O   UNL     1      43.055   3.526  11.190  0.00  0.00    +0.000 OA
ATOM     13  H   UNL     1      45.835   2.258  10.385  0.00  0.00    +0.000 HD
ATOM     14  H   UNL     1      44.242   1.812   9.787  0.00  0.00    +0.000 HD
ENDBRANCH   8  10
ENDBRANCH   1   6
BRANCH   1  15
ATOM     15  C   UNL     1      47.103   4.246  16.325  0.00  0.00    +0.000 C 
BRANCH  15  16
ATOM     16  C   UNL     1      48.494   4.715  16.713  0.00  0.00    +0.000 A 
ATOM     17  C   UNL     1      48.766   6.077  16.815  0.00  0.00    +0.000 A 
ATOM     18  C   UNL     1      50.027   6.477  17.234  0.00  0.00    +0.000 A 
ATOM     19  C   UNL     1      50.982   5.513  17.536  0.00  0.00    +0.000 A 
ATOM     20  C   UNL     1      50.658   4.161  17.415  0.00  0.00    +0.000 A 
ATOM     21  N   UNL     1      49.428   3.764  16.992  0.00  0.00    +0.000 NA
BRANCH  20  22
ATOM     22  C   UNL     1      51.627   3.090  17.735  0.00  0.00    +0.000 A 
ATOM     23  C   UNL     1      52.844   3.365  18.393  0.00  0.00    +0.000 A 
ATOM     24  C   UNL     1      53.789   2.364  18.638  0.00  0.00    +0.000 A 
ATOM     25  C   UNL     1      53.529   1.058  18.238  0.00  0.00    +0.000 A 
ATOM     26 CL   UNL     1      54.704  -0.169  18.510  0.00  0.00    +0.000 Cl
ATOM     27  C   UNL     1      52.323   0.745  17.617  0.00  0.00    +0.000 A 
ATOM     28  C   UNL     1      51.381   1.752  17.374  0.00  0.00    +0.000 A 
ENDBRANCH  20  22
ENDBRANCH  15  16
ENDBRANCH   1  15
TORSDOF 5
ENDMDL
MODEL 9
REMARK VINA RESULT:    -7.322      1.829      2.699
REMARK INTER + INTRA:         -10.039
REMARK INTER:                  -9.583
REMARK INTRA:                  -0.456
REMARK UNBOUND:                -0.576
REMARK  Name = 
REMARK  6 active torsions:
REMARK  status: ('A' for Active; 'I' for Inactive)
REMARK    1  A    between atoms: C_1  and  C_2
REMARK    2  A    between atoms: C_4  and  N_5
REMARK    3  A    between atoms: N_5  and  C_6
REMARK    4  A    between atoms: C_6  and  C_7
REMARK    5  A    between atoms: C_11  and  C_12
REMARK    6  A    between atoms: C_21  and  C_22
REMARK                            x       y       z     vdW  Elec       q    Type
REMARK                         _______ _______ _______ _____ _____    ______ ____
ROOT
ATOM      1  N   UNL     1      44.901   7.113  11.531  0.00  0.00    +0.000 N 
ATOM      2  H   UNL     1      44.856   8.070  11.200  0.00  0.00    +0.000 HD
ENDROOT
BRANCH   1   6
ATOM      3  C   UNL     1      47.193   4.498  15.072  0.00  0.00    +0.000 C 
ATOM      4  C   UNL     1      47.161   5.588  14.045  0.00  0.00    +0.000 A 
ATOM      5  C   UNL     1      46.014   5.839  13.285  0.00  0.00    +0.000 A 
ATOM      6  C   UNL     1      45.990   6.870  12.342  0.00  0.00    +0.000 A 
ATOM      7  N   UNL     1      47.073   7.646  12.130  0.00  0.00    +0.000 NA
ATOM      8  C   UNL     1      48.196   7.375  12.864  0.00  0.00    +0.000 A 
ATOM      9  C   UNL     1      48.284   6.373  13.818  0.00  0.00    +0.000 A 
BRANCH   8  10
ATOM     10  C   UNL     1      49.408   8.214  12.591  0.00  0.00    +0.000 C 
ATOM     11  N   UNL     1      50.188   7.812  11.543  0.00  0.00    +0.000 N 
ATOM     12  O   UNL     1      49.699   9.200  13.261  0.00  0.00    +0.000 OA
ATOM     13  H   UNL     1      49.926   6.984  11.021  0.00  0.00    +0.000 HD
ATOM     14  H   UNL     1      51.027   8.325  11.316  0.00  0.00    +0.000 HD
ENDBRANCH   8  10
ENDBRANCH   1   6
BRANCH   1  15
ATOM     15  C   UNL     1      43.660   6.366  11.642  0.00  0.00    +0.000 C 
BRANCH  15  16
ATOM     16  C   UNL     1      43.830   4.893  11.313  0.00  0.00    +0.000 A 
ATOM     17  C   UNL     1      43.183   3.930  12.083  0.00  0.00    +0.000 A 
ATOM     18  C   UNL     1      43.303   2.596  11.723  0.00  0.00    +0.000 A 
ATOM     19  C   UNL     1      44.065   2.256  10.611  0.00  0.00    +0.000 A 
ATOM     20  C   UNL     1      44.694   3.261   9.875  0.00  0.00    +0.000 A 
ATOM     21  N   UNL     1      44.591   4.569  10.231  0.00  0.00    +0.000 NA
BRANCH  20  22
ATOM     22  C   UNL     1      45.506   2.963   8.674  0.00  0.00    +0.000 A 
ATOM     23  C   UNL     1      45.992   1.665   8.413  0.00  0.00    +0.000 A 
ATOM     24  C   UNL     1      46.814   1.396   7.314  0.00  0.00    +0.000 A 
ATOM     25  C   UNL     1      47.155   2.423   6.441  0.00  0.00    +0.000 A 
ATOM     26 CL   UNL     1      48.192   2.101   5.106  0.00  0.00    +0.000 Cl
ATOM     27  C   UNL     1      46.664   3.709   6.649  0.00  0.00    +0.000 A 
ATOM     28  C   UNL     1      45.843   3.972   7.753  0.00  0.00    +0.000 A 
ENDBRANCH  20  22
ENDBRANCH  15  16
ENDBRANCH   1  15
TORSDOF 5
ENDMDL
