MODEL 1
REMARK VINA RESULT:    -8.675      0.000      0.000
REMARK INTER + INTRA:         -12.022
REMARK INTER:                 -11.211
REMARK INTRA:                  -0.811
REMARK UNBOUND:                -0.811
REMARK  Name = 
REMARK  5 active torsions:
REMARK  status: ('A' for Active; 'I' for Inactive)
REMARK    1  A    between atoms: C_2  and  C_4
REMARK    2  A    between atoms: C_7  and  N_8
REMARK    3  A    between atoms: N_8  and  C_9
REMARK    4  A    between atoms: C_9  and  C_10
REMARK    5  A    between atoms: C_14  and  C_15
REMARK                            x       y       z     vdW  Elec       q    Type
REMARK                         _______ _______ _______ _____ _____    ______ ____
ROOT
ATOM      1  C   UNL     1      43.649   4.559  11.146  0.00  0.00    +0.000 C 
ENDROOT
BRANCH   1   2
ATOM      2  C   UNL     1      44.864   4.938  11.965  0.00  0.00    +0.000 A 
ATOM      3  C   UNL     1      45.439   4.023  12.853  0.00  0.00    +0.000 A 
ATOM      4  C   UNL     1      46.571   4.373  13.586  0.00  0.00    +0.000 A 
ATOM      5  C   UNL     1      47.147   5.637  13.427  0.00  0.00    +0.000 A 
ATOM      6  C   UNL     1      46.615   6.577  12.528  0.00  0.00    +0.000 A 
ATOM      7  C   UNL     1      45.448   6.211  11.827  0.00  0.00    +0.000 A 
BRANCH   6   8
ATOM      8  C   UNL     1      47.304   7.860  12.246  0.00  0.00    +0.000 A 
ATOM      9  C   UNL     1      48.665   7.880  11.874  0.00  0.00    +0.000 A 
ATOM     10  C   UNL     1      49.303   9.064  11.495  0.00  0.00    +0.000 A 
ATOM     11  C   UNL     1      48.586  10.251  11.478  0.00  0.00    +0.000 A 
ATOM     12  F   UNL     1      49.184  11.380  11.077  0.00  0.00    +0.000 F 
ATOM     13  C   UNL     1      47.252  10.278  11.862  0.00  0.00    +0.000 A 
ATOM     14  C   UNL     1      46.620   9.092  12.254  0.00  0.00    +0.000 A 
ENDBRANCH   6   8
ENDBRANCH   1   2
BRANCH   1  15
ATOM     15  N   UNL     1      43.862   4.944   9.757  0.00  0.00    +0.000 N 
ATOM     16  H   UNL     1      44.166   5.909   9.679  0.00  0.00    +0.000 HD
BRANCH  15  20
ATOM     17  C   UNL     1      46.399   2.350   7.814  0.00  0.00    +0.000 A 
ATOM     18  C   UNL     1      46.481   3.714   7.592  0.00  0.00    +0.000 A 
ATOM     19  N   UNL     1      45.652   4.604   8.203  0.00  0.00    +0.000 NA
ATOM     20  C   UNL     1      44.727   4.097   9.047  0.00  0.00    +0.000 A 
ATOM     21  C   UNL     1      44.663   2.710   9.257  0.00  0.00    +0.000 A 
ATOM     22  N   UNL     1      45.479   1.803   8.653  0.00  0.00    +0.000 NA
BRANCH  17  24
ATOM     23  N   UNL     1      48.419   2.022   6.523  0.00  0.00    +0.000 N 
ATOM     24  C   UNL     1      47.347   1.427   7.129  0.00  0.00    +0.000 C 
ATOM     25  O   UNL     1      47.178   0.215   7.103  0.00  0.00    +0.000 OA
ATOM     26  H   UNL     1      49.090   1.455   6.023  0.00  0.00    +0.000 HD
ATOM     27  H   UNL     1      48.519   3.031   6.547  0.00  0.00    +0.000 HD
ENDBRANCH  17  24
ENDBRANCH  15  20
ENDBRANCH   1  15
TORSDOF 5
ENDMDL
MODEL 2
REMARK VINA RESULT:    -8.530      2.663      4.032
REMARK INTER + INTRA:         -11.834
REMARK INTER:                 -11.062
REMARK INTRA:                  -0.773
REMARK UNBOUND:                -0.811
REMARK  Name = 
REMARK  5 active torsions:
REMARK  status: ('A' for Active; 'I' for Inactive)
REMARK    1  A    between atoms: C_2  and  C_4
REMARK    2  A    between atoms: C_7  and  N_8
REMARK    3  A    between atoms: N_8  and  C_9
REMARK    4  A    between atoms: C_9  and  C_10
REMARK    5  A    between atoms: C_14  and  C_15
REMARK                            x       y       z     vdW  Elec       q    Type
REMARK                         _______ _______ _______ _____ _____    ______ ____
ROOT
ATOM      1  C   UNL     1      43.875   4.576  11.310  0.00  0.00    +0.000 C 
ENDROOT
BRANCH   1   2
ATOM      2  C   UNL     1      45.061   5.330  11.871  0.00  0.00    +0.000 A 
ATOM      3  C   UNL     1      45.456   6.551  11.317  0.00  0.00    +0.000 A 
ATOM      4  C   UNL     1      46.534   7.250  11.854  0.00  0.00    +0.000 A 
ATOM      5  C   UNL     1      47.221   6.740  12.961  0.00  0.00    +0.000 A 
ATOM      6  C   UNL     1      46.841   5.528  13.563  0.00  0.00    +0.000 A 
ATOM      7  C   UNL     1      45.771   4.823  12.976  0.00  0.00    +0.000 A 
BRANCH   6   8
ATOM      8  C   UNL     1      47.467   5.055  14.822  0.00  0.00    +0.000 A 
ATOM      9  C   UNL     1      48.319   5.899  15.564  0.00  0.00    +0.000 A 
ATOM     10  C   UNL     1      48.829   5.516  16.808  0.00  0.00    +0.000 A 
ATOM     11  C   UNL     1      48.489   4.278  17.332  0.00  0.00    +0.000 A 
ATOM     12  F   UNL     1      48.943   3.925  18.541  0.00  0.00    +0.000 F 
ATOM     13  C   UNL     1      47.674   3.408  16.622  0.00  0.00    +0.000 A 
ATOM     14  C   UNL     1      47.176   3.790  15.371  0.00  0.00    +0.000 A 
ENDBRANCH   6   8
ENDBRANCH   1   2
BRANCH   1  15
ATOM     15  N   UNL     1      43.803   4.789   9.871  0.00  0.00    +0.000 N 
ATOM     16  H   UNL     1      43.930   5.767   9.631  0.00  0.00    +0.000 HD
BRANCH  15  20
ATOM     17  C   UNL     1      46.367   2.314   7.811  0.00  0.00    +0.000 A 
ATOM     18  C   UNL     1      46.358   3.677   7.570  0.00  0.00    +0.000 A 
ATOM     19  N   UNL     1      45.517   4.528   8.219  0.00  0.00    +0.000 NA
ATOM     20  C   UNL     1      44.672   3.982   9.121  0.00  0.00    +0.000 A 
ATOM     21  C   UNL     1      44.700   2.596   9.349  0.00  0.00    +0.000 A 
ATOM     22  N   UNL     1      45.530   1.728   8.708  0.00  0.00    +0.000 NA
BRANCH  17  24
ATOM     23  N   UNL     1      48.416   2.066   6.547  0.00  0.00    +0.000 N 
ATOM     24  C   UNL     1      47.325   1.436   7.082  0.00  0.00    +0.000 C 
ATOM     25  O   UNL     1      47.149   0.231   6.962  0.00  0.00    +0.000 OA
ATOM     26  H   UNL     1      49.095   1.532   6.022  0.00  0.00    +0.000 HD
ATOM     27  H   UNL     1      48.522   3.069   6.648  0.00  0.00    +0.000 HD
ENDBRANCH  17  24
ENDBRANCH  15  20
ENDBRANCH   1  15
TORSDOF 5
ENDMDL
MODEL 3
REMARK VINA RESULT:    -8.245      4.142      6.806
REMARK INTER + INTRA:         -11.466
REMARK INTER:                 -10.659
REMARK INTRA:                  -0.807
REMARK UNBOUND:                -0.811
REMARK  Name = 
REMARK  5 active torsions:
REMARK  status: ('A' for Active; 'I' for Inactive)
REMARK    1  A    between atoms: C_2  and  C_4
REMARK    2  A    between atoms: C_7  and  N_8
REMARK    3  A    between atoms: N_8  and  C_9
REMARK    4  A    between atoms: C_9  and  C_10
REMARK    5  A    between atoms: C_14  and  C_15
REMARK                            x       y       z     vdW  Elec       q    Type
REMARK                         _______ _______ _______ _____ _____    ______ ____
ROOT
ATOM      1  C   UNL     1      43.386   6.320  11.088  0.00  0.00    +0.000 C 
ENDROOT
BRANCH   1   2
ATOM      2  C   UNL     1      43.692   4.861  10.834  0.00  0.00    +0.000 A 
ATOM      3  C   UNL     1      43.080   3.860  11.596  0.00  0.00    +0.000 A 
ATOM      4  C   UNL     1      43.351   2.518  11.340  0.00  0.00    +0.000 A 
ATOM      5  C   UNL     1      44.226   2.163  10.309  0.00  0.00    +0.000 A 
ATOM      6  C   UNL     1      44.843   3.136   9.504  0.00  0.00    +0.000 A 
ATOM      7  C   UNL     1      44.582   4.487   9.810  0.00  0.00    +0.000 A 
BRANCH   6   8
ATOM      8  C   UNL     1      45.654   2.765   8.318  0.00  0.00    +0.000 A 
ATOM      9  C   UNL     1      45.928   3.711   7.308  0.00  0.00    +0.000 A 
ATOM     10  C   UNL     1      46.781   3.417   6.241  0.00  0.00    +0.000 A 
ATOM     11  C   UNL     1      47.380   2.168   6.170  0.00  0.00    +0.000 A 
ATOM     12  F   UNL     1      48.229   1.897   5.171  0.00  0.00    +0.000 F 
ATOM     13  C   UNL     1      47.116   1.201   7.130  0.00  0.00    +0.000 A 
ATOM     14  C   UNL     1      46.251   1.494   8.190  0.00  0.00    +0.000 A 
ENDBRANCH   6   8
ENDBRANCH   1   2
BRANCH   1  15
ATOM     15  N   UNL     1      43.807   6.676  12.436  0.00  0.00    +0.000 N 
ATOM     16  H   UNL     1      43.424   6.040  13.129  0.00  0.00    +0.000 HD
BRANCH  15  20
ATOM     17  C   UNL     1      47.867   6.941  13.062  0.00  0.00    +0.000 A 
ATOM     18  C   UNL     1      47.193   7.939  12.380  0.00  0.00    +0.000 A 
ATOM     19  N   UNL     1      45.855   7.884  12.140  0.00  0.00    +0.000 NA
ATOM     20  C   UNL     1      45.196   6.796  12.597  0.00  0.00    +0.000 A 
ATOM     21  C   UNL     1      45.902   5.796  13.287  0.00  0.00    +0.000 A 
ATOM     22  N   UNL     1      47.240   5.830  13.533  0.00  0.00    +0.000 NA
BRANCH  17  24
ATOM     23  N   UNL     1      50.101   7.301  12.204  0.00  0.00    +0.000 N 
ATOM     24  C   UNL     1      49.331   7.067  13.310  0.00  0.00    +0.000 C 
ATOM     25  O   UNL     1      49.818   6.963  14.429  0.00  0.00    +0.000 OA
ATOM     26  H   UNL     1      51.104   7.378  12.299  0.00  0.00    +0.000 HD
ATOM     27  H   UNL     1      49.667   7.363  11.289  0.00  0.00    +0.000 HD
ENDBRANCH  17  24
ENDBRANCH  15  20
ENDBRANCH   1  15
TORSDOF 5
ENDMDL
MODEL 4
REMARK VINA RESULT:    -8.089      1.424      1.693
REMARK INTER + INTRA:         -11.265
REMARK INTER:                 -10.418
REMARK INTRA:                  -0.847
REMARK UNBOUND:                -0.811
REMARK  Name = 
REMARK  5 active torsions:
REMARK  status: ('A' for Active; 'I' for Inactive)
REMARK    1  A    between atoms: C_2  and  C_4
REMARK    2  A    between atoms: C_7  and  N_8
REMARK    3  A    between atoms: N_8  and  C_9
REMARK    4  A    between atoms: C_9  and  C_10
REMARK    5  A    between atoms: C_14  and  C_15
REMARK                            x       y       z     vdW  Elec       q    Type
REMARK                         _______ _______ _______ _____ _____    ______ ____
ROOT
ATOM      1  C   UNL     1      44.254   5.832  10.636  0.00  0.00    +0.000 C 
ENDROOT
BRANCH   1   2
ATOM      2  C   UNL     1      45.260   5.670  11.754  0.00  0.00    +0.000 A 
ATOM      3  C   UNL     1      45.077   4.699  12.744  0.00  0.00    +0.000 A 
ATOM      4  C   UNL     1      46.020   4.542  13.757  0.00  0.00    +0.000 A 
ATOM      5  C   UNL     1      47.164   5.347  13.783  0.00  0.00    +0.000 A 
ATOM      6  C   UNL     1      47.398   6.318  12.794  0.00  0.00    +0.000 A 
ATOM      7  C   UNL     1      46.409   6.482  11.803  0.00  0.00    +0.000 A 
BRANCH   6   8
ATOM      8  C   UNL     1      48.674   7.071  12.731  0.00  0.00    +0.000 A 
ATOM      9  C   UNL     1      49.111   7.647  11.519  0.00  0.00    +0.000 A 
ATOM     10  C   UNL     1      50.251   8.455  11.461  0.00  0.00    +0.000 A 
ATOM     11  C   UNL     1      50.971   8.703  12.620  0.00  0.00    +0.000 A 
ATOM     12  F   UNL     1      52.040   9.508  12.574  0.00  0.00    +0.000 F 
ATOM     13  C   UNL     1      50.589   8.134  13.826  0.00  0.00    +0.000 A 
ATOM     14  C   UNL     1      49.455   7.315  13.878  0.00  0.00    +0.000 A 
ENDBRANCH   6   8
ENDBRANCH   1   2
BRANCH   1  15
ATOM     15  N   UNL     1      43.807   4.519  10.193  0.00  0.00    +0.000 N 
ATOM     16  H   UNL     1      42.876   4.557   9.790  0.00  0.00    +0.000 HD
BRANCH  15  20
ATOM     17  C   UNL     1      46.442   2.499   7.760  0.00  0.00    +0.000 A 
ATOM     18  C   UNL     1      46.267   3.866   7.627  0.00  0.00    +0.000 A 
ATOM     19  N   UNL     1      45.397   4.569   8.401  0.00  0.00    +0.000 NA
ATOM     20  C   UNL     1      44.693   3.870   9.319  0.00  0.00    +0.000 A 
ATOM     21  C   UNL     1      44.888   2.484   9.435  0.00  0.00    +0.000 A 
ATOM     22  N   UNL     1      45.750   1.761   8.668  0.00  0.00    +0.000 NA
BRANCH  17  24
ATOM     23  N   UNL     1      48.490   2.535   6.470  0.00  0.00    +0.000 N 
ATOM     24  C   UNL     1      47.425   1.788   6.894  0.00  0.00    +0.000 C 
ATOM     25  O   UNL     1      47.289   0.613   6.578  0.00  0.00    +0.000 OA
ATOM     26  H   UNL     1      49.183   2.119   5.864  0.00  0.00    +0.000 HD
ATOM     27  H   UNL     1      48.562   3.511   6.735  0.00  0.00    +0.000 HD
ENDBRANCH  17  24
ENDBRANCH  15  20
ENDBRANCH   1  15
TORSDOF 5
ENDMDL
MODEL 5
REMARK VINA RESULT:    -8.023      4.721      7.516
REMARK INTER + INTRA:         -11.179
REMARK INTER:                 -10.545
REMARK INTRA:                  -0.634
REMARK UNBOUND:                -0.811
REMARK  Name = 
REMARK  5 active torsions:
REMARK  status: ('A' for Active; 'I' for Inactive)
REMARK    1  A    between atoms: C_2  and  C_4
REMARK    2  A    between atoms: C_7  and  N_8
REMARK    3  A    between atoms: N_8  and  C_9
REMARK    4  A    between atoms: C_9  and  C_10
REMARK    5  A    between atoms: C_14  and  C_15
REMARK                            x       y       z     vdW  Elec       q    Type
REMARK                         _______ _______ _______ _____ _____    ______ ____
ROOT
ATOM      1  C   UNL     1      46.084   7.028  12.647  0.00  0.00    +0.000 C 
ENDROOT
BRANCH   1   2
ATOM      2  C   UNL     1      45.170   6.130  11.843  0.00  0.00    +0.000 A 
ATOM      3  C   UNL     1      43.783   6.195  12.006  0.00  0.00    +0.000 A 
ATOM      4  C   UNL     1      42.947   5.380  11.246  0.00  0.00    +0.000 A 
ATOM      5  C   UNL     1      43.491   4.501  10.304  0.00  0.00    +0.000 A 
ATOM      6  C   UNL     1      44.879   4.421  10.092  0.00  0.00    +0.000 A 
ATOM      7  C   UNL     1      45.703   5.229  10.902  0.00  0.00    +0.000 A 
BRANCH   6   8
ATOM      8  C   UNL     1      45.452   3.602   8.996  0.00  0.00    +0.000 A 
ATOM      9  C   UNL     1      46.032   4.216   7.866  0.00  0.00    +0.000 A 
ATOM     10  C   UNL     1      46.678   3.469   6.877  0.00  0.00    +0.000 A 
ATOM     11  C   UNL     1      46.757   2.090   7.007  0.00  0.00    +0.000 A 
ATOM     12  F   UNL     1      47.410   1.376   6.081  0.00  0.00    +0.000 F 
ATOM     13  C   UNL     1      46.177   1.446   8.090  0.00  0.00    +0.000 A 
ATOM     14  C   UNL     1      45.520   2.197   9.072  0.00  0.00    +0.000 A 
ENDBRANCH   6   8
ENDBRANCH   1   2
BRANCH   1  15
ATOM     15  N   UNL     1      47.377   6.379  12.815  0.00  0.00    +0.000 N 
ATOM     16  H   UNL     1      48.144   7.016  12.621  0.00  0.00    +0.000 HD
BRANCH  15  20
ATOM     17  C   UNL     1      47.734   4.509  16.464  0.00  0.00    +0.000 A 
ATOM     18  C   UNL     1      48.469   5.648  16.181  0.00  0.00    +0.000 A 
ATOM     19  N   UNL     1      48.391   6.288  14.983  0.00  0.00    +0.000 NA
ATOM     20  C   UNL     1      47.557   5.759  14.061  0.00  0.00    +0.000 A 
ATOM     21  C   UNL     1      46.821   4.603  14.371  0.00  0.00    +0.000 A 
ATOM     22  N   UNL     1      46.889   3.945  15.561  0.00  0.00    +0.000 NA
BRANCH  17  24
ATOM     23  N   UNL     1      47.136   2.706  17.963  0.00  0.00    +0.000 N 
ATOM     24  C   UNL     1      47.849   3.863  17.802  0.00  0.00    +0.000 C 
ATOM     25  O   UNL     1      48.531   4.334  18.702  0.00  0.00    +0.000 OA
ATOM     26  H   UNL     1      47.154   2.227  18.853  0.00  0.00    +0.000 HD
ATOM     27  H   UNL     1      46.566   2.352  17.203  0.00  0.00    +0.000 HD
ENDBRANCH  17  24
ENDBRANCH  15  20
ENDBRANCH   1  15
TORSDOF 5
ENDMDL
MODEL 6
REMARK VINA RESULT:    -7.006      4.182      6.925
REMARK INTER + INTRA:          -9.865
REMARK INTER:                  -9.042
REMARK INTRA:                  -0.822
REMARK UNBOUND:                -0.811
REMARK  Name = 
REMARK  5 active torsions:
REMARK  status: ('A' for Active; 'I' for Inactive)
REMARK    1  A    between atoms: C_2  and  C_4
REMARK    2  A    between atoms: C_7  and  N_8
REMARK    3  A    between atoms: N_8  and  C_9
REMARK    4  A    between atoms: C_9  and  C_10
REMARK    5  A    between atoms: C_14  and  C_15
REMARK                            x       y       z     vdW  Elec       q    Type
REMARK                         _______ _______ _______ _____ _____    ______ ____
ROOT
ATOM      1  C   UNL     1      46.152   4.113  13.691  0.00  0.00    +0.000 C 
ENDROOT
BRANCH   1   2
ATOM      2  C   UNL     1      45.263   3.748  12.522  0.00  0.00    +0.000 A 
ATOM      3  C   UNL     1      43.871   3.821  12.636  0.00  0.00    +0.000 A 
ATOM      4  C   UNL     1      43.060   3.504  11.548  0.00  0.00    +0.000 A 
ATOM      5  C   UNL     1      43.635   3.124  10.331  0.00  0.00    +0.000 A 
ATOM      6  C   UNL     1      45.030   3.061  10.168  0.00  0.00    +0.000 A 
ATOM      7  C   UNL     1      45.825   3.350  11.295  0.00  0.00    +0.000 A 
BRANCH   6   8
ATOM      8  C   UNL     1      45.647   2.804   8.844  0.00  0.00    +0.000 A 
ATOM      9  C   UNL     1      45.880   3.862   7.940  0.00  0.00    +0.000 A 
ATOM     10  C   UNL     1      46.561   3.660   6.736  0.00  0.00    +0.000 A 
ATOM     11  C   UNL     1      47.025   2.392   6.419  0.00  0.00    +0.000 A 
ATOM     12  F   UNL     1      47.713   2.204   5.286  0.00  0.00    +0.000 F 
ATOM     13  C   UNL     1      46.794   1.320   7.270  0.00  0.00    +0.000 A 
ATOM     14  C   UNL     1      46.099   1.523   8.468  0.00  0.00    +0.000 A 
ENDBRANCH   6   8
ENDBRANCH   1   2
BRANCH   1  15
ATOM     15  N   UNL     1      46.089   5.551  13.916  0.00  0.00    +0.000 N 
ATOM     16  H   UNL     1      45.964   5.770  14.900  0.00  0.00    +0.000 HD
BRANCH  15  20
ATOM     17  C   UNL     1      49.219   7.604  12.202  0.00  0.00    +0.000 A 
ATOM     18  C   UNL     1      49.351   7.038  13.459  0.00  0.00    +0.000 A 
ATOM     19  N   UNL     1      48.338   6.364  14.067  0.00  0.00    +0.000 NA
ATOM     20  C   UNL     1      47.174   6.268  13.387  0.00  0.00    +0.000 A 
ATOM     21  C   UNL     1      47.063   6.850  12.114  0.00  0.00    +0.000 A 
ATOM     22  N   UNL     1      48.063   7.532  11.490  0.00  0.00    +0.000 NA
BRANCH  17  24
ATOM     23  N   UNL     1      51.460   7.537  11.292  0.00  0.00    +0.000 N 
ATOM     24  C   UNL     1      50.371   8.314  11.581  0.00  0.00    +0.000 C 
ATOM     25  O   UNL     1      50.352   9.515  11.346  0.00  0.00    +0.000 OA
ATOM     26  H   UNL     1      52.284   7.960  10.887  0.00  0.00    +0.000 HD
ATOM     27  H   UNL     1      51.450   6.548  11.516  0.00  0.00    +0.000 HD
ENDBRANCH  17  24
ENDBRANCH  15  20
ENDBRANCH   1  15
TORSDOF 5
ENDMDL
MODEL 7
REMARK VINA RESULT:    -6.671      5.836      8.403
REMARK INTER + INTRA:          -9.432
REMARK INTER:                  -8.729
REMARK INTRA:                  -0.703
REMARK UNBOUND:                -0.811
REMARK  Name = 
REMARK  5 active torsions:
REMARK  status: ('A' for Active; 'I' for Inactive)
REMARK    1  A    between atoms: C_2  and  C_4
REMARK    2  A    between atoms: C_7  and  N_8
REMARK    3  A    between atoms: N_8  and  C_9
REMARK    4  A    between atoms: C_9  and  C_10
REMARK    5  A    between atoms: C_14  and  C_15
REMARK                            x       y       z     vdW  Elec       q    Type
REMARK                         _______ _______ _______ _____ _____    ______ ____
ROOT
ATOM      1  C   UNL     1      48.999   7.135  13.869  0.00  0.00    +0.000 C 
ENDROOT
BRANCH   1   2
ATOM      2  C   UNL     1      47.620   7.263  13.259  0.00  0.00    +0.000 A 
ATOM      3  C   UNL     1      46.890   8.448  13.390  0.00  0.00    +0.000 A 
ATOM      4  C   UNL     1      45.631   8.565  12.807  0.00  0.00    +0.000 A 
ATOM      5  C   UNL     1      45.094   7.501  12.075  0.00  0.00    +0.000 A 
ATOM      6  C   UNL     1      45.805   6.301  11.899  0.00  0.00    +0.000 A 
ATOM      7  C   UNL     1      47.060   6.196  12.532  0.00  0.00    +0.000 A 
BRANCH   6   8
ATOM      8  C   UNL     1      45.309   5.226  11.005  0.00  0.00    +0.000 A 
ATOM      9  C   UNL     1      45.597   5.249   9.624  0.00  0.00    +0.000 A 
ATOM     10  C   UNL     1      45.238   4.191   8.784  0.00  0.00    +0.000 A 
ATOM     11  C   UNL     1      44.584   3.090   9.315  0.00  0.00    +0.000 A 
ATOM     12  F   UNL     1      44.273   2.058   8.520  0.00  0.00    +0.000 F 
ATOM     13  C   UNL     1      44.259   3.041  10.663  0.00  0.00    +0.000 A 
ATOM     14  C   UNL     1      44.609   4.108  11.500  0.00  0.00    +0.000 A 
ENDBRANCH   6   8
ENDBRANCH   1   2
BRANCH   1  15
ATOM     15  N   UNL     1      49.008   7.763  15.183  0.00  0.00    +0.000 N 
ATOM     16  H   UNL     1      48.304   8.491  15.254  0.00  0.00    +0.000 HD
BRANCH  15  20
ATOM     17  C   UNL     1      48.786   5.236  18.424  0.00  0.00    +0.000 A 
ATOM     18  C   UNL     1      48.730   4.735  17.135  0.00  0.00    +0.000 A 
ATOM     19  N   UNL     1      48.786   5.536  16.037  0.00  0.00    +0.000 NA
ATOM     20  C   UNL     1      48.896   6.865  16.255  0.00  0.00    +0.000 A 
ATOM     21  C   UNL     1      48.952   7.350  17.572  0.00  0.00    +0.000 A 
ATOM     22  N   UNL     1      48.893   6.566  18.684  0.00  0.00    +0.000 NA
BRANCH  17  24
ATOM     23  N   UNL     1      48.338   3.027  19.306  0.00  0.00    +0.000 N 
ATOM     24  C   UNL     1      48.738   4.306  19.587  0.00  0.00    +0.000 C 
ATOM     25  O   UNL     1      49.033   4.658  20.721  0.00  0.00    +0.000 OA
ATOM     26  H   UNL     1      48.264   2.351  20.053  0.00  0.00    +0.000 HD
ATOM     27  H   UNL     1      48.083   2.773  18.359  0.00  0.00    +0.000 HD
ENDBRANCH  17  24
ENDBRANCH  15  20
ENDBRANCH   1  15
TORSDOF 5
ENDMDL
MODEL 8
REMARK VINA RESULT:    -6.651      4.663      7.390
REMARK INTER + INTRA:          -9.406
REMARK INTER:                  -8.646
REMARK INTRA:                  -0.760
REMARK UNBOUND:                -0.811
REMARK  Name = 
REMARK  5 active torsions:
REMARK  status: ('A' for Active; 'I' for Inactive)
REMARK    1  A    between atoms: C_2  and  C_4
REMARK    2  A    between atoms: C_7  and  N_8
REMARK    3  A    between atoms: N_8  and  C_9
REMARK    4  A    between atoms: C_9  and  C_10
REMARK    5  A    between atoms: C_14  and  C_15
REMARK                            x       y       z     vdW  Elec       q    Type
REMARK                         _______ _______ _______ _____ _____    ______ ____
ROOT
ATOM      1  C   UNL     1      45.267   7.443  12.398  0.00  0.00    +0.000 C 
ENDROOT
BRANCH   1   2
ATOM      2  C   UNL     1      44.681   6.165  11.841  0.00  0.00    +0.000 A 
ATOM      3  C   UNL     1      43.425   5.714  12.260  0.00  0.00    +0.000 A 
ATOM      4  C   UNL     1      42.883   4.548  11.725  0.00  0.00    +0.000 A 
ATOM      5  C   UNL     1      43.586   3.828  10.754  0.00  0.00    +0.000 A 
ATOM      6  C   UNL     1      44.840   4.259  10.287  0.00  0.00    +0.000 A 
ATOM      7  C   UNL     1      45.382   5.421  10.873  0.00  0.00    +0.000 A 
BRANCH   6   8
ATOM      8  C   UNL     1      45.523   3.585   9.155  0.00  0.00    +0.000 A 
ATOM      9  C   UNL     1      45.598   2.178   9.095  0.00  0.00    +0.000 A 
ATOM     10  C   UNL     1      46.136   1.521   7.985  0.00  0.00    +0.000 A 
ATOM     11  C   UNL     1      46.605   2.264   6.913  0.00  0.00    +0.000 A 
ATOM     12  F   UNL     1      47.084   1.636   5.831  0.00  0.00    +0.000 F 
ATOM     13  C   UNL     1      46.572   3.651   6.944  0.00  0.00    +0.000 A 
ATOM     14  C   UNL     1      46.045   4.307   8.063  0.00  0.00    +0.000 A 
ENDBRANCH   6   8
ENDBRANCH   1   2
BRANCH   1  15
ATOM     15  N   UNL     1      46.580   7.670  11.811  0.00  0.00    +0.000 N 
ATOM     16  H   UNL     1      46.613   8.543  11.293  0.00  0.00    +0.000 HD
BRANCH  15  20
ATOM     17  C   UNL     1      49.807   7.426  14.355  0.00  0.00    +0.000 A 
ATOM     18  C   UNL     1      48.535   7.104  14.797  0.00  0.00    +0.000 A 
ATOM     19  N   UNL     1      47.440   7.184  13.993  0.00  0.00    +0.000 NA
ATOM     20  C   UNL     1      47.644   7.602  12.724  0.00  0.00    +0.000 A 
ATOM     21  C   UNL     1      48.943   7.924  12.298  0.00  0.00    +0.000 A 
ATOM     22  N   UNL     1      50.050   7.854  13.088  0.00  0.00    +0.000 NA
BRANCH  17  24
ATOM     23  N   UNL     1      52.185   7.641  14.748  0.00  0.00    +0.000 N 
ATOM     24  C   UNL     1      50.970   7.300  15.278  0.00  0.00    +0.000 C 
ATOM     25  O   UNL     1      50.852   6.913  16.433  0.00  0.00    +0.000 OA
ATOM     26  H   UNL     1      53.018   7.560  15.314  0.00  0.00    +0.000 HD
ATOM     27  H   UNL     1      52.251   7.940  13.782  0.00  0.00    +0.000 HD
ENDBRANCH  17  24
ENDBRANCH  15  20
ENDBRANCH   1  15
TORSDOF 5
ENDMDL
MODEL 9
REMARK VINA RESULT:    -6.590      5.991      8.079
REMARK INTER + INTRA:          -9.328
REMARK INTER:                  -8.521
REMARK INTRA:                  -0.807
REMARK UNBOUND:                -0.811
REMARK  Name = 
REMARK  5 active torsions:
REMARK  status: ('A' for Active; 'I' for Inactive)
REMARK    1  A    between atoms: C_2  and  C_4
REMARK    2  A    between atoms: C_7  and  N_8
REMARK    3  A    between atoms: N_8  and  C_9
REMARK    4  A    between atoms: C_9  and  C_10
REMARK    5  A    between atoms: C_14  and  C_15
REMARK                            x       y       z     vdW  Elec       q    Type
REMARK                         _______ _______ _______ _____ _____    ______ ____
ROOT
ATOM      1  C   UNL     1      49.253   6.760  16.329  0.00  0.00    +0.000 C 
ENDROOT
BRANCH   1   2
ATOM      2  C   UNL     1      48.905   6.950  14.869  0.00  0.00    +0.000 A 
ATOM      3  C   UNL     1      49.724   7.718  14.035  0.00  0.00    +0.000 A 
ATOM      4  C   UNL     1      49.409   7.869  12.687  0.00  0.00    +0.000 A 
ATOM      5  C   UNL     1      48.277   7.243  12.156  0.00  0.00    +0.000 A 
ATOM      6  C   UNL     1      47.441   6.443  12.954  0.00  0.00    +0.000 A 
ATOM      7  C   UNL     1      47.762   6.338  14.322  0.00  0.00    +0.000 A 
BRANCH   6   8
ATOM      8  C   UNL     1      46.326   5.658  12.369  0.00  0.00    +0.000 A 
ATOM      9  C   UNL     1      45.959   5.826  11.017  0.00  0.00    +0.000 A 
ATOM     10  C   UNL     1      44.989   5.019  10.416  0.00  0.00    +0.000 A 
ATOM     11  C   UNL     1      44.372   4.024  11.160  0.00  0.00    +0.000 A 
ATOM     12  F   UNL     1      43.472   3.224  10.576  0.00  0.00    +0.000 F 
ATOM     13  C   UNL     1      44.687   3.844  12.500  0.00  0.00    +0.000 A 
ATOM     14  C   UNL     1      45.649   4.663  13.102  0.00  0.00    +0.000 A 
ENDBRANCH   6   8
ENDBRANCH   1   2
BRANCH   1  15
ATOM     15  N   UNL     1      48.579   5.572  16.837  0.00  0.00    +0.000 N 
ATOM     16  H   UNL     1      47.796   5.306  16.248  0.00  0.00    +0.000 HD
BRANCH  15  20
ATOM     17  C   UNL     1      51.200   2.456  17.439  0.00  0.00    +0.000 A 
ATOM     18  C   UNL     1      49.937   2.224  16.921  0.00  0.00    +0.000 A 
ATOM     19  N   UNL     1      49.036   3.224  16.719  0.00  0.00    +0.000 NA
ATOM     20  C   UNL     1      49.425   4.474  17.054  0.00  0.00    +0.000 A 
ATOM     21  C   UNL     1      50.711   4.684  17.578  0.00  0.00    +0.000 A 
ATOM     22  N   UNL     1      51.625   3.698  17.791  0.00  0.00    +0.000 NA
BRANCH  17  24
ATOM     23  N   UNL     1      51.607   0.169  18.119  0.00  0.00    +0.000 N 
ATOM     24  C   UNL     1      52.150   1.322  17.620  0.00  0.00    +0.000 C 
ATOM     25  O   UNL     1      53.339   1.413  17.346  0.00  0.00    +0.000 OA
ATOM     26  H   UNL     1      52.199  -0.632  18.285  0.00  0.00    +0.000 HD
ATOM     27  H   UNL     1      50.621   0.134  18.354  0.00  0.00    +0.000 HD
ENDBRANCH  17  24
ENDBRANCH  15  20
ENDBRANCH   1  15
TORSDOF 5
ENDMDL
