MODEL 1
REMARK VINA RESULT:    -7.660      0.000      0.000
REMARK INTER + INTRA:         -10.820
REMARK INTER:                  -9.899
REMARK INTRA:                  -0.922
REMARK UNBOUND:                -0.922
REMARK  Name = 
REMARK  5 active torsions:
REMARK  status: ('A' for Active; 'I' for Inactive)
REMARK    1  A    between atoms: C_2  and  C_4
REMARK    2  A    between atoms: N_11  and  C_12
REMARK    3  A    between atoms: C_12  and  C_13
REMARK    4  A    between atoms: C_16  and  O_17
REMARK    5  A    between atoms: O_17  and  C_18
REMARK                            x       y       z     vdW  Elec       q    Type
REMARK                         _______ _______ _______ _____ _____    ______ ____
ROOT
ATOM      1  C   UNL     1      47.265   7.633  13.762  0.00  0.00    +0.000 A 
ATOM      2  C   UNL     1      46.156   7.760  12.928  0.00  0.00    +0.000 A 
ATOM      3  N   UNL     1      45.431   6.737  12.396  0.00  0.00    +0.000 NA
ATOM      4  C   UNL     1      45.877   5.526  12.786  0.00  0.00    +0.000 A 
ATOM      5  C   UNL     1      46.948   5.258  13.636  0.00  0.00    +0.000 A 
ATOM      6  C   UNL     1      47.037   3.849  13.779  0.00  0.00    +0.000 A 
ATOM      7  C   UNL     1      46.040   3.291  13.007  0.00  0.00    +0.000 A 
ATOM      8  N   UNL     1      45.342   4.316  12.409  0.00  0.00    +0.000 N 
ATOM      9  C   UNL     1      47.673   6.350  14.143  0.00  0.00    +0.000 A 
ENDROOT
BRANCH   1  11
ATOM     10  N   UNL     1      47.703   9.279  15.492  0.00  0.00    +0.000 N 
ATOM     11  C   UNL     1      47.964   8.848  14.223  0.00  0.00    +0.000 C 
ATOM     12  O   UNL     1      48.775   9.429  13.513  0.00  0.00    +0.000 OA
ATOM     13  H   UNL     1      48.263  10.053  15.835  0.00  0.00    +0.000 HD
ATOM     14  H   UNL     1      47.236   8.703  16.182  0.00  0.00    +0.000 HD
ENDBRANCH   1  11
BRANCH   8  15
ATOM     15  C   UNL     1      44.233   4.133  11.481  0.00  0.00    +0.000 C 
BRANCH  15  16
ATOM     16  C   UNL     1      44.735   3.831  10.091  0.00  0.00    +0.000 A 
ATOM     17  C   UNL     1      44.636   2.533   9.570  0.00  0.00    +0.000 A 
ATOM     18  C   UNL     1      45.163   2.220   8.311  0.00  0.00    +0.000 A 
ATOM     19  C   UNL     1      45.770   3.209   7.541  0.00  0.00    +0.000 A 
ATOM     20  C   UNL     1      45.877   4.502   8.061  0.00  0.00    +0.000 A 
ATOM     21  C   UNL     1      45.360   4.817   9.319  0.00  0.00    +0.000 A 
BRANCH  19  22
ATOM     22  O   UNL     1      46.322   3.062   6.306  0.00  0.00    +0.000 OA
BRANCH  22  23
ATOM     23  C   UNL     1      47.503   2.296   6.136  0.00  0.00    +0.000 C 
ATOM     24  F   UNL     1      47.334   0.976   6.354  0.00  0.00    +0.000 F 
ATOM     25  F   UNL     1      47.916   2.445   4.856  0.00  0.00    +0.000 F 
ATOM     26  F   UNL     1      48.475   2.761   6.947  0.00  0.00    +0.000 F 
ENDBRANCH  22  23
ENDBRANCH  19  22
ENDBRANCH  15  16
ENDBRANCH   8  15
TORSDOF 5
ENDMDL
MODEL 2
REMARK VINA RESULT:    -7.512      3.764      7.257
REMARK INTER + INTRA:         -10.630
REMARK INTER:                  -9.803
REMARK INTRA:                  -0.827
REMARK UNBOUND:                -0.922
REMARK  Name = 
REMARK  5 active torsions:
REMARK  status: ('A' for Active; 'I' for Inactive)
REMARK    1  A    between atoms: C_2  and  C_4
REMARK    2  A    between atoms: N_11  and  C_12
REMARK    3  A    between atoms: C_12  and  C_13
REMARK    4  A    between atoms: C_16  and  O_17
REMARK    5  A    between atoms: O_17  and  C_18
REMARK                            x       y       z     vdW  Elec       q    Type
REMARK                         _______ _______ _______ _____ _____    ______ ____
ROOT
ATOM      1  C   UNL     1      46.536   2.719   7.514  0.00  0.00    +0.000 A 
ATOM      2  C   UNL     1      46.393   4.097   7.662  0.00  0.00    +0.000 A 
ATOM      3  N   UNL     1      45.585   4.728   8.558  0.00  0.00    +0.000 NA
ATOM      4  C   UNL     1      44.924   3.867   9.357  0.00  0.00    +0.000 A 
ATOM      5  C   UNL     1      44.999   2.476   9.339  0.00  0.00    +0.000 A 
ATOM      6  C   UNL     1      44.149   1.989  10.367  0.00  0.00    +0.000 A 
ATOM      7  C   UNL     1      43.565   3.082  10.973  0.00  0.00    +0.000 A 
ATOM      8  N   UNL     1      44.042   4.216  10.355  0.00  0.00    +0.000 N 
ATOM      9  C   UNL     1      45.834   1.876   8.382  0.00  0.00    +0.000 A 
ENDROOT
BRANCH   1  11
ATOM     10  N   UNL     1      47.702   3.016   5.405  0.00  0.00    +0.000 N 
ATOM     11  C   UNL     1      47.429   2.195   6.462  0.00  0.00    +0.000 C 
ATOM     12  O   UNL     1      47.936   1.084   6.547  0.00  0.00    +0.000 OA
ATOM     13  H   UNL     1      48.395   2.687   4.741  0.00  0.00    +0.000 HD
ATOM     14  H   UNL     1      47.505   4.009   5.415  0.00  0.00    +0.000 HD
ENDBRANCH   1  11
BRANCH   8  15
ATOM     15  C   UNL     1      43.630   5.575  10.683  0.00  0.00    +0.000 C 
BRANCH  15  16
ATOM     16  C   UNL     1      44.656   6.256  11.555  0.00  0.00    +0.000 A 
ATOM     17  C   UNL     1      44.775   7.653  11.545  0.00  0.00    +0.000 A 
ATOM     18  C   UNL     1      45.770   8.297  12.292  0.00  0.00    +0.000 A 
ATOM     19  C   UNL     1      46.642   7.552  13.083  0.00  0.00    +0.000 A 
ATOM     20  C   UNL     1      46.529   6.159  13.089  0.00  0.00    +0.000 A 
ATOM     21  C   UNL     1      45.544   5.513  12.341  0.00  0.00    +0.000 A 
BRANCH  19  22
ATOM     22  O   UNL     1      47.650   8.029  13.863  0.00  0.00    +0.000 OA
BRANCH  22  23
ATOM     23  C   UNL     1      48.988   8.014  13.392  0.00  0.00    +0.000 C 
ATOM     24  F   UNL     1      49.092   7.958  12.048  0.00  0.00    +0.000 F 
ATOM     25  F   UNL     1      49.586   9.157  13.798  0.00  0.00    +0.000 F 
ATOM     26  F   UNL     1      49.655   6.976  13.934  0.00  0.00    +0.000 F 
ENDBRANCH  22  23
ENDBRANCH  19  22
ENDBRANCH  15  16
ENDBRANCH   8  15
TORSDOF 5
ENDMDL
MODEL 3
REMARK VINA RESULT:    -7.309      1.654      2.321
REMARK INTER + INTRA:         -10.367
REMARK INTER:                  -9.843
REMARK INTRA:                  -0.525
REMARK UNBOUND:                -0.922
REMARK  Name = 
REMARK  5 active torsions:
REMARK  status: ('A' for Active; 'I' for Inactive)
REMARK    1  A    between atoms: C_2  and  C_4
REMARK    2  A    between atoms: N_11  and  C_12
REMARK    3  A    between atoms: C_12  and  C_13
REMARK    4  A    between atoms: C_16  and  O_17
REMARK    5  A    between atoms: O_17  and  C_18
REMARK                            x       y       z     vdW  Elec       q    Type
REMARK                         _______ _______ _______ _____ _____    ______ ____
ROOT
ATOM      1  C   UNL     1      45.493   9.246  12.193  0.00  0.00    +0.000 A 
ATOM      2  C   UNL     1      44.482   8.585  11.497  0.00  0.00    +0.000 A 
ATOM      3  N   UNL     1      44.303   7.237  11.432  0.00  0.00    +0.000 NA
ATOM      4  C   UNL     1      45.212   6.556  12.160  0.00  0.00    +0.000 A 
ATOM      5  C   UNL     1      46.248   7.090  12.923  0.00  0.00    +0.000 A 
ATOM      6  C   UNL     1      46.934   6.005  13.529  0.00  0.00    +0.000 A 
ATOM      7  C   UNL     1      46.320   4.842  13.113  0.00  0.00    +0.000 A 
ATOM      8  N   UNL     1      45.276   5.187  12.284  0.00  0.00    +0.000 N 
ATOM      9  C   UNL     1      46.398   8.487  12.941  0.00  0.00    +0.000 A 
ENDROOT
BRANCH   1  11
ATOM     10  N   UNL     1      46.787  11.295  12.352  0.00  0.00    +0.000 N 
ATOM     11  C   UNL     1      45.569  10.719  12.128  0.00  0.00    +0.000 C 
ATOM     12  O   UNL     1      44.591  11.399  11.848  0.00  0.00    +0.000 OA
ATOM     13  H   UNL     1      46.851  12.297  12.204  0.00  0.00    +0.000 HD
ATOM     14  H   UNL     1      47.653  10.769  12.345  0.00  0.00    +0.000 HD
ENDBRANCH   1  11
BRANCH   8  15
ATOM     15  C   UNL     1      44.406   4.234  11.606  0.00  0.00    +0.000 C 
BRANCH  15  16
ATOM     16  C   UNL     1      44.940   3.892  10.237  0.00  0.00    +0.000 A 
ATOM     17  C   UNL     1      45.480   4.893   9.418  0.00  0.00    +0.000 A 
ATOM     18  C   UNL     1      45.911   4.606   8.117  0.00  0.00    +0.000 A 
ATOM     19  C   UNL     1      45.835   3.303   7.627  0.00  0.00    +0.000 A 
ATOM     20  C   UNL     1      45.291   2.305   8.439  0.00  0.00    +0.000 A 
ATOM     21  C   UNL     1      44.853   2.589   9.733  0.00  0.00    +0.000 A 
BRANCH  19  22
ATOM     22  O   UNL     1      46.215   2.869   6.395  0.00  0.00    +0.000 OA
BRANCH  22  23
ATOM     23  C   UNL     1      47.393   2.094   6.241  0.00  0.00    +0.000 C 
ATOM     24  F   UNL     1      47.975   2.221   5.031  0.00  0.00    +0.000 F 
ATOM     25  F   UNL     1      48.289   2.507   7.167  0.00  0.00    +0.000 F 
ATOM     26  F   UNL     1      47.122   0.793   6.470  0.00  0.00    +0.000 F 
ENDBRANCH  22  23
ENDBRANCH  19  22
ENDBRANCH  15  16
ENDBRANCH   8  15
TORSDOF 5
ENDMDL
MODEL 4
REMARK VINA RESULT:    -7.249      1.806      2.430
REMARK INTER + INTRA:         -10.290
REMARK INTER:                  -9.959
REMARK INTRA:                  -0.331
REMARK UNBOUND:                -0.922
REMARK  Name = 
REMARK  5 active torsions:
REMARK  status: ('A' for Active; 'I' for Inactive)
REMARK    1  A    between atoms: C_2  and  C_4
REMARK    2  A    between atoms: N_11  and  C_12
REMARK    3  A    between atoms: C_12  and  C_13
REMARK    4  A    between atoms: C_16  and  O_17
REMARK    5  A    between atoms: O_17  and  C_18
REMARK                            x       y       z     vdW  Elec       q    Type
REMARK                         _______ _______ _______ _____ _____    ______ ____
ROOT
ATOM      1  C   UNL     1      47.857   5.384  15.420  0.00  0.00    +0.000 A 
ATOM      2  C   UNL     1      46.958   4.370  15.094  0.00  0.00    +0.000 A 
ATOM      3  N   UNL     1      46.142   4.341  14.005  0.00  0.00    +0.000 NA
ATOM      4  C   UNL     1      46.304   5.415  13.206  0.00  0.00    +0.000 A 
ATOM      5  C   UNL     1      47.183   6.479  13.395  0.00  0.00    +0.000 A 
ATOM      6  C   UNL     1      47.024   7.365  12.297  0.00  0.00    +0.000 A 
ATOM      7  C   UNL     1      46.048   6.837  11.478  0.00  0.00    +0.000 A 
ATOM      8  N   UNL     1      45.618   5.655  12.037  0.00  0.00    +0.000 N 
ATOM      9  C   UNL     1      47.990   6.467  14.546  0.00  0.00    +0.000 A 
ENDROOT
BRANCH   1  11
ATOM     10  N   UNL     1      48.016   5.609  17.833  0.00  0.00    +0.000 N 
ATOM     11  C   UNL     1      48.643   5.279  16.665  0.00  0.00    +0.000 C 
ATOM     12  O   UNL     1      49.799   4.876  16.660  0.00  0.00    +0.000 OA
ATOM     13  H   UNL     1      48.531   5.436  18.690  0.00  0.00    +0.000 HD
ATOM     14  H   UNL     1      47.012   5.710  17.908  0.00  0.00    +0.000 HD
ENDBRANCH   1  11
BRANCH   8  15
ATOM     15  C   UNL     1      44.560   4.815  11.489  0.00  0.00    +0.000 C 
BRANCH  15  16
ATOM     16  C   UNL     1      44.989   4.182  10.189  0.00  0.00    +0.000 A 
ATOM     17  C   UNL     1      44.876   2.797  10.006  0.00  0.00    +0.000 A 
ATOM     18  C   UNL     1      45.337   2.184   8.835  0.00  0.00    +0.000 A 
ATOM     19  C   UNL     1      45.893   2.954   7.815  0.00  0.00    +0.000 A 
ATOM     20  C   UNL     1      46.014   4.334   7.998  0.00  0.00    +0.000 A 
ATOM     21  C   UNL     1      45.562   4.947   9.167  0.00  0.00    +0.000 A 
BRANCH  19  22
ATOM     22  O   UNL     1      46.379   2.508   6.625  0.00  0.00    +0.000 OA
BRANCH  22  23
ATOM     23  C   UNL     1      47.711   2.030   6.529  0.00  0.00    +0.000 C 
ATOM     24  F   UNL     1      47.943   0.913   7.249  0.00  0.00    +0.000 F 
ATOM     25  F   UNL     1      47.955   1.734   5.232  0.00  0.00    +0.000 F 
ATOM     26  F   UNL     1      48.574   2.993   6.910  0.00  0.00    +0.000 F 
ENDBRANCH  22  23
ENDBRANCH  19  22
ENDBRANCH  15  16
ENDBRANCH   8  15
TORSDOF 5
ENDMDL
MODEL 5
REMARK VINA RESULT:    -7.095      1.343      2.191
REMARK INTER + INTRA:         -10.090
REMARK INTER:                  -9.487
REMARK INTRA:                  -0.604
REMARK UNBOUND:                -0.922
REMARK  Name = 
REMARK  5 active torsions:
REMARK  status: ('A' for Active; 'I' for Inactive)
REMARK    1  A    between atoms: C_2  and  C_4
REMARK    2  A    between atoms: N_11  and  C_12
REMARK    3  A    between atoms: C_12  and  C_13
REMARK    4  A    between atoms: C_16  and  O_17
REMARK    5  A    between atoms: O_17  and  C_18
REMARK                            x       y       z     vdW  Elec       q    Type
REMARK                         _______ _______ _______ _____ _____    ______ ____
ROOT
ATOM      1  C   UNL     1      48.187   7.164  14.270  0.00  0.00    +0.000 A 
ATOM      2  C   UNL     1      47.923   5.811  14.067  0.00  0.00    +0.000 A 
ATOM      3  N   UNL     1      46.894   5.294  13.341  0.00  0.00    +0.000 NA
ATOM      4  C   UNL     1      46.127   6.247  12.775  0.00  0.00    +0.000 A 
ATOM      5  C   UNL     1      46.296   7.627  12.868  0.00  0.00    +0.000 A 
ATOM      6  C   UNL     1      45.269   8.236  12.099  0.00  0.00    +0.000 A 
ATOM      7  C   UNL     1      44.493   7.225  11.572  0.00  0.00    +0.000 A 
ATOM      8  N   UNL     1      45.021   6.023  11.987  0.00  0.00    +0.000 N 
ATOM      9  C   UNL     1      47.363   8.107  13.646  0.00  0.00    +0.000 A 
ENDROOT
BRANCH   1  11
ATOM     10  N   UNL     1      50.580   7.413  14.598  0.00  0.00    +0.000 N 
ATOM     11  C   UNL     1      49.326   7.558  15.121  0.00  0.00    +0.000 C 
ATOM     12  O   UNL     1      49.158   8.031  16.237  0.00  0.00    +0.000 OA
ATOM     13  H   UNL     1      51.348   7.781  15.149  0.00  0.00    +0.000 HD
ATOM     14  H   UNL     1      50.749   7.259  13.611  0.00  0.00    +0.000 HD
ENDBRANCH   1  11
BRANCH   8  15
ATOM     15  C   UNL     1      44.458   4.717  11.672  0.00  0.00    +0.000 C 
BRANCH  15  16
ATOM     16  C   UNL     1      44.841   4.282  10.279  0.00  0.00    +0.000 A 
ATOM     17  C   UNL     1      44.496   3.004   9.817  0.00  0.00    +0.000 A 
ATOM     18  C   UNL     1      44.908   2.558   8.555  0.00  0.00    +0.000 A 
ATOM     19  C   UNL     1      45.647   3.397   7.724  0.00  0.00    +0.000 A 
ATOM     20  C   UNL     1      45.999   4.668   8.185  0.00  0.00    +0.000 A 
ATOM     21  C   UNL     1      45.597   5.114   9.445  0.00  0.00    +0.000 A 
BRANCH  19  22
ATOM     22  O   UNL     1      46.114   3.111   6.478  0.00  0.00    +0.000 OA
BRANCH  22  23
ATOM     23  C   UNL     1      47.256   2.287   6.313  0.00  0.00    +0.000 C 
ATOM     24  F   UNL     1      48.209   2.482   7.247  0.00  0.00    +0.000 F 
ATOM     25  F   UNL     1      46.857   0.997   6.405  0.00  0.00    +0.000 F 
ATOM     26  F   UNL     1      47.788   2.475   5.089  0.00  0.00    +0.000 F 
ENDBRANCH  22  23
ENDBRANCH  19  22
ENDBRANCH  15  16
ENDBRANCH   8  15
TORSDOF 5
ENDMDL
MODEL 6
REMARK VINA RESULT:    -6.178      2.149      3.215
REMARK INTER + INTRA:          -8.905
REMARK INTER:                  -8.404
REMARK INTRA:                  -0.501
REMARK UNBOUND:                -0.922
REMARK  Name = 
REMARK  5 active torsions:
REMARK  status: ('A' for Active; 'I' for Inactive)
REMARK    1  A    between atoms: C_2  and  C_4
REMARK    2  A    between atoms: N_11  and  C_12
REMARK    3  A    between atoms: C_12  and  C_13
REMARK    4  A    between atoms: C_16  and  O_17
REMARK    5  A    between atoms: O_17  and  C_18
REMARK                            x       y       z     vdW  Elec       q    Type
REMARK                         _______ _______ _______ _____ _____    ______ ____
ROOT
ATOM      1  C   UNL     1      49.778   8.734  12.292  0.00  0.00    +0.000 A 
ATOM      2  C   UNL     1      49.579   7.358  12.394  0.00  0.00    +0.000 A 
ATOM      3  N   UNL     1      48.377   6.729  12.514  0.00  0.00    +0.000 NA
ATOM      4  C   UNL     1      47.337   7.586  12.493  0.00  0.00    +0.000 A 
ATOM      5  C   UNL     1      47.392   8.972  12.365  0.00  0.00    +0.000 A 
ATOM      6  C   UNL     1      46.057   9.455  12.372  0.00  0.00    +0.000 A 
ATOM      7  C   UNL     1      45.224   8.366  12.521  0.00  0.00    +0.000 A 
ATOM      8  N   UNL     1      46.009   7.238  12.593  0.00  0.00    +0.000 N 
ATOM      9  C   UNL     1      48.658   9.572  12.263  0.00  0.00    +0.000 A 
ENDROOT
BRANCH   1  11
ATOM     10  N   UNL     1      51.317  10.612  12.305  0.00  0.00    +0.000 N 
ATOM     11  C   UNL     1      51.154   9.259  12.208  0.00  0.00    +0.000 C 
ATOM     12  O   UNL     1      52.118   8.514  12.094  0.00  0.00    +0.000 OA
ATOM     13  H   UNL     1      52.271  10.954  12.348  0.00  0.00    +0.000 HD
ATOM     14  H   UNL     1      50.587  11.231  12.637  0.00  0.00    +0.000 HD
ENDBRANCH   1  11
BRANCH   8  15
ATOM     15  C   UNL     1      45.502   5.886  12.792  0.00  0.00    +0.000 C 
BRANCH  15  16
ATOM     16  C   UNL     1      45.383   5.152  11.480  0.00  0.00    +0.000 A 
ATOM     17  C   UNL     1      44.976   3.811  11.455  0.00  0.00    +0.000 A 
ATOM     18  C   UNL     1      44.931   3.093  10.253  0.00  0.00    +0.000 A 
ATOM     19  C   UNL     1      45.265   3.718   9.053  0.00  0.00    +0.000 A 
ATOM     20  C   UNL     1      45.678   5.052   9.076  0.00  0.00    +0.000 A 
ATOM     21  C   UNL     1      45.731   5.769  10.273  0.00  0.00    +0.000 A 
BRANCH  19  22
ATOM     22  O   UNL     1      45.267   3.159   7.812  0.00  0.00    +0.000 OA
BRANCH  22  23
ATOM     23  C   UNL     1      46.481   2.717   7.228  0.00  0.00    +0.000 C 
ATOM     24  F   UNL     1      47.495   3.598   7.345  0.00  0.00    +0.000 F 
ATOM     25  F   UNL     1      46.858   1.580   7.858  0.00  0.00    +0.000 F 
ATOM     26  F   UNL     1      46.288   2.430   5.925  0.00  0.00    +0.000 F 
ENDBRANCH  22  23
ENDBRANCH  19  22
ENDBRANCH  15  16
ENDBRANCH   8  15
TORSDOF 5
ENDMDL
MODEL 7
REMARK VINA RESULT:    -5.956      4.262      5.971
REMARK INTER + INTRA:          -8.619
REMARK INTER:                  -7.825
REMARK INTRA:                  -0.794
REMARK UNBOUND:                -0.922
REMARK  Name = 
REMARK  5 active torsions:
REMARK  status: ('A' for Active; 'I' for Inactive)
REMARK    1  A    between atoms: C_2  and  C_4
REMARK    2  A    between atoms: N_11  and  C_12
REMARK    3  A    between atoms: C_12  and  C_13
REMARK    4  A    between atoms: C_16  and  O_17
REMARK    5  A    between atoms: O_17  and  C_18
REMARK                            x       y       z     vdW  Elec       q    Type
REMARK                         _______ _______ _______ _____ _____    ______ ____
ROOT
ATOM      1  C   UNL     1      49.389   5.605  18.712  0.00  0.00    +0.000 A 
ATOM      2  C   UNL     1      49.724   4.919  17.546  0.00  0.00    +0.000 A 
ATOM      3  N   UNL     1      49.581   5.382  16.273  0.00  0.00    +0.000 NA
ATOM      4  C   UNL     1      49.093   6.638  16.230  0.00  0.00    +0.000 A 
ATOM      5  C   UNL     1      48.748   7.445  17.312  0.00  0.00    +0.000 A 
ATOM      6  C   UNL     1      48.301   8.688  16.793  0.00  0.00    +0.000 A 
ATOM      7  C   UNL     1      48.364   8.609  15.418  0.00  0.00    +0.000 A 
ATOM      8  N   UNL     1      48.846   7.363  15.086  0.00  0.00    +0.000 N 
ATOM      9  C   UNL     1      48.898   6.910  18.603  0.00  0.00    +0.000 A 
ENDROOT
BRANCH   1  11
ATOM     10  N   UNL     1      48.639   4.012  20.384  0.00  0.00    +0.000 N 
ATOM     11  C   UNL     1      49.571   4.941  20.017  0.00  0.00    +0.000 C 
ATOM     12  O   UNL     1      50.537   5.181  20.729  0.00  0.00    +0.000 OA
ATOM     13  H   UNL     1      48.827   3.489  21.233  0.00  0.00    +0.000 HD
ATOM     14  H   UNL     1      47.974   3.614  19.732  0.00  0.00    +0.000 HD
ENDBRANCH   1  11
BRANCH   8  15
ATOM     15  C   UNL     1      49.020   6.877  13.723  0.00  0.00    +0.000 C 
BRANCH  15  16
ATOM     16  C   UNL     1      47.737   6.290  13.189  0.00  0.00    +0.000 A 
ATOM     17  C   UNL     1      47.207   6.739  11.971  0.00  0.00    +0.000 A 
ATOM     18  C   UNL     1      45.980   6.258  11.497  0.00  0.00    +0.000 A 
ATOM     19  C   UNL     1      45.279   5.297  12.222  0.00  0.00    +0.000 A 
ATOM     20  C   UNL     1      45.801   4.853  13.441  0.00  0.00    +0.000 A 
ATOM     21  C   UNL     1      47.020   5.336  13.920  0.00  0.00    +0.000 A 
BRANCH  19  22
ATOM     22  O   UNL     1      44.085   4.733  11.894  0.00  0.00    +0.000 OA
BRANCH  22  23
ATOM     23  C   UNL     1      44.027   3.685  10.940  0.00  0.00    +0.000 C 
ATOM     24  F   UNL     1      45.172   2.981  10.832  0.00  0.00    +0.000 F 
ATOM     25  F   UNL     1      43.057   2.824  11.324  0.00  0.00    +0.000 F 
ATOM     26  F   UNL     1      43.693   4.181   9.731  0.00  0.00    +0.000 F 
ENDBRANCH  22  23
ENDBRANCH  19  22
ENDBRANCH  15  16
ENDBRANCH   8  15
TORSDOF 5
ENDMDL
MODEL 8
REMARK VINA RESULT:    -5.936      4.340      6.159
REMARK INTER + INTRA:          -8.593
REMARK INTER:                  -8.157
REMARK INTRA:                  -0.436
REMARK UNBOUND:                -0.922
REMARK  Name = 
REMARK  5 active torsions:
REMARK  status: ('A' for Active; 'I' for Inactive)
REMARK    1  A    between atoms: C_2  and  C_4
REMARK    2  A    between atoms: N_11  and  C_12
REMARK    3  A    between atoms: C_12  and  C_13
REMARK    4  A    between atoms: C_16  and  O_17
REMARK    5  A    between atoms: O_17  and  C_18
REMARK                            x       y       z     vdW  Elec       q    Type
REMARK                         _______ _______ _______ _____ _____    ______ ____
ROOT
ATOM      1  C   UNL     1      47.893   4.651  16.867  0.00  0.00    +0.000 A 
ATOM      2  C   UNL     1      47.720   4.555  15.487  0.00  0.00    +0.000 A 
ATOM      3  N   UNL     1      48.069   5.498  14.568  0.00  0.00    +0.000 NA
ATOM      4  C   UNL     1      48.655   6.576  15.126  0.00  0.00    +0.000 A 
ATOM      5  C   UNL     1      48.916   6.786  16.479  0.00  0.00    +0.000 A 
ATOM      6  C   UNL     1      49.560   8.045  16.599  0.00  0.00    +0.000 A 
ATOM      7  C   UNL     1      49.663   8.580  15.332  0.00  0.00    +0.000 A 
ATOM      8  N   UNL     1      49.112   7.682  14.446  0.00  0.00    +0.000 N 
ATOM      9  C   UNL     1      48.519   5.789  17.386  0.00  0.00    +0.000 A 
ENDROOT
BRANCH   1  11
ATOM     10  N   UNL     1      48.110   3.324  18.888  0.00  0.00    +0.000 N 
ATOM     11  C   UNL     1      47.422   3.551  17.730  0.00  0.00    +0.000 C 
ATOM     12  O   UNL     1      46.432   2.890  17.444  0.00  0.00    +0.000 OA
ATOM     13  H   UNL     1      47.719   2.635  19.523  0.00  0.00    +0.000 HD
ATOM     14  H   UNL     1      48.770   3.988  19.275  0.00  0.00    +0.000 HD
ENDBRANCH   1  11
BRANCH   8  15
ATOM     15  C   UNL     1      48.992   7.901  13.010  0.00  0.00    +0.000 C 
BRANCH  15  16
ATOM     16  C   UNL     1      47.573   7.685  12.544  0.00  0.00    +0.000 A 
ATOM     17  C   UNL     1      46.535   8.480  13.050  0.00  0.00    +0.000 A 
ATOM     18  C   UNL     1      45.203   8.244  12.685  0.00  0.00    +0.000 A 
ATOM     19  C   UNL     1      44.895   7.227  11.784  0.00  0.00    +0.000 A 
ATOM     20  C   UNL     1      45.928   6.428  11.285  0.00  0.00    +0.000 A 
ATOM     21  C   UNL     1      47.255   6.655  11.652  0.00  0.00    +0.000 A 
BRANCH  19  22
ATOM     22  O   UNL     1      43.660   6.880  11.332  0.00  0.00    +0.000 OA
BRANCH  22  23
ATOM     23  C   UNL     1      43.052   5.674  11.764  0.00  0.00    +0.000 C 
ATOM     24  F   UNL     1      41.705   5.730  11.815  0.00  0.00    +0.000 F 
ATOM     25  F   UNL     1      43.384   4.701  10.884  0.00  0.00    +0.000 F 
ATOM     26  F   UNL     1      43.529   5.325  12.975  0.00  0.00    +0.000 F 
ENDBRANCH  22  23
ENDBRANCH  19  22
ENDBRANCH  15  16
ENDBRANCH   8  15
TORSDOF 5
ENDMDL
MODEL 9
REMARK VINA RESULT:    -5.848      3.325      4.524
REMARK INTER + INTRA:          -8.479
REMARK INTER:                  -7.848
REMARK INTRA:                  -0.631
REMARK UNBOUND:                -0.922
REMARK  Name = 
REMARK  5 active torsions:
REMARK  status: ('A' for Active; 'I' for Inactive)
REMARK    1  A    between atoms: C_2  and  C_4
REMARK    2  A    between atoms: N_11  and  C_12
REMARK    3  A    between atoms: C_12  and  C_13
REMARK    4  A    between atoms: C_16  and  O_17
REMARK    5  A    between atoms: O_17  and  C_18
REMARK                            x       y       z     vdW  Elec       q    Type
REMARK                         _______ _______ _______ _____ _____    ______ ____
ROOT
ATOM      1  C   UNL     1      50.741   9.341  11.092  0.00  0.00    +0.000 A 
ATOM      2  C   UNL     1      50.757   8.015  11.520  0.00  0.00    +0.000 A 
ATOM      3  N   UNL     1      49.735   7.358  12.135  0.00  0.00    +0.000 NA
ATOM      4  C   UNL     1      48.635   8.125  12.277  0.00  0.00    +0.000 A 
ATOM      5  C   UNL     1      48.473   9.448  11.868  0.00  0.00    +0.000 A 
ATOM      6  C   UNL     1      47.151   9.839  12.203  0.00  0.00    +0.000 A 
ATOM      7  C   UNL     1      46.544   8.765  12.819  0.00  0.00    +0.000 A 
ATOM      8  N   UNL     1      47.452   7.730  12.859  0.00  0.00    +0.000 N 
ATOM      9  C   UNL     1      49.566  10.083  11.254  0.00  0.00    +0.000 A 
ENDROOT
BRANCH   1  11
ATOM     10  N   UNL     1      51.856  11.175   9.957  0.00  0.00    +0.000 N 
ATOM     11  C   UNL     1      51.952   9.915  10.475  0.00  0.00    +0.000 C 
ATOM     12  O   UNL     1      53.013   9.304  10.458  0.00  0.00    +0.000 OA
ATOM     13  H   UNL     1      52.717  11.599   9.628  0.00  0.00    +0.000 HD
ATOM     14  H   UNL     1      51.083  11.796  10.162  0.00  0.00    +0.000 HD
ENDBRANCH   1  11
BRANCH   8  15
ATOM     15  C   UNL     1      47.202   6.431  13.470  0.00  0.00    +0.000 C 
BRANCH  15  16
ATOM     16  C   UNL     1      46.337   5.571  12.583  0.00  0.00    +0.000 A 
ATOM     17  C   UNL     1      45.842   4.346  13.052  0.00  0.00    +0.000 A 
ATOM     18  C   UNL     1      45.100   3.501  12.217  0.00  0.00    +0.000 A 
ATOM     19  C   UNL     1      44.817   3.885  10.908  0.00  0.00    +0.000 A 
ATOM     20  C   UNL     1      45.316   5.102  10.435  0.00  0.00    +0.000 A 
ATOM     21  C   UNL     1      46.063   5.943  11.262  0.00  0.00    +0.000 A 
BRANCH  19  22
ATOM     22  O   UNL     1      44.110   3.181   9.983  0.00  0.00    +0.000 OA
BRANCH  22  23
ATOM     23  C   UNL     1      44.784   2.425   8.990  0.00  0.00    +0.000 C 
ATOM     24  F   UNL     1      44.278   1.188   8.808  0.00  0.00    +0.000 F 
ATOM     25  F   UNL     1      44.670   3.085   7.814  0.00  0.00    +0.000 F 
ATOM     26  F   UNL     1      46.094   2.330   9.292  0.00  0.00    +0.000 F 
ENDBRANCH  22  23
ENDBRANCH  19  22
ENDBRANCH  15  16
ENDBRANCH   8  15
TORSDOF 5
ENDMDL
