MODEL 1
REMARK VINA RESULT:    -8.465      0.000      0.000
REMARK INTER + INTRA:          -9.357
REMARK INTER:                  -9.950
REMARK INTRA:                   0.593
REMARK UNBOUND:                 0.593
REMARK  Name = 
REMARK  3 active torsions:
REMARK  status: ('A' for Active; 'I' for Inactive)
REMARK    1  A    between atoms: C_2  and  C_4
REMARK    2  A    between atoms: N_8  and  C_9
REMARK    3  A    between atoms: C_9  and  C_10
REMARK                            x       y       z     vdW  Elec       q    Type
REMARK                         _______ _______ _______ _____ _____    ______ ____
ROOT
ATOM      1  C   UNL     1      46.340   2.120   7.891  0.00  0.00    +0.000 A 
ATOM      2  C   UNL     1      46.394   3.413   7.382  0.00  0.00    +0.000 A 
ATOM      3  C   UNL     1      45.672   4.418   8.023  0.00  0.00    +0.000 A 
ATOM      4  C   UNL     1      44.933   4.126   9.173  0.00  0.00    +0.000 A 
ATOM      5  N   UNL     1      44.299   5.218   9.806  0.00  0.00    +0.000 N 
ATOM      6  N   UNL     1      44.868   2.874   9.669  0.00  0.00    +0.000 NA
ATOM      7  C   UNL     1      45.546   1.897   9.009  0.00  0.00    +0.000 A 
ATOM      8  H   UNL     1      43.673   5.674   9.152  0.00  0.00    +0.000 HD
ENDROOT
BRANCH   1  10
ATOM      9  N   UNL     1      46.729  -0.267   7.673  0.00  0.00    +0.000 N 
ATOM     10  C   UNL     1      47.082   0.996   7.286  0.00  0.00    +0.000 C 
ATOM     11  O   UNL     1      47.954   1.184   6.447  0.00  0.00    +0.000 OA
ATOM     12  H   UNL     1      47.169  -1.031   7.175  0.00  0.00    +0.000 HD
ATOM     13  H   UNL     1      45.859  -0.465   8.151  0.00  0.00    +0.000 HD
ENDBRANCH   1  10
BRANCH   5  14
ATOM     14  C   UNL     1      43.888   5.216  11.226  0.00  0.00    +0.000 C 
ATOM     15  C   UNL     1      42.959   4.058  11.573  0.00  0.00    +0.000 C 
ATOM     16  C   UNL     1      42.457   5.461  11.659  0.00  0.00    +0.000 C 
BRANCH  14  17
ATOM     17  C   UNL     1      44.960   5.595  12.254  0.00  0.00    +0.000 C 
ATOM     18  C   UNL     1      45.918   6.664  11.706  0.00  0.00    +0.000 C 
ATOM     19  C   UNL     1      46.940   7.081  12.760  0.00  0.00    +0.000 C 
ATOM     20  C   UNL     1      47.712   5.881  13.300  0.00  0.00    +0.000 C 
ATOM     21  C   UNL     1      46.778   4.790  13.817  0.00  0.00    +0.000 C 
ATOM     22  C   UNL     1      45.747   4.378  12.764  0.00  0.00    +0.000 C 
ENDBRANCH  14  17
ENDBRANCH   5  14
TORSDOF 3
ENDMDL
MODEL 2
REMARK VINA RESULT:    -7.791      3.344      6.274
REMARK INTER + INTRA:          -8.564
REMARK INTER:                  -8.104
REMARK INTRA:                  -0.461
REMARK UNBOUND:                 0.593
REMARK  Name = 
REMARK  3 active torsions:
REMARK  status: ('A' for Active; 'I' for Inactive)
REMARK    1  A    between atoms: C_2  and  C_4
REMARK    2  A    between atoms: N_8  and  C_9
REMARK    3  A    between atoms: C_9  and  C_10
REMARK                            x       y       z     vdW  Elec       q    Type
REMARK                         _______ _______ _______ _____ _____    ______ ____
ROOT
ATOM      1  C   UNL     1      47.888   6.742  14.223  0.00  0.00    +0.000 A 
ATOM      2  C   UNL     1      47.422   7.871  13.559  0.00  0.00    +0.000 A 
ATOM      3  C   UNL     1      46.483   7.712  12.541  0.00  0.00    +0.000 A 
ATOM      4  C   UNL     1      46.005   6.438  12.220  0.00  0.00    +0.000 A 
ATOM      5  N   UNL     1      44.997   6.375  11.234  0.00  0.00    +0.000 N 
ATOM      6  N   UNL     1      46.458   5.337  12.852  0.00  0.00    +0.000 NA
ATOM      7  C   UNL     1      47.403   5.505  13.816  0.00  0.00    +0.000 A 
ATOM      8  H   UNL     1      45.334   6.798  10.375  0.00  0.00    +0.000 HD
ENDROOT
BRANCH   1  10
ATOM      9  N   UNL     1      48.384   7.005  16.586  0.00  0.00    +0.000 N 
ATOM     10  C   UNL     1      48.870   6.815  15.322  0.00  0.00    +0.000 C 
ATOM     11  O   UNL     1      50.070   6.677  15.117  0.00  0.00    +0.000 OA
ATOM     12  H   UNL     1      49.055   6.946  17.341  0.00  0.00    +0.000 HD
ATOM     13  H   UNL     1      47.410   6.862  16.819  0.00  0.00    +0.000 HD
ENDBRANCH   1  10
BRANCH   5  14
ATOM     14  C   UNL     1      44.058   5.243  11.093  0.00  0.00    +0.000 C 
ATOM     15  C   UNL     1      42.616   5.626  11.408  0.00  0.00    +0.000 C 
ATOM     16  C   UNL     1      43.326   4.641  12.276  0.00  0.00    +0.000 C 
BRANCH  14  17
ATOM     17  C   UNL     1      44.296   4.293   9.914  0.00  0.00    +0.000 C 
ATOM     18  C   UNL     1      44.437   2.836  10.381  0.00  0.00    +0.000 C 
ATOM     19  C   UNL     1      44.608   1.891   9.194  0.00  0.00    +0.000 C 
ATOM     20  C   UNL     1      45.786   2.301   8.315  0.00  0.00    +0.000 C 
ATOM     21  C   UNL     1      45.684   3.757   7.870  0.00  0.00    +0.000 C 
ATOM     22  C   UNL     1      45.503   4.703   9.058  0.00  0.00    +0.000 C 
ENDBRANCH  14  17
ENDBRANCH   5  14
TORSDOF 3
ENDMDL
MODEL 3
REMARK VINA RESULT:    -6.531      4.086      6.734
REMARK INTER + INTRA:          -7.084
REMARK INTER:                  -7.240
REMARK INTRA:                   0.156
REMARK UNBOUND:                 0.593
REMARK  Name = 
REMARK  3 active torsions:
REMARK  status: ('A' for Active; 'I' for Inactive)
REMARK    1  A    between atoms: C_2  and  C_4
REMARK    2  A    between atoms: N_8  and  C_9
REMARK    3  A    between atoms: C_9  and  C_10
REMARK                            x       y       z     vdW  Elec       q    Type
REMARK                         _______ _______ _______ _____ _____    ______ ____
ROOT
ATOM      1  C   UNL     1      48.019   4.973  16.209  0.00  0.00    +0.000 A 
ATOM      2  C   UNL     1      48.502   6.143  15.633  0.00  0.00    +0.000 A 
ATOM      3  C   UNL     1      48.065   6.493  14.357  0.00  0.00    +0.000 A 
ATOM      4  C   UNL     1      47.138   5.689  13.687  0.00  0.00    +0.000 A 
ATOM      5  N   UNL     1      46.688   6.159  12.434  0.00  0.00    +0.000 N 
ATOM      6  N   UNL     1      46.672   4.548  14.234  0.00  0.00    +0.000 NA
ATOM      7  C   UNL     1      47.138   4.201  15.463  0.00  0.00    +0.000 A 
ATOM      8  H   UNL     1      47.481   6.288  11.814  0.00  0.00    +0.000 HD
ENDROOT
BRANCH   1  10
ATOM      9  N   UNL     1      47.424   4.407  18.494  0.00  0.00    +0.000 N 
ATOM     10  C   UNL     1      48.415   4.530  17.561  0.00  0.00    +0.000 C 
ATOM     11  O   UNL     1      49.577   4.252  17.827  0.00  0.00    +0.000 OA
ATOM     12  H   UNL     1      47.689   4.002  19.383  0.00  0.00    +0.000 HD
ATOM     13  H   UNL     1      46.443   4.374  18.244  0.00  0.00    +0.000 HD
ENDBRANCH   1  10
BRANCH   5  14
ATOM     14  C   UNL     1      45.417   5.736  11.809  0.00  0.00    +0.000 C 
ATOM     15  C   UNL     1      44.470   6.902  11.545  0.00  0.00    +0.000 C 
ATOM     16  C   UNL     1      44.085   5.842  12.523  0.00  0.00    +0.000 C 
BRANCH  14  17
ATOM     17  C   UNL     1      45.506   4.641  10.741  0.00  0.00    +0.000 C 
ATOM     18  C   UNL     1      45.673   5.233   9.334  0.00  0.00    +0.000 C 
ATOM     19  C   UNL     1      45.826   4.133   8.286  0.00  0.00    +0.000 C 
ATOM     20  C   UNL     1      44.660   3.149   8.331  0.00  0.00    +0.000 C 
ATOM     21  C   UNL     1      44.454   2.575   9.730  0.00  0.00    +0.000 C 
ATOM     22  C   UNL     1      44.310   3.678  10.781  0.00  0.00    +0.000 C 
ENDBRANCH  14  17
ENDBRANCH   5  14
TORSDOF 3
ENDMDL
MODEL 4
REMARK VINA RESULT:    -6.375      3.642      5.582
REMARK INTER + INTRA:          -6.900
REMARK INTER:                  -6.241
REMARK INTRA:                  -0.659
REMARK UNBOUND:                 0.593
REMARK  Name = 
REMARK  3 active torsions:
REMARK  status: ('A' for Active; 'I' for Inactive)
REMARK    1  A    between atoms: C_2  and  C_4
REMARK    2  A    between atoms: N_8  and  C_9
REMARK    3  A    between atoms: C_9  and  C_10
REMARK                            x       y       z     vdW  Elec       q    Type
REMARK                         _______ _______ _______ _____ _____    ______ ____
ROOT
ATOM      1  C   UNL     1      44.683   4.890  11.976  0.00  0.00    +0.000 A 
ATOM      2  C   UNL     1      44.206   6.112  11.516  0.00  0.00    +0.000 A 
ATOM      3  C   UNL     1      44.984   7.252  11.707  0.00  0.00    +0.000 A 
ATOM      4  C   UNL     1      46.233   7.153  12.327  0.00  0.00    +0.000 A 
ATOM      5  N   UNL     1      46.991   8.342  12.407  0.00  0.00    +0.000 N 
ATOM      6  N   UNL     1      46.700   5.975  12.785  0.00  0.00    +0.000 NA
ATOM      7  C   UNL     1      45.911   4.878  12.626  0.00  0.00    +0.000 A 
ATOM      8  H   UNL     1      46.461   9.051  12.904  0.00  0.00    +0.000 HD
ENDROOT
BRANCH   1  10
ATOM      9  N   UNL     1      44.352   2.550  12.533  0.00  0.00    +0.000 N 
ATOM     10  C   UNL     1      43.935   3.629  11.806  0.00  0.00    +0.000 C 
ATOM     11  O   UNL     1      42.958   3.560  11.070  0.00  0.00    +0.000 OA
ATOM     12  H   UNL     1      43.769   1.723  12.490  0.00  0.00    +0.000 HD
ATOM     13  H   UNL     1      44.973   2.638  13.328  0.00  0.00    +0.000 HD
ENDBRANCH   1  10
BRANCH   5  14
ATOM     14  C   UNL     1      48.459   8.368  12.579  0.00  0.00    +0.000 C 
ATOM     15  C   UNL     1      49.165   9.202  11.516  0.00  0.00    +0.000 C 
ATOM     16  C   UNL     1      49.405   7.731  11.582  0.00  0.00    +0.000 C 
BRANCH  14  17
ATOM     17  C   UNL     1      48.983   8.463  14.016  0.00  0.00    +0.000 C 
ATOM     18  C   UNL     1      49.533   7.115  14.508  0.00  0.00    +0.000 C 
ATOM     19  C   UNL     1      50.112   7.237  15.916  0.00  0.00    +0.000 C 
ATOM     20  C   UNL     1      49.089   7.802  16.896  0.00  0.00    +0.000 C 
ATOM     21  C   UNL     1      48.503   9.124  16.409  0.00  0.00    +0.000 C 
ATOM     22  C   UNL     1      47.931   9.005  14.995  0.00  0.00    +0.000 C 
ENDBRANCH  14  17
ENDBRANCH   5  14
TORSDOF 3
ENDMDL
MODEL 5
REMARK VINA RESULT:    -6.164      2.341      3.913
REMARK INTER + INTRA:          -6.652
REMARK INTER:                  -6.097
REMARK INTRA:                  -0.556
REMARK UNBOUND:                 0.593
REMARK  Name = 
REMARK  3 active torsions:
REMARK  status: ('A' for Active; 'I' for Inactive)
REMARK    1  A    between atoms: C_2  and  C_4
REMARK    2  A    between atoms: N_8  and  C_9
REMARK    3  A    between atoms: C_9  and  C_10
REMARK                            x       y       z     vdW  Elec       q    Type
REMARK                         _______ _______ _______ _____ _____    ______ ____
ROOT
ATOM      1  C   UNL     1      44.592   4.244   9.895  0.00  0.00    +0.000 A 
ATOM      2  C   UNL     1      43.562   4.432  10.810  0.00  0.00    +0.000 A 
ATOM      3  C   UNL     1      43.631   5.513  11.687  0.00  0.00    +0.000 A 
ATOM      4  C   UNL     1      44.708   6.402  11.620  0.00  0.00    +0.000 A 
ATOM      5  N   UNL     1      44.658   7.514  12.489  0.00  0.00    +0.000 N 
ATOM      6  N   UNL     1      45.715   6.223  10.743  0.00  0.00    +0.000 NA
ATOM      7  C   UNL     1      45.652   5.141   9.921  0.00  0.00    +0.000 A 
ATOM      8  H   UNL     1      44.589   7.194  13.449  0.00  0.00    +0.000 HD
ENDROOT
BRANCH   1  10
ATOM      9  N   UNL     1      44.543   1.864   9.417  0.00  0.00    +0.000 N 
ATOM     10  C   UNL     1      44.597   3.136   8.919  0.00  0.00    +0.000 C 
ATOM     11  O   UNL     1      44.613   3.347   7.713  0.00  0.00    +0.000 OA
ATOM     12  H   UNL     1      44.439   1.118   8.740  0.00  0.00    +0.000 HD
ATOM     13  H   UNL     1      44.269   1.665  10.370  0.00  0.00    +0.000 HD
ENDBRANCH   1  10
BRANCH   5  14
ATOM     14  C   UNL     1      45.408   8.767  12.260  0.00  0.00    +0.000 C 
ATOM     15  C   UNL     1      44.525  10.008  12.328  0.00  0.00    +0.000 C 
ATOM     16  C   UNL     1      45.182   9.638  11.040  0.00  0.00    +0.000 C 
BRANCH  14  17
ATOM     17  C   UNL     1      46.805   8.858  12.883  0.00  0.00    +0.000 C 
ATOM     18  C   UNL     1      47.886   9.101  11.819  0.00  0.00    +0.000 C 
ATOM     19  C   UNL     1      49.264   9.255  12.458  0.00  0.00    +0.000 C 
ATOM     20  C   UNL     1      49.615   8.054  13.331  0.00  0.00    +0.000 C 
ATOM     21  C   UNL     1      48.536   7.774  14.374  0.00  0.00    +0.000 C 
ATOM     22  C   UNL     1      47.154   7.628  13.735  0.00  0.00    +0.000 C 
ENDBRANCH  14  17
ENDBRANCH   5  14
TORSDOF 3
ENDMDL
MODEL 6
REMARK VINA RESULT:    -6.143      3.262      5.213
REMARK INTER + INTRA:          -6.627
REMARK INTER:                  -6.797
REMARK INTRA:                   0.169
REMARK UNBOUND:                 0.593
REMARK  Name = 
REMARK  3 active torsions:
REMARK  status: ('A' for Active; 'I' for Inactive)
REMARK    1  A    between atoms: C_2  and  C_4
REMARK    2  A    between atoms: N_8  and  C_9
REMARK    3  A    between atoms: C_9  and  C_10
REMARK                            x       y       z     vdW  Elec       q    Type
REMARK                         _______ _______ _______ _____ _____    ______ ____
ROOT
ATOM      1  C   UNL     1      44.959   3.749  11.507  0.00  0.00    +0.000 A 
ATOM      2  C   UNL     1      45.539   3.511  12.748  0.00  0.00    +0.000 A 
ATOM      3  C   UNL     1      46.412   4.461  13.275  0.00  0.00    +0.000 A 
ATOM      4  C   UNL     1      46.673   5.641  12.572  0.00  0.00    +0.000 A 
ATOM      5  N   UNL     1      47.505   6.584  13.214  0.00  0.00    +0.000 N 
ATOM      6  N   UNL     1      46.123   5.876  11.364  0.00  0.00    +0.000 NA
ATOM      7  C   UNL     1      45.303   4.922  10.846  0.00  0.00    +0.000 A 
ATOM      8  H   UNL     1      48.399   6.157  13.432  0.00  0.00    +0.000 HD
ENDROOT
BRANCH   1  10
ATOM      9  N   UNL     1      44.433   2.155   9.753  0.00  0.00    +0.000 N 
ATOM     10  C   UNL     1      44.012   2.808  10.878  0.00  0.00    +0.000 C 
ATOM     11  O   UNL     1      42.908   2.593  11.362  0.00  0.00    +0.000 OA
ATOM     12  H   UNL     1      43.819   1.435   9.392  0.00  0.00    +0.000 HD
ATOM     13  H   UNL     1      45.408   2.109   9.484  0.00  0.00    +0.000 HD
ENDBRANCH   1  10
BRANCH   5  14
ATOM     14  C   UNL     1      47.519   8.024  12.882  0.00  0.00    +0.000 C 
ATOM     15  C   UNL     1      47.233   8.913  14.086  0.00  0.00    +0.000 C 
ATOM     16  C   UNL     1      46.274   8.886  12.943  0.00  0.00    +0.000 C 
BRANCH  14  17
ATOM     17  C   UNL     1      48.595   8.493  11.895  0.00  0.00    +0.000 C 
ATOM     18  C   UNL     1      49.895   7.691  12.051  0.00  0.00    +0.000 C 
ATOM     19  C   UNL     1      50.936   8.122  11.021  0.00  0.00    +0.000 C 
ATOM     20  C   UNL     1      51.207   9.621  11.090  0.00  0.00    +0.000 C 
ATOM     21  C   UNL     1      49.922  10.438  10.973  0.00  0.00    +0.000 C 
ATOM     22  C   UNL     1      48.875  10.000  11.999  0.00  0.00    +0.000 C 
ENDBRANCH  14  17
ENDBRANCH   5  14
TORSDOF 3
ENDMDL
MODEL 7
REMARK VINA RESULT:    -5.878      6.609      8.870
REMARK INTER + INTRA:          -6.316
REMARK INTER:                  -5.883
REMARK INTRA:                  -0.433
REMARK UNBOUND:                 0.593
REMARK  Name = 
REMARK  3 active torsions:
REMARK  status: ('A' for Active; 'I' for Inactive)
REMARK    1  A    between atoms: C_2  and  C_4
REMARK    2  A    between atoms: N_8  and  C_9
REMARK    3  A    between atoms: C_9  and  C_10
REMARK                            x       y       z     vdW  Elec       q    Type
REMARK                         _______ _______ _______ _____ _____    ______ ____
ROOT
ATOM      1  C   UNL     1      52.229   1.783  17.716  0.00  0.00    +0.000 A 
ATOM      2  C   UNL     1      52.562   3.009  18.279  0.00  0.00    +0.000 A 
ATOM      3  C   UNL     1      51.682   4.079  18.128  0.00  0.00    +0.000 A 
ATOM      4  C   UNL     1      50.476   3.904  17.443  0.00  0.00    +0.000 A 
ATOM      5  N   UNL     1      49.607   5.016  17.407  0.00  0.00    +0.000 N 
ATOM      6  N   UNL     1      50.149   2.721  16.886  0.00  0.00    +0.000 NA
ATOM      7  C   UNL     1      51.036   1.698  17.009  0.00  0.00    +0.000 A 
ATOM      8  H   UNL     1      50.083   5.806  16.985  0.00  0.00    +0.000 HD
ENDROOT
BRANCH   1  10
ATOM      9  N   UNL     1      52.580  -0.489  18.499  0.00  0.00    +0.000 N 
ATOM     10  C   UNL     1      53.093   0.591  17.837  0.00  0.00    +0.000 C 
ATOM     11  O   UNL     1      54.210   0.558  17.336  0.00  0.00    +0.000 OA
ATOM     12  H   UNL     1      53.137  -1.334  18.483  0.00  0.00    +0.000 HD
ATOM     13  H   UNL     1      51.591  -0.590  18.690  0.00  0.00    +0.000 HD
ENDBRANCH   1  10
BRANCH   5  14
ATOM     14  C   UNL     1      48.152   4.912  17.168  0.00  0.00    +0.000 C 
ATOM     15  C   UNL     1      47.326   5.156  18.425  0.00  0.00    +0.000 C 
ATOM     16  C   UNL     1      47.305   3.812  17.776  0.00  0.00    +0.000 C 
BRANCH  14  17
ATOM     17  C   UNL     1      47.626   5.496  15.852  0.00  0.00    +0.000 C 
ATOM     18  C   UNL     1      47.145   4.394  14.896  0.00  0.00    +0.000 C 
ATOM     19  C   UNL     1      46.563   4.990  13.616  0.00  0.00    +0.000 C 
ATOM     20  C   UNL     1      47.559   5.917  12.925  0.00  0.00    +0.000 C 
ATOM     21  C   UNL     1      48.078   6.999  13.869  0.00  0.00    +0.000 C 
ATOM     22  C   UNL     1      48.652   6.402  15.155  0.00  0.00    +0.000 C 
ENDBRANCH  14  17
ENDBRANCH   5  14
TORSDOF 3
ENDMDL
MODEL 8
REMARK VINA RESULT:    -5.837      4.385      6.472
REMARK INTER + INTRA:          -6.268
REMARK INTER:                  -5.637
REMARK INTRA:                  -0.631
REMARK UNBOUND:                 0.593
REMARK  Name = 
REMARK  3 active torsions:
REMARK  status: ('A' for Active; 'I' for Inactive)
REMARK    1  A    between atoms: C_2  and  C_4
REMARK    2  A    between atoms: N_8  and  C_9
REMARK    3  A    between atoms: C_9  and  C_10
REMARK                            x       y       z     vdW  Elec       q    Type
REMARK                         _______ _______ _______ _____ _____    ______ ____
ROOT
ATOM      1  C   UNL     1      44.564   6.053  12.189  0.00  0.00    +0.000 A 
ATOM      2  C   UNL     1      45.230   4.973  12.756  0.00  0.00    +0.000 A 
ATOM      3  C   UNL     1      46.502   5.172  13.290  0.00  0.00    +0.000 A 
ATOM      4  C   UNL     1      47.077   6.446  13.275  0.00  0.00    +0.000 A 
ATOM      5  N   UNL     1      48.332   6.576  13.909  0.00  0.00    +0.000 N 
ATOM      6  N   UNL     1      46.443   7.498  12.720  0.00  0.00    +0.000 NA
ATOM      7  C   UNL     1      45.219   7.278  12.168  0.00  0.00    +0.000 A 
ATOM      8  H   UNL     1      48.996   5.939  13.483  0.00  0.00    +0.000 HD
ENDROOT
BRANCH   1  10
ATOM      9  N   UNL     1      42.610   7.093  11.190  0.00  0.00    +0.000 N 
ATOM     10  C   UNL     1      43.210   5.940  11.613  0.00  0.00    +0.000 C 
ATOM     11  O   UNL     1      42.659   4.853  11.486  0.00  0.00    +0.000 OA
ATOM     12  H   UNL     1      41.730   6.991  10.700  0.00  0.00    +0.000 HD
ATOM     13  H   UNL     1      43.127   7.950  11.039  0.00  0.00    +0.000 HD
ENDBRANCH   1  10
BRANCH   5  14
ATOM     14  C   UNL     1      48.869   7.860  14.408  0.00  0.00    +0.000 C 
ATOM     15  C   UNL     1      49.290   7.797  15.872  0.00  0.00    +0.000 C 
ATOM     16  C   UNL     1      48.159   8.682  15.465  0.00  0.00    +0.000 C 
BRANCH  14  17
ATOM     17  C   UNL     1      49.762   8.653  13.448  0.00  0.00    +0.000 C 
ATOM     18  C   UNL     1      49.130   9.999  13.067  0.00  0.00    +0.000 C 
ATOM     19  C   UNL     1      50.057  10.808  12.164  0.00  0.00    +0.000 C 
ATOM     20  C   UNL     1      50.457  10.021  10.920  0.00  0.00    +0.000 C 
ATOM     21  C   UNL     1      51.055   8.662  11.275  0.00  0.00    +0.000 C 
ATOM     22  C   UNL     1      50.130   7.855  12.188  0.00  0.00    +0.000 C 
ENDBRANCH  14  17
ENDBRANCH   5  14
TORSDOF 3
ENDMDL
