MODEL 1
REMARK VINA RESULT:    -8.780      0.000      0.000
REMARK INTER + INTRA:         -13.064
REMARK INTER:                 -11.859
REMARK INTRA:                  -1.205
REMARK UNBOUND:                -1.205
REMARK  Name = 
REMARK  7 active torsions:
REMARK  status: ('A' for Active; 'I' for Inactive)
REMARK    1  A    between atoms: C_1  and  C_2
REMARK    2  A    between atoms: C_4  and  C_5
REMARK    3  A    between atoms: C_5  and  N_6
REMARK    4  A    between atoms: C_7  and  C_9
REMARK    5  A    between atoms: C_21  and  C_22
REMARK    6  A    between atoms: C_22  and  N_23
REMARK    7  A    between atoms: C_24  and  C_26
REMARK                            x       y       z     vdW  Elec       q    Type
REMARK                         _______ _______ _______ _____ _____    ______ ____
ROOT
ATOM      1  C   UNL     1      42.928   5.150  12.412  0.00  0.00    +0.000 C 
ATOM      2  C   UNL     1      44.248   5.691  11.934  0.00  0.00    +0.000 A 
ATOM      3  C   UNL     1      44.940   6.592  12.771  0.00  0.00    +0.000 A 
ATOM      4  C   UNL     1      46.176   7.139  12.402  0.00  0.00    +0.000 A 
ATOM      5  C   UNL     1      46.744   6.742  11.189  0.00  0.00    +0.000 A 
ATOM      6  C   UNL     1      46.068   5.856  10.346  0.00  0.00    +0.000 A 
ATOM      7  C   UNL     1      44.806   5.334  10.689  0.00  0.00    +0.000 A 
ENDROOT
BRANCH   4   8
ATOM      8  C   UNL     1      46.901   8.092  13.319  0.00  0.00    +0.000 C 
BRANCH   8   9
ATOM      9  N   UNL     1      47.378   7.409  14.496  0.00  0.00    +0.000 N 
ATOM     10  C   UNL     1      48.614   6.817  14.537  0.00  0.00    +0.000 C 
ATOM     11  O   UNL     1      49.393   6.871  13.590  0.00  0.00    +0.000 OA
ATOM     12  H   UNL     1      46.684   7.166  15.194  0.00  0.00    +0.000 HD
BRANCH  10  13
ATOM     13  C   UNL     1      48.984   6.165  15.801  0.00  0.00    +0.000 A 
ATOM     14  C   UNL     1      50.056   6.652  16.538  0.00  0.00    +0.000 A 
ATOM     15  S   UNL     1      50.319   5.816  18.000  0.00  0.00    +0.000 S 
ATOM     16  C   UNL     1      49.046   4.737  17.677  0.00  0.00    +0.000 A 
ATOM     17  N   UNL     1      48.749   3.729  18.541  0.00  0.00    +0.000 NA
ATOM     18  C   UNL     1      47.779   2.967  18.159  0.00  0.00    +0.000 A 
ATOM     19  N   UNL     1      47.075   3.124  16.994  0.00  0.00    +0.000 N 
ATOM     20  C   UNL     1      47.318   4.147  16.107  0.00  0.00    +0.000 A 
ATOM     21  O   UNL     1      46.634   4.286  15.097  0.00  0.00    +0.000 OA
ATOM     22  C   UNL     1      48.412   5.024  16.480  0.00  0.00    +0.000 A 
ATOM     23  H   UNL     1      46.317   2.500  16.760  0.00  0.00    +0.000 HD
ENDBRANCH  10  13
ENDBRANCH   8   9
ENDBRANCH   4   8
BRANCH   7  24
ATOM     24  C   UNL     1      44.136   4.388   9.712  0.00  0.00    +0.000 C 
BRANCH  24  25
ATOM     25  N   UNL     1      45.072   3.916   8.717  0.00  0.00    +0.000 N 
ATOM     26  C   UNL     1      45.413   2.593   8.590  0.00  0.00    +0.000 C 
ATOM     27  O   UNL     1      44.966   1.715   9.321  0.00  0.00    +0.000 OA
ATOM     28  H   UNL     1      45.343   4.570   7.996  0.00  0.00    +0.000 HD
BRANCH  26  29
ATOM     29  C   UNL     1      46.332   2.306   7.517  0.00  0.00    +0.000 A 
ATOM     30  C   UNL     1      47.199   1.252   7.291  0.00  0.00    +0.000 A 
ATOM     31  N   UNL     1      47.886   1.400   6.118  0.00  0.00    +0.000 NA
ATOM     32  C   UNL     1      47.444   2.524   5.605  0.00  0.00    +0.000 A 
ATOM     33  N   UNL     1      46.505   3.105   6.408  0.00  0.00    +0.000 N 
ATOM     34  H   UNL     1      46.013   3.970   6.229  0.00  0.00    +0.000 HD
ENDBRANCH  26  29
ENDBRANCH  24  25
ENDBRANCH   7  24
TORSDOF 6
ENDMDL
MODEL 2
REMARK VINA RESULT:    -7.764      2.228      3.719
REMARK INTER + INTRA:         -11.692
REMARK INTER:                 -10.596
REMARK INTRA:                  -1.096
REMARK UNBOUND:                -1.205
REMARK  Name = 
REMARK  7 active torsions:
REMARK  status: ('A' for Active; 'I' for Inactive)
REMARK    1  A    between atoms: C_1  and  C_2
REMARK    2  A    between atoms: C_4  and  C_5
REMARK    3  A    between atoms: C_5  and  N_6
REMARK    4  A    between atoms: C_7  and  C_9
REMARK    5  A    between atoms: C_21  and  C_22
REMARK    6  A    between atoms: C_22  and  N_23
REMARK    7  A    between atoms: C_24  and  C_26
REMARK                            x       y       z     vdW  Elec       q    Type
REMARK                         _______ _______ _______ _____ _____    ______ ____
ROOT
ATOM      1  C   UNL     1      44.214   6.805  11.415  0.00  0.00    +0.000 C 
ATOM      2  C   UNL     1      44.833   5.544  11.952  0.00  0.00    +0.000 A 
ATOM      3  C   UNL     1      45.551   5.620  13.165  0.00  0.00    +0.000 A 
ATOM      4  C   UNL     1      46.156   4.491  13.735  0.00  0.00    +0.000 A 
ATOM      5  C   UNL     1      46.003   3.259  13.094  0.00  0.00    +0.000 A 
ATOM      6  C   UNL     1      45.300   3.169  11.889  0.00  0.00    +0.000 A 
ATOM      7  C   UNL     1      44.726   4.305  11.287  0.00  0.00    +0.000 A 
ENDROOT
BRANCH   4   8
ATOM      8  C   UNL     1      46.909   4.596  15.037  0.00  0.00    +0.000 C 
BRANCH   8   9
ATOM      9  N   UNL     1      47.667   5.821  15.095  0.00  0.00    +0.000 N 
ATOM     10  C   UNL     1      48.767   5.953  15.903  0.00  0.00    +0.000 C 
ATOM     11  O   UNL     1      49.187   5.025  16.588  0.00  0.00    +0.000 OA
ATOM     12  H   UNL     1      47.222   6.651  14.718  0.00  0.00    +0.000 HD
BRANCH  10  13
ATOM     13  C   UNL     1      49.458   7.250  15.859  0.00  0.00    +0.000 A 
ATOM     14  C   UNL     1      49.717   7.931  17.041  0.00  0.00    +0.000 A 
ATOM     15  S   UNL     1      50.569   9.390  16.819  0.00  0.00    +0.000 S 
ATOM     16  C   UNL     1      50.574   9.195  15.130  0.00  0.00    +0.000 A 
ATOM     17  N   UNL     1      51.137  10.132  14.321  0.00  0.00    +0.000 NA
ATOM     18  C   UNL     1      51.046   9.873  13.060  0.00  0.00    +0.000 A 
ATOM     19  N   UNL     1      50.447   8.757  12.533  0.00  0.00    +0.000 N 
ATOM     20  C   UNL     1      49.895   7.768  13.313  0.00  0.00    +0.000 A 
ATOM     21  O   UNL     1      49.412   6.759  12.809  0.00  0.00    +0.000 OA
ATOM     22  C   UNL     1      49.955   8.019  14.741  0.00  0.00    +0.000 A 
ATOM     23  H   UNL     1      50.421   8.607  11.536  0.00  0.00    +0.000 HD
ENDBRANCH  10  13
ENDBRANCH   8   9
ENDBRANCH   4   8
BRANCH   7  24
ATOM     24  C   UNL     1      43.991   4.121   9.974  0.00  0.00    +0.000 C 
BRANCH  24  25
ATOM     25  N   UNL     1      44.794   3.385   9.025  0.00  0.00    +0.000 N 
ATOM     26  C   UNL     1      45.793   3.970   8.287  0.00  0.00    +0.000 C 
ATOM     27  O   UNL     1      46.067   5.164   8.364  0.00  0.00    +0.000 OA
ATOM     28  H   UNL     1      44.715   2.378   9.042  0.00  0.00    +0.000 HD
BRANCH  26  29
ATOM     29  C   UNL     1      46.511   3.070   7.420  0.00  0.00    +0.000 A 
ATOM     30  C   UNL     1      46.826   1.728   7.526  0.00  0.00    +0.000 A 
ATOM     31  N   UNL     1      47.531   1.283   6.443  0.00  0.00    +0.000 NA
ATOM     32  C   UNL     1      47.641   2.327   5.656  0.00  0.00    +0.000 A 
ATOM     33  N   UNL     1      47.040   3.427   6.198  0.00  0.00    +0.000 N 
ATOM     34  H   UNL     1      46.984   4.348   5.784  0.00  0.00    +0.000 HD
ENDBRANCH  26  29
ENDBRANCH  24  25
ENDBRANCH   7  24
TORSDOF 6
ENDMDL
MODEL 3
REMARK VINA RESULT:    -7.716      2.334      2.717
REMARK INTER + INTRA:         -11.627
REMARK INTER:                 -10.735
REMARK INTRA:                  -0.893
REMARK UNBOUND:                -1.205
REMARK  Name = 
REMARK  7 active torsions:
REMARK  status: ('A' for Active; 'I' for Inactive)
REMARK    1  A    between atoms: C_1  and  C_2
REMARK    2  A    between atoms: C_4  and  C_5
REMARK    3  A    between atoms: C_5  and  N_6
REMARK    4  A    between atoms: C_7  and  C_9
REMARK    5  A    between atoms: C_21  and  C_22
REMARK    6  A    between atoms: C_22  and  N_23
REMARK    7  A    between atoms: C_24  and  C_26
REMARK                            x       y       z     vdW  Elec       q    Type
REMARK                         _______ _______ _______ _____ _____    ______ ____
ROOT
ATOM      1  C   UNL     1      45.482   3.205  12.846  0.00  0.00    +0.000 C 
ATOM      2  C   UNL     1      45.791   4.623  12.451  0.00  0.00    +0.000 A 
ATOM      3  C   UNL     1      46.674   5.364  13.266  0.00  0.00    +0.000 A 
ATOM      4  C   UNL     1      47.016   6.689  12.967  0.00  0.00    +0.000 A 
ATOM      5  C   UNL     1      46.493   7.266  11.808  0.00  0.00    +0.000 A 
ATOM      6  C   UNL     1      45.612   6.549  10.994  0.00  0.00    +0.000 A 
ATOM      7  C   UNL     1      45.228   5.231  11.309  0.00  0.00    +0.000 A 
ENDROOT
BRANCH   4   8
ATOM      8  C   UNL     1      47.971   7.455  13.849  0.00  0.00    +0.000 C 
BRANCH   8   9
ATOM      9  N   UNL     1      47.919   6.971  15.205  0.00  0.00    +0.000 N 
ATOM     10  C   UNL     1      49.045   6.555  15.868  0.00  0.00    +0.000 C 
ATOM     11  O   UNL     1      50.160   6.612  15.357  0.00  0.00    +0.000 OA
ATOM     12  H   UNL     1      47.006   6.712  15.562  0.00  0.00    +0.000 HD
BRANCH  10  13
ATOM     13  C   UNL     1      48.857   6.095  17.251  0.00  0.00    +0.000 A 
ATOM     14  C   UNL     1      49.158   4.782  17.586  0.00  0.00    +0.000 A 
ATOM     15  S   UNL     1      48.933   4.425  19.237  0.00  0.00    +0.000 S 
ATOM     16  C   UNL     1      48.371   5.998  19.557  0.00  0.00    +0.000 A 
ATOM     17  N   UNL     1      47.974   6.357  20.808  0.00  0.00    +0.000 NA
ATOM     18  C   UNL     1      47.542   7.570  20.903  0.00  0.00    +0.000 A 
ATOM     19  N   UNL     1      47.478   8.460  19.863  0.00  0.00    +0.000 N 
ATOM     20  C   UNL     1      47.898   8.152  18.590  0.00  0.00    +0.000 A 
ATOM     21  O   UNL     1      47.873   8.990  17.694  0.00  0.00    +0.000 OA
ATOM     22  C   UNL     1      48.377   6.793  18.423  0.00  0.00    +0.000 A 
ATOM     23  H   UNL     1      47.142   9.401  20.008  0.00  0.00    +0.000 HD
ENDBRANCH  10  13
ENDBRANCH   8   9
ENDBRANCH   4   8
BRANCH   7  24
ATOM     24  C   UNL     1      44.259   4.529  10.380  0.00  0.00    +0.000 C 
BRANCH  24  25
ATOM     25  N   UNL     1      44.914   3.470   9.646  0.00  0.00    +0.000 N 
ATOM     26  C   UNL     1      45.633   3.698   8.498  0.00  0.00    +0.000 C 
ATOM     27  O   UNL     1      45.758   4.812   8.000  0.00  0.00    +0.000 OA
ATOM     28  H   UNL     1      44.975   2.568  10.098  0.00  0.00    +0.000 HD
BRANCH  26  29
ATOM     29  C   UNL     1      46.245   2.526   7.926  0.00  0.00    +0.000 A 
ATOM     30  C   UNL     1      47.172   2.361   6.912  0.00  0.00    +0.000 A 
ATOM     31  N   UNL     1      47.472   1.043   6.705  0.00  0.00    +0.000 NA
ATOM     32  C   UNL     1      46.757   0.389   7.590  0.00  0.00    +0.000 A 
ATOM     33  N   UNL     1      46.004   1.237   8.351  0.00  0.00    +0.000 N 
ATOM     34  H   UNL     1      45.377   0.977   9.101  0.00  0.00    +0.000 HD
ENDBRANCH  26  29
ENDBRANCH  24  25
ENDBRANCH   7  24
TORSDOF 6
ENDMDL
MODEL 4
REMARK VINA RESULT:    -7.187      2.490      3.198
REMARK INTER + INTRA:         -10.912
REMARK INTER:                  -9.940
REMARK INTRA:                  -0.972
REMARK UNBOUND:                -1.205
REMARK  Name = 
REMARK  7 active torsions:
REMARK  status: ('A' for Active; 'I' for Inactive)
REMARK    1  A    between atoms: C_1  and  C_2
REMARK    2  A    between atoms: C_4  and  C_5
REMARK    3  A    between atoms: C_5  and  N_6
REMARK    4  A    between atoms: C_7  and  C_9
REMARK    5  A    between atoms: C_21  and  C_22
REMARK    6  A    between atoms: C_22  and  N_23
REMARK    7  A    between atoms: C_24  and  C_26
REMARK                            x       y       z     vdW  Elec       q    Type
REMARK                         _______ _______ _______ _____ _____    ______ ____
ROOT
ATOM      1  C   UNL     1      46.537   7.203  11.416  0.00  0.00    +0.000 C 
ATOM      2  C   UNL     1      46.280   5.853  12.029  0.00  0.00    +0.000 A 
ATOM      3  C   UNL     1      46.799   5.597  13.316  0.00  0.00    +0.000 A 
ATOM      4  C   UNL     1      46.601   4.368  13.959  0.00  0.00    +0.000 A 
ATOM      5  C   UNL     1      45.837   3.394  13.312  0.00  0.00    +0.000 A 
ATOM      6  C   UNL     1      45.322   3.629  12.034  0.00  0.00    +0.000 A 
ATOM      7  C   UNL     1      45.551   4.846  11.363  0.00  0.00    +0.000 A 
ENDROOT
BRANCH   4   8
ATOM      8  C   UNL     1      47.157   4.123  15.340  0.00  0.00    +0.000 C 
BRANCH   8   9
ATOM      9  N   UNL     1      47.596   5.356  15.943  0.00  0.00    +0.000 N 
ATOM     10  C   UNL     1      48.810   5.462  16.572  0.00  0.00    +0.000 C 
ATOM     11  O   UNL     1      49.602   4.525  16.619  0.00  0.00    +0.000 OA
ATOM     12  H   UNL     1      46.886   6.061  16.107  0.00  0.00    +0.000 HD
BRANCH  10  13
ATOM     13  C   UNL     1      49.141   6.779  17.134  0.00  0.00    +0.000 A 
ATOM     14  C   UNL     1      50.140   7.545  16.547  0.00  0.00    +0.000 A 
ATOM     15  S   UNL     1      50.365   9.063  17.287  0.00  0.00    +0.000 S 
ATOM     16  C   UNL     1      49.174   8.732  18.455  0.00  0.00    +0.000 A 
ATOM     17  N   UNL     1      48.884   9.633  19.432  0.00  0.00    +0.000 NA
ATOM     18  C   UNL     1      47.983   9.242  20.269  0.00  0.00    +0.000 A 
ATOM     19  N   UNL     1      47.339   8.033  20.215  0.00  0.00    +0.000 N 
ATOM     20  C   UNL     1      47.576   7.105  19.228  0.00  0.00    +0.000 A 
ATOM     21  O   UNL     1      46.945   6.053  19.181  0.00  0.00    +0.000 OA
ATOM     22  C   UNL     1      48.596   7.488  18.269  0.00  0.00    +0.000 A 
ATOM     23  H   UNL     1      46.632   7.793  20.894  0.00  0.00    +0.000 HD
ENDBRANCH  10  13
ENDBRANCH   8   9
ENDBRANCH   4   8
BRANCH   7  24
ATOM     24  C   UNL     1      44.967   5.015   9.975  0.00  0.00    +0.000 C 
BRANCH  24  25
ATOM     25  N   UNL     1      45.797   4.377   8.978  0.00  0.00    +0.000 N 
ATOM     26  C   UNL     1      45.513   3.138   8.461  0.00  0.00    +0.000 C 
ATOM     27  O   UNL     1      44.547   2.471   8.818  0.00  0.00    +0.000 OA
ATOM     28  H   UNL     1      46.506   4.947   8.539  0.00  0.00    +0.000 HD
BRANCH  26  29
ATOM     29  C   UNL     1      46.432   2.679   7.450  0.00  0.00    +0.000 A 
ATOM     30  C   UNL     1      47.154   1.508   7.311  0.00  0.00    +0.000 A 
ATOM     31  N   UNL     1      47.909   1.507   6.171  0.00  0.00    +0.000 NA
ATOM     32  C   UNL     1      47.651   2.656   5.591  0.00  0.00    +0.000 A 
ATOM     33  N   UNL     1      46.765   3.396   6.320  0.00  0.00    +0.000 N 
ATOM     34  H   UNL     1      46.405   4.311   6.082  0.00  0.00    +0.000 HD
ENDBRANCH  26  29
ENDBRANCH  24  25
ENDBRANCH   7  24
TORSDOF 6
ENDMDL
MODEL 5
REMARK VINA RESULT:    -7.164      3.744      8.320
REMARK INTER + INTRA:         -10.881
REMARK INTER:                  -9.716
REMARK INTRA:                  -1.165
REMARK UNBOUND:                -1.205
REMARK  Name = 
REMARK  7 active torsions:
REMARK  status: ('A' for Active; 'I' for Inactive)
REMARK    1  A    between atoms: C_1  and  C_2
REMARK    2  A    between atoms: C_4  and  C_5
REMARK    3  A    between atoms: C_5  and  N_6
REMARK    4  A    between atoms: C_7  and  C_9
REMARK    5  A    between atoms: C_21  and  C_22
REMARK    6  A    between atoms: C_22  and  N_23
REMARK    7  A    between atoms: C_24  and  C_26
REMARK                            x       y       z     vdW  Elec       q    Type
REMARK                         _______ _______ _______ _____ _____    ______ ____
ROOT
ATOM      1  C   UNL     1      47.498   3.082  17.309  0.00  0.00    +0.000 C 
ATOM      2  C   UNL     1      48.388   4.254  16.996  0.00  0.00    +0.000 A 
ATOM      3  C   UNL     1      48.005   5.120  15.950  0.00  0.00    +0.000 A 
ATOM      4  C   UNL     1      48.777   6.236  15.597  0.00  0.00    +0.000 A 
ATOM      5  C   UNL     1      49.932   6.506  16.335  0.00  0.00    +0.000 A 
ATOM      6  C   UNL     1      50.329   5.654  17.369  0.00  0.00    +0.000 A 
ATOM      7  C   UNL     1      49.583   4.507  17.702  0.00  0.00    +0.000 A 
ENDROOT
BRANCH   4   8
ATOM      8  C   UNL     1      48.339   7.153  14.483  0.00  0.00    +0.000 C 
BRANCH   8   9
ATOM      9  N   UNL     1      47.095   6.707  13.909  0.00  0.00    +0.000 N 
ATOM     10  C   UNL     1      46.897   6.667  12.552  0.00  0.00    +0.000 C 
ATOM     11  O   UNL     1      47.781   6.972  11.757  0.00  0.00    +0.000 OA
ATOM     12  H   UNL     1      46.295   6.663  14.531  0.00  0.00    +0.000 HD
BRANCH  10  13
ATOM     13  C   UNL     1      45.587   6.180  12.097  0.00  0.00    +0.000 A 
ATOM     14  C   UNL     1      44.686   7.067  11.523  0.00  0.00    +0.000 A 
ATOM     15  S   UNL     1      43.237   6.333  11.004  0.00  0.00    +0.000 S 
ATOM     16  C   UNL     1      43.738   4.812  11.577  0.00  0.00    +0.000 A 
ATOM     17  N   UNL     1      42.929   3.724  11.467  0.00  0.00    +0.000 NA
ATOM     18  C   UNL     1      43.420   2.640  11.969  0.00  0.00    +0.000 A 
ATOM     19  N   UNL     1      44.651   2.545  12.566  0.00  0.00    +0.000 N 
ATOM     20  C   UNL     1      45.515   3.609  12.670  0.00  0.00    +0.000 A 
ATOM     21  O   UNL     1      46.629   3.476  13.166  0.00  0.00    +0.000 OA
ATOM     22  C   UNL     1      45.004   4.858  12.137  0.00  0.00    +0.000 A 
ATOM     23  H   UNL     1      44.982   1.663  12.927  0.00  0.00    +0.000 HD
ENDBRANCH  10  13
ENDBRANCH   8   9
ENDBRANCH   4   8
BRANCH   7  24
ATOM     24  C   UNL     1      50.090   3.629  18.829  0.00  0.00    +0.000 C 
BRANCH  24  25
ATOM     25  N   UNL     1      51.366   3.038  18.497  0.00  0.00    +0.000 N 
ATOM     26  C   UNL     1      51.483   1.935  17.687  0.00  0.00    +0.000 C 
ATOM     27  O   UNL     1      50.515   1.360  17.199  0.00  0.00    +0.000 OA
ATOM     28  H   UNL     1      52.193   3.564  18.740  0.00  0.00    +0.000 HD
BRANCH  26  29
ATOM     29  C   UNL     1      52.837   1.509  17.437  0.00  0.00    +0.000 A 
ATOM     30  C   UNL     1      54.049   2.171  17.507  0.00  0.00    +0.000 A 
ATOM     31  N   UNL     1      55.096   1.355  17.180  0.00  0.00    +0.000 NA
ATOM     32  C   UNL     1      54.550   0.188  16.926  0.00  0.00    +0.000 A 
ATOM     33  N   UNL     1      53.193   0.229  17.070  0.00  0.00    +0.000 N 
ATOM     34  H   UNL     1      52.550  -0.540  16.937  0.00  0.00    +0.000 HD
ENDBRANCH  26  29
ENDBRANCH  24  25
ENDBRANCH   7  24
TORSDOF 6
ENDMDL
MODEL 6
REMARK VINA RESULT:    -6.872      2.723      3.217
REMARK INTER + INTRA:         -10.487
REMARK INTER:                  -9.568
REMARK INTRA:                  -0.919
REMARK UNBOUND:                -1.205
REMARK  Name = 
REMARK  7 active torsions:
REMARK  status: ('A' for Active; 'I' for Inactive)
REMARK    1  A    between atoms: C_1  and  C_2
REMARK    2  A    between atoms: C_4  and  C_5
REMARK    3  A    between atoms: C_5  and  N_6
REMARK    4  A    between atoms: C_7  and  C_9
REMARK    5  A    between atoms: C_21  and  C_22
REMARK    6  A    between atoms: C_22  and  N_23
REMARK    7  A    between atoms: C_24  and  C_26
REMARK                            x       y       z     vdW  Elec       q    Type
REMARK                         _______ _______ _______ _____ _____    ______ ____
ROOT
ATOM      1  C   UNL     1      43.867   9.121  11.014  0.00  0.00    +0.000 C 
ATOM      2  C   UNL     1      44.862   8.325  11.815  0.00  0.00    +0.000 A 
ATOM      3  C   UNL     1      45.813   9.028  12.583  0.00  0.00    +0.000 A 
ATOM      4  C   UNL     1      46.772   8.363  13.359  0.00  0.00    +0.000 A 
ATOM      5  C   UNL     1      46.747   6.966  13.393  0.00  0.00    +0.000 A 
ATOM      6  C   UNL     1      45.816   6.254  12.632  0.00  0.00    +0.000 A 
ATOM      7  C   UNL     1      44.877   6.914  11.816  0.00  0.00    +0.000 A 
ENDROOT
BRANCH   4   8
ATOM      8  C   UNL     1      47.771   9.138  14.181  0.00  0.00    +0.000 C 
BRANCH   8   9
ATOM      9  N   UNL     1      47.540   8.940  15.590  0.00  0.00    +0.000 N 
ATOM     10  C   UNL     1      48.404   9.423  16.539  0.00  0.00    +0.000 C 
ATOM     11  O   UNL     1      49.396  10.082  16.241  0.00  0.00    +0.000 OA
ATOM     12  H   UNL     1      46.866   8.228  15.846  0.00  0.00    +0.000 HD
BRANCH  10  13
ATOM     13  C   UNL     1      48.047   9.163  17.941  0.00  0.00    +0.000 A 
ATOM     14  C   UNL     1      47.735  10.226  18.779  0.00  0.00    +0.000 A 
ATOM     15  S   UNL     1      47.294   9.750  20.355  0.00  0.00    +0.000 S 
ATOM     16  C   UNL     1      47.555   8.109  19.993  0.00  0.00    +0.000 A 
ATOM     17  N   UNL     1      47.380   7.149  20.940  0.00  0.00    +0.000 NA
ATOM     18  C   UNL     1      47.641   5.950  20.539  0.00  0.00    +0.000 A 
ATOM     19  N   UNL     1      48.057   5.623  19.274  0.00  0.00    +0.000 N 
ATOM     20  C   UNL     1      48.217   6.556  18.276  0.00  0.00    +0.000 A 
ATOM     21  O   UNL     1      48.542   6.221  17.141  0.00  0.00    +0.000 OA
ATOM     22  C   UNL     1      47.953   7.924  18.679  0.00  0.00    +0.000 A 
ATOM     23  H   UNL     1      48.232   4.662  19.021  0.00  0.00    +0.000 HD
ENDBRANCH  10  13
ENDBRANCH   8   9
ENDBRANCH   4   8
BRANCH   7  24
ATOM     24  C   UNL     1      43.910   6.067  11.014  0.00  0.00    +0.000 C 
BRANCH  24  25
ATOM     25  N   UNL     1      44.613   5.157  10.139  0.00  0.00    +0.000 N 
ATOM     26  C   UNL     1      44.273   3.832  10.019  0.00  0.00    +0.000 C 
ATOM     27  O   UNL     1      43.360   3.317  10.657  0.00  0.00    +0.000 OA
ATOM     28  H   UNL     1      45.263   5.563   9.481  0.00  0.00    +0.000 HD
BRANCH  26  29
ATOM     29  C   UNL     1      45.064   3.088   9.072  0.00  0.00    +0.000 A 
ATOM     30  C   UNL     1      45.743   3.464   7.927  0.00  0.00    +0.000 A 
ATOM     31  N   UNL     1      46.370   2.403   7.335  0.00  0.00    +0.000 NA
ATOM     32  C   UNL     1      46.103   1.376   8.107  0.00  0.00    +0.000 A 
ATOM     33  N   UNL     1      45.323   1.737   9.168  0.00  0.00    +0.000 N 
ATOM     34  H   UNL     1      44.989   1.130   9.904  0.00  0.00    +0.000 HD
ENDBRANCH  26  29
ENDBRANCH  24  25
ENDBRANCH   7  24
TORSDOF 6
ENDMDL
MODEL 7
REMARK VINA RESULT:    -6.674      4.593      7.346
REMARK INTER + INTRA:         -10.220
REMARK INTER:                  -9.231
REMARK INTRA:                  -0.989
REMARK UNBOUND:                -1.205
REMARK  Name = 
REMARK  7 active torsions:
REMARK  status: ('A' for Active; 'I' for Inactive)
REMARK    1  A    between atoms: C_1  and  C_2
REMARK    2  A    between atoms: C_4  and  C_5
REMARK    3  A    between atoms: C_5  and  N_6
REMARK    4  A    between atoms: C_7  and  C_9
REMARK    5  A    between atoms: C_21  and  C_22
REMARK    6  A    between atoms: C_22  and  N_23
REMARK    7  A    between atoms: C_24  and  C_26
REMARK                            x       y       z     vdW  Elec       q    Type
REMARK                         _______ _______ _______ _____ _____    ______ ____
ROOT
ATOM      1  C   UNL     1      49.748  11.269  10.844  0.00  0.00    +0.000 C 
ATOM      2  C   UNL     1      49.447   9.907  11.406  0.00  0.00    +0.000 A 
ATOM      3  C   UNL     1      48.138   9.651  11.866  0.00  0.00    +0.000 A 
ATOM      4  C   UNL     1      47.774   8.408  12.401  0.00  0.00    +0.000 A 
ATOM      5  C   UNL     1      48.733   7.393  12.437  0.00  0.00    +0.000 A 
ATOM      6  C   UNL     1      50.036   7.632  11.991  0.00  0.00    +0.000 A 
ATOM      7  C   UNL     1      50.422   8.891  11.492  0.00  0.00    +0.000 A 
ENDROOT
BRANCH   4   8
ATOM      8  C   UNL     1      46.365   8.156  12.875  0.00  0.00    +0.000 C 
BRANCH   8   9
ATOM      9  N   UNL     1      45.937   6.824  12.529  0.00  0.00    +0.000 N 
ATOM     10  C   UNL     1      44.859   6.599  11.712  0.00  0.00    +0.000 C 
ATOM     11  O   UNL     1      44.228   7.520  11.200  0.00  0.00    +0.000 OA
ATOM     12  H   UNL     1      46.295   6.067  13.102  0.00  0.00    +0.000 HD
BRANCH  10  13
ATOM     13  C   UNL     1      44.536   5.194  11.428  0.00  0.00    +0.000 A 
ATOM     14  C   UNL     1      43.803   4.458  12.349  0.00  0.00    +0.000 A 
ATOM     15  S   UNL     1      43.470   2.864  11.845  0.00  0.00    +0.000 S 
ATOM     16  C   UNL     1      44.341   3.080  10.401  0.00  0.00    +0.000 A 
ATOM     17  N   UNL     1      44.474   2.063   9.507  0.00  0.00    +0.000 NA
ATOM     18  C   UNL     1      45.184   2.354   8.469  0.00  0.00    +0.000 A 
ATOM     19  N   UNL     1      45.769   3.573   8.240  0.00  0.00    +0.000 N 
ATOM     20  C   UNL     1      45.635   4.638   9.099  0.00  0.00    +0.000 A 
ATOM     21  O   UNL     1      46.132   5.730   8.838  0.00  0.00    +0.000 OA
ATOM     22  C   UNL     1      44.860   4.359  10.293  0.00  0.00    +0.000 A 
ATOM     23  H   UNL     1      46.302   3.740   7.400  0.00  0.00    +0.000 HD
ENDBRANCH  10  13
ENDBRANCH   8   9
ENDBRANCH   4   8
BRANCH   7  24
ATOM     24  C   UNL     1      51.858   9.070  11.041  0.00  0.00    +0.000 C 
BRANCH  24  25
ATOM     25  N   UNL     1      52.138   8.279   9.865  0.00  0.00    +0.000 N 
ATOM     26  C   UNL     1      53.060   7.261   9.859  0.00  0.00    +0.000 C 
ATOM     27  O   UNL     1      53.727   6.959  10.844  0.00  0.00    +0.000 OA
ATOM     28  H   UNL     1      51.508   8.381   9.082  0.00  0.00    +0.000 HD
BRANCH  26  29
ATOM     29  C   UNL     1      53.178   6.559   8.606  0.00  0.00    +0.000 A 
ATOM     30  C   UNL     1      52.275   6.316   7.587  0.00  0.00    +0.000 A 
ATOM     31  N   UNL     1      52.837   5.597   6.569  0.00  0.00    +0.000 NA
ATOM     32  C   UNL     1      54.082   5.405   6.935  0.00  0.00    +0.000 A 
ATOM     33  N   UNL     1      54.338   5.968   8.153  0.00  0.00    +0.000 N 
ATOM     34  H   UNL     1      55.221   5.962   8.645  0.00  0.00    +0.000 HD
ENDBRANCH  26  29
ENDBRANCH  24  25
ENDBRANCH   7  24
TORSDOF 6
ENDMDL
MODEL 8
REMARK VINA RESULT:    -6.499      3.023      4.425
REMARK INTER + INTRA:          -9.984
REMARK INTER:                  -9.018
REMARK INTRA:                  -0.965
REMARK UNBOUND:                -1.205
REMARK  Name = 
REMARK  7 active torsions:
REMARK  status: ('A' for Active; 'I' for Inactive)
REMARK    1  A    between atoms: C_1  and  C_2
REMARK    2  A    between atoms: C_4  and  C_5
REMARK    3  A    between atoms: C_5  and  N_6
REMARK    4  A    between atoms: C_7  and  C_9
REMARK    5  A    between atoms: C_21  and  C_22
REMARK    6  A    between atoms: C_22  and  N_23
REMARK    7  A    between atoms: C_24  and  C_26
REMARK                            x       y       z     vdW  Elec       q    Type
REMARK                         _______ _______ _______ _____ _____    ______ ____
ROOT
ATOM      1  C   UNL     1      45.854   3.332  12.776  0.00  0.00    +0.000 C 
ATOM      2  C   UNL     1      45.799   4.777  12.359  0.00  0.00    +0.000 A 
ATOM      3  C   UNL     1      46.411   5.735  13.195  0.00  0.00    +0.000 A 
ATOM      4  C   UNL     1      46.408   7.100  12.878  0.00  0.00    +0.000 A 
ATOM      5  C   UNL     1      45.811   7.503  11.681  0.00  0.00    +0.000 A 
ATOM      6  C   UNL     1      45.194   6.568  10.845  0.00  0.00    +0.000 A 
ATOM      7  C   UNL     1      45.156   5.199  11.177  0.00  0.00    +0.000 A 
ENDROOT
BRANCH   4   8
ATOM      8  C   UNL     1      47.079   8.102  13.782  0.00  0.00    +0.000 C 
BRANCH   8   9
ATOM      9  N   UNL     1      48.513   8.031  13.652  0.00  0.00    +0.000 N 
ATOM     10  C   UNL     1      49.349   8.794  14.427  0.00  0.00    +0.000 C 
ATOM     11  O   UNL     1      48.921   9.547  15.297  0.00  0.00    +0.000 OA
ATOM     12  H   UNL     1      48.873   7.594  12.811  0.00  0.00    +0.000 HD
BRANCH  10  13
ATOM     13  C   UNL     1      50.790   8.617  14.203  0.00  0.00    +0.000 A 
ATOM     14  C   UNL     1      51.615   8.281  15.268  0.00  0.00    +0.000 A 
ATOM     15  S   UNL     1      53.248   8.063  14.830  0.00  0.00    +0.000 S 
ATOM     16  C   UNL     1      52.924   8.465  13.210  0.00  0.00    +0.000 A 
ATOM     17  N   UNL     1      53.922   8.497  12.286  0.00  0.00    +0.000 NA
ATOM     18  C   UNL     1      53.542   8.846  11.102  0.00  0.00    +0.000 A 
ATOM     19  N   UNL     1      52.253   9.159  10.756  0.00  0.00    +0.000 N 
ATOM     20  C   UNL     1      51.207   9.109  11.648  0.00  0.00    +0.000 A 
ATOM     21  O   UNL     1      50.058   9.348  11.292  0.00  0.00    +0.000 OA
ATOM     22  C   UNL     1      51.583   8.739  13.000  0.00  0.00    +0.000 A 
ATOM     23  H   UNL     1      52.020   9.411   9.808  0.00  0.00    +0.000 HD
ENDBRANCH  10  13
ENDBRANCH   8   9
ENDBRANCH   4   8
BRANCH   7  24
ATOM     24  C   UNL     1      44.456   4.254  10.222  0.00  0.00    +0.000 C 
BRANCH  24  25
ATOM     25  N   UNL     1      45.349   3.812   9.175  0.00  0.00    +0.000 N 
ATOM     26  C   UNL     1      45.377   2.516   8.722  0.00  0.00    +0.000 C 
ATOM     27  O   UNL     1      44.660   1.633   9.183  0.00  0.00    +0.000 OA
ATOM     28  H   UNL     1      45.841   4.528   8.659  0.00  0.00    +0.000 HD
BRANCH  26  29
ATOM     29  C   UNL     1      46.306   2.271   7.649  0.00  0.00    +0.000 A 
ATOM     30  C   UNL     1      47.226   1.262   7.426  0.00  0.00    +0.000 A 
ATOM     31  N   UNL     1      47.901   1.438   6.251  0.00  0.00    +0.000 NA
ATOM     32  C   UNL     1      47.400   2.534   5.731  0.00  0.00    +0.000 A 
ATOM     33  N   UNL     1      46.434   3.071   6.534  0.00  0.00    +0.000 N 
ATOM     34  H   UNL     1      45.896   3.908   6.351  0.00  0.00    +0.000 HD
ENDBRANCH  26  29
ENDBRANCH  24  25
ENDBRANCH   7  24
TORSDOF 6
ENDMDL
MODEL 9
REMARK VINA RESULT:    -6.015      5.306      7.798
REMARK INTER + INTRA:          -9.330
REMARK INTER:                  -8.394
REMARK INTRA:                  -0.935
REMARK UNBOUND:                -1.205
REMARK  Name = 
REMARK  7 active torsions:
REMARK  status: ('A' for Active; 'I' for Inactive)
REMARK    1  A    between atoms: C_1  and  C_2
REMARK    2  A    between atoms: C_4  and  C_5
REMARK    3  A    between atoms: C_5  and  N_6
REMARK    4  A    between atoms: C_7  and  C_9
REMARK    5  A    between atoms: C_21  and  C_22
REMARK    6  A    between atoms: C_22  and  N_23
REMARK    7  A    between atoms: C_24  and  C_26
REMARK                            x       y       z     vdW  Elec       q    Type
REMARK                         _______ _______ _______ _____ _____    ______ ____
ROOT
ATOM      1  C   UNL     1      49.025   6.911  15.550  0.00  0.00    +0.000 C 
ATOM      2  C   UNL     1      49.085   7.249  14.086  0.00  0.00    +0.000 A 
ATOM      3  C   UNL     1      50.276   7.815  13.582  0.00  0.00    +0.000 A 
ATOM      4  C   UNL     1      50.415   8.156  12.229  0.00  0.00    +0.000 A 
ATOM      5  C   UNL     1      49.352   7.887  11.363  0.00  0.00    +0.000 A 
ATOM      6  C   UNL     1      48.164   7.334  11.848  0.00  0.00    +0.000 A 
ATOM      7  C   UNL     1      48.000   7.027  13.212  0.00  0.00    +0.000 A 
ENDROOT
BRANCH   4   8
ATOM      8  C   UNL     1      51.702   8.748  11.713  0.00  0.00    +0.000 C 
BRANCH   8   9
ATOM      9  N   UNL     1      51.984   8.281  10.379  0.00  0.00    +0.000 N 
ATOM     10  C   UNL     1      53.037   8.768   9.649  0.00  0.00    +0.000 C 
ATOM     11  O   UNL     1      53.818   9.598  10.108  0.00  0.00    +0.000 OA
ATOM     12  H   UNL     1      51.243   7.773   9.908  0.00  0.00    +0.000 HD
BRANCH  10  13
ATOM     13  C   UNL     1      53.221   8.199   8.307  0.00  0.00    +0.000 A 
ATOM     14  C   UNL     1      53.155   9.027   7.194  0.00  0.00    +0.000 A 
ATOM     15  S   UNL     1      53.441   8.219   5.720  0.00  0.00    +0.000 S 
ATOM     16  C   UNL     1      53.609   6.722   6.510  0.00  0.00    +0.000 A 
ATOM     17  N   UNL     1      53.844   5.583   5.804  0.00  0.00    +0.000 NA
ATOM     18  C   UNL     1      53.921   4.515   6.524  0.00  0.00    +0.000 A 
ATOM     19  N   UNL     1      53.790   4.482   7.888  0.00  0.00    +0.000 N 
ATOM     20  C   UNL     1      53.584   5.611   8.646  0.00  0.00    +0.000 A 
ATOM     21  O   UNL     1      53.521   5.551   9.870  0.00  0.00    +0.000 OA
ATOM     22  C   UNL     1      53.472   6.840   7.882  0.00  0.00    +0.000 A 
ATOM     23  H   UNL     1      53.874   3.613   8.394  0.00  0.00    +0.000 HD
ENDBRANCH  10  13
ENDBRANCH   8   9
ENDBRANCH   4   8
BRANCH   7  24
ATOM     24  C   UNL     1      46.675   6.441  13.657  0.00  0.00    +0.000 C 
BRANCH  24  25
ATOM     25  N   UNL     1      46.183   5.476  12.700  0.00  0.00    +0.000 N 
ATOM     26  C   UNL     1      44.857   5.135  12.606  0.00  0.00    +0.000 C 
ATOM     27  O   UNL     1      43.993   5.609  13.338  0.00  0.00    +0.000 OA
ATOM     28  H   UNL     1      46.823   5.181  11.976  0.00  0.00    +0.000 HD
BRANCH  26  29
ATOM     29  C   UNL     1      44.548   4.184  11.568  0.00  0.00    +0.000 A 
ATOM     30  C   UNL     1      43.722   3.075  11.537  0.00  0.00    +0.000 A 
ATOM     31  N   UNL     1      43.738   2.462  10.316  0.00  0.00    +0.000 NA
ATOM     32  C   UNL     1      44.550   3.186   9.582  0.00  0.00    +0.000 A 
ATOM     33  N   UNL     1      45.061   4.237  10.290  0.00  0.00    +0.000 N 
ATOM     34  H   UNL     1      45.702   4.939   9.946  0.00  0.00    +0.000 HD
ENDBRANCH  26  29
ENDBRANCH  24  25
ENDBRANCH   7  24
TORSDOF 6
ENDMDL
