MODEL 1
REMARK VINA RESULT:    -6.959      0.000      0.000
REMARK INTER + INTRA:         -10.794
REMARK INTER:                  -9.399
REMARK INTRA:                  -1.394
REMARK UNBOUND:                -1.394
REMARK  Name = 
REMARK  7 active torsions:
REMARK  status: ('A' for Active; 'I' for Inactive)
REMARK    1  A    between atoms: C_1  and  C_2
REMARK    2  A    between atoms: C_2  and  N_3
REMARK    3  A    between atoms: C_2  and  C_16
REMARK    4  A    between atoms: C_4  and  C_6
REMARK    5  A    between atoms: C_19  and  C_20
REMARK    6  A    between atoms: C_20  and  N_21
REMARK    7  A    between atoms: C_22  and  C_24
REMARK                            x       y       z     vdW  Elec       q    Type
REMARK                         _______ _______ _______ _____ _____    ______ ____
ROOT
ATOM      1  C   UNL     1      47.506   3.291  16.113  0.00  0.00    +0.000 C 
ATOM      2  C   UNL     1      47.984   4.577  15.426  0.00  0.00    +0.000 C 
ENDROOT
BRANCH   2   3
ATOM      3  C   UNL     1      47.128   4.992  14.238  0.00  0.00    +0.000 A 
ATOM      4  C   UNL     1      45.963   4.267  13.933  0.00  0.00    +0.000 A 
ATOM      5  C   UNL     1      45.145   4.633  12.858  0.00  0.00    +0.000 A 
ATOM      6  C   UNL     1      45.481   5.727  12.051  0.00  0.00    +0.000 A 
ATOM      7  C   UNL     1      46.654   6.434  12.332  0.00  0.00    +0.000 A 
ATOM      8  C   UNL     1      47.472   6.064  13.402  0.00  0.00    +0.000 A 
BRANCH   6   9
ATOM      9  C   UNL     1      44.591   6.171  10.920  0.00  0.00    +0.000 C 
BRANCH   9  10
ATOM     10  N   UNL     1      44.289   5.075  10.026  0.00  0.00    +0.000 N 
ATOM     11  C   UNL     1      45.131   4.747   8.993  0.00  0.00    +0.000 C 
ATOM     12  O   UNL     1      46.148   5.394   8.747  0.00  0.00    +0.000 OA
ATOM     13  H   UNL     1      43.413   4.578  10.152  0.00  0.00    +0.000 HD
BRANCH  11  14
ATOM     14  C   UNL     1      44.708   3.591   8.092  0.00  0.00    +0.000 C 
ATOM     15  C   UNL     1      44.554   2.298   8.859  0.00  0.00    +0.000 C 
ATOM     16  C   UNL     1      45.942   1.695   8.808  0.00  0.00    +0.000 C 
ATOM     17  O   UNL     1      46.615   2.264   7.673  0.00  0.00    +0.000 OA
ATOM     18  C   UNL     1      45.737   3.215   7.047  0.00  0.00    +0.000 C 
ENDBRANCH  11  14
ENDBRANCH   9  10
ENDBRANCH   6   9
ENDBRANCH   2   3
BRANCH   2  19
ATOM     19  N   UNL     1      48.043   5.670  16.377  0.00  0.00    +0.000 N 
ATOM     20  C   UNL     1      49.210   6.063  16.977  0.00  0.00    +0.000 C 
ATOM     21  O   UNL     1      50.305   5.601  16.667  0.00  0.00    +0.000 OA
ATOM     22  H   UNL     1      47.158   5.962  16.779  0.00  0.00    +0.000 HD
BRANCH  20  23
ATOM     23  C   UNL     1      49.088   7.118  17.990  0.00  0.00    +0.000 A 
ATOM     24  C   UNL     1      49.377   6.844  19.319  0.00  0.00    +0.000 A 
ATOM     25  S   UNL     1      49.177   8.187  20.350  0.00  0.00    +0.000 S 
ATOM     26  C   UNL     1      48.646   9.166  19.062  0.00  0.00    +0.000 A 
ATOM     27  N   UNL     1      48.257  10.451  19.274  0.00  0.00    +0.000 NA
ATOM     28  C   UNL     1      47.839  11.063  18.216  0.00  0.00    +0.000 A 
ATOM     29  N   UNL     1      47.788  10.509  16.961  0.00  0.00    +0.000 N 
ATOM     30  C   UNL     1      48.227   9.235  16.685  0.00  0.00    +0.000 A 
ATOM     31  O   UNL     1      48.270   8.806  15.537  0.00  0.00    +0.000 OA
ATOM     32  C   UNL     1      48.662   8.487  17.853  0.00  0.00    +0.000 A 
ATOM     33  H   UNL     1      47.478  11.055  16.171  0.00  0.00    +0.000 HD
ENDBRANCH  20  23
ENDBRANCH   2  19
TORSDOF 6
ENDMDL
MODEL 2
REMARK VINA RESULT:    -6.265      4.475      9.206
REMARK INTER + INTRA:          -9.856
REMARK INTER:                  -9.393
REMARK INTRA:                  -0.463
REMARK UNBOUND:                -1.394
REMARK  Name = 
REMARK  7 active torsions:
REMARK  status: ('A' for Active; 'I' for Inactive)
REMARK    1  A    between atoms: C_1  and  C_2
REMARK    2  A    between atoms: C_2  and  N_3
REMARK    3  A    between atoms: C_2  and  C_16
REMARK    4  A    between atoms: C_4  and  C_6
REMARK    5  A    between atoms: C_19  and  C_20
REMARK    6  A    between atoms: C_20  and  N_21
REMARK    7  A    between atoms: C_22  and  C_24
REMARK                            x       y       z     vdW  Elec       q    Type
REMARK                         _______ _______ _______ _____ _____    ______ ____
ROOT
ATOM      1  C   UNL     1      47.109   2.923  17.358  0.00  0.00    +0.000 C 
ATOM      2  C   UNL     1      47.657   4.353  17.273  0.00  0.00    +0.000 C 
ENDROOT
BRANCH   2   3
ATOM      3  C   UNL     1      49.173   4.436  17.366  0.00  0.00    +0.000 A 
ATOM      4  C   UNL     1      49.818   5.667  17.157  0.00  0.00    +0.000 A 
ATOM      5  C   UNL     1      51.210   5.780  17.253  0.00  0.00    +0.000 A 
ATOM      6  C   UNL     1      51.994   4.657  17.545  0.00  0.00    +0.000 A 
ATOM      7  C   UNL     1      51.361   3.423  17.725  0.00  0.00    +0.000 A 
ATOM      8  C   UNL     1      49.973   3.312  17.624  0.00  0.00    +0.000 A 
BRANCH   6   9
ATOM      9  C   UNL     1      53.489   4.762  17.702  0.00  0.00    +0.000 C 
BRANCH   9  10
ATOM     10  N   UNL     1      54.071   3.488  18.061  0.00  0.00    +0.000 N 
ATOM     11  C   UNL     1      55.106   2.950  17.337  0.00  0.00    +0.000 C 
ATOM     12  O   UNL     1      55.552   3.495  16.328  0.00  0.00    +0.000 OA
ATOM     13  H   UNL     1      53.666   2.975  18.837  0.00  0.00    +0.000 HD
BRANCH  11  14
ATOM     14  C   UNL     1      55.632   1.590  17.782  0.00  0.00    +0.000 C 
ATOM     15  C   UNL     1      55.206   0.481  16.847  0.00  0.00    +0.000 C 
ATOM     16  C   UNL     1      53.876   0.037  17.418  0.00  0.00    +0.000 C 
ATOM     17  O   UNL     1      53.853   0.421  18.803  0.00  0.00    +0.000 OA
ATOM     18  C   UNL     1      55.076   1.115  19.107  0.00  0.00    +0.000 C 
ENDBRANCH  11  14
ENDBRANCH   9  10
ENDBRANCH   6   9
ENDBRANCH   2   3
BRANCH   2  19
ATOM     19  N   UNL     1      47.218   4.993  16.048  0.00  0.00    +0.000 N 
ATOM     20  C   UNL     1      47.301   4.382  14.826  0.00  0.00    +0.000 C 
ATOM     21  O   UNL     1      47.640   3.208  14.692  0.00  0.00    +0.000 OA
ATOM     22  H   UNL     1      47.091   5.999  16.089  0.00  0.00    +0.000 HD
BRANCH  20  23
ATOM     23  C   UNL     1      46.908   5.196  13.671  0.00  0.00    +0.000 A 
ATOM     24  C   UNL     1      47.384   6.493  13.539  0.00  0.00    +0.000 A 
ATOM     25  S   UNL     1      46.820   7.286  12.138  0.00  0.00    +0.000 S 
ATOM     26  C   UNL     1      45.877   5.941  11.690  0.00  0.00    +0.000 A 
ATOM     27  N   UNL     1      45.088   5.978  10.584  0.00  0.00    +0.000 NA
ATOM     28  C   UNL     1      44.397   4.905  10.387  0.00  0.00    +0.000 A 
ATOM     29  N   UNL     1      44.435   3.792  11.189  0.00  0.00    +0.000 N 
ATOM     30  C   UNL     1      45.262   3.684  12.283  0.00  0.00    +0.000 A 
ATOM     31  O   UNL     1      45.354   2.637  12.917  0.00  0.00    +0.000 OA
ATOM     32  C   UNL     1      46.026   4.885  12.576  0.00  0.00    +0.000 A 
ATOM     33  H   UNL     1      43.890   2.974  10.959  0.00  0.00    +0.000 HD
ENDBRANCH  20  23
ENDBRANCH   2  19
TORSDOF 6
ENDMDL
MODEL 3
REMARK VINA RESULT:    -6.233      3.079      4.386
REMARK INTER + INTRA:          -9.813
REMARK INTER:                  -8.434
REMARK INTRA:                  -1.379
REMARK UNBOUND:                -1.394
REMARK  Name = 
REMARK  7 active torsions:
REMARK  status: ('A' for Active; 'I' for Inactive)
REMARK    1  A    between atoms: C_1  and  C_2
REMARK    2  A    between atoms: C_2  and  N_3
REMARK    3  A    between atoms: C_2  and  C_16
REMARK    4  A    between atoms: C_4  and  C_6
REMARK    5  A    between atoms: C_19  and  C_20
REMARK    6  A    between atoms: C_20  and  N_21
REMARK    7  A    between atoms: C_22  and  C_24
REMARK                            x       y       z     vdW  Elec       q    Type
REMARK                         _______ _______ _______ _____ _____    ______ ____
ROOT
ATOM      1  C   UNL     1      51.125   8.548  11.695  0.00  0.00    +0.000 C 
ATOM      2  C   UNL     1      50.164   8.556  12.890  0.00  0.00    +0.000 C 
ENDROOT
BRANCH   2   3
ATOM      3  C   UNL     1      48.718   8.264  12.516  0.00  0.00    +0.000 A 
ATOM      4  C   UNL     1      47.772   9.304  12.530  0.00  0.00    +0.000 A 
ATOM      5  C   UNL     1      46.438   9.072  12.174  0.00  0.00    +0.000 A 
ATOM      6  C   UNL     1      46.014   7.789  11.809  0.00  0.00    +0.000 A 
ATOM      7  C   UNL     1      46.944   6.745  11.822  0.00  0.00    +0.000 A 
ATOM      8  C   UNL     1      48.273   6.976  12.182  0.00  0.00    +0.000 A 
BRANCH   6   9
ATOM      9  C   UNL     1      44.596   7.524  11.375  0.00  0.00    +0.000 C 
BRANCH   9  10
ATOM     10  N   UNL     1      44.403   6.134  11.027  0.00  0.00    +0.000 N 
ATOM     11  C   UNL     1      43.261   5.462  11.386  0.00  0.00    +0.000 C 
ATOM     12  O   UNL     1      42.376   5.990  12.059  0.00  0.00    +0.000 OA
ATOM     13  H   UNL     1      45.154   5.649  10.547  0.00  0.00    +0.000 HD
BRANCH  11  14
ATOM     14  C   UNL     1      43.166   3.991  10.993  0.00  0.00    +0.000 C 
ATOM     15  C   UNL     1      43.487   3.072  12.149  0.00  0.00    +0.000 C 
ATOM     16  C   UNL     1      44.987   2.895  12.047  0.00  0.00    +0.000 C 
ATOM     17  O   UNL     1      45.361   3.178  10.689  0.00  0.00    +0.000 OA
ATOM     18  C   UNL     1      44.183   3.561   9.958  0.00  0.00    +0.000 C 
ENDBRANCH  11  14
ENDBRANCH   9  10
ENDBRANCH   6   9
ENDBRANCH   2   3
BRANCH   2  19
ATOM     19  N   UNL     1      50.597   7.606  13.897  0.00  0.00    +0.000 N 
ATOM     20  C   UNL     1      50.785   7.956  15.208  0.00  0.00    +0.000 C 
ATOM     21  O   UNL     1      50.487   9.063  15.649  0.00  0.00    +0.000 OA
ATOM     22  H   UNL     1      51.006   6.744  13.552  0.00  0.00    +0.000 HD
BRANCH  20  23
ATOM     23  C   UNL     1      51.320   6.907  16.082  0.00  0.00    +0.000 A 
ATOM     24  C   UNL     1      52.683   6.835  16.331  0.00  0.00    +0.000 A 
ATOM     25  S   UNL     1      53.121   5.552  17.366  0.00  0.00    +0.000 S 
ATOM     26  C   UNL     1      51.508   5.016  17.472  0.00  0.00    +0.000 A 
ATOM     27  N   UNL     1      51.187   3.903  18.183  0.00  0.00    +0.000 NA
ATOM     28  C   UNL     1      49.934   3.589  18.143  0.00  0.00    +0.000 A 
ATOM     29  N   UNL     1      48.971   4.298  17.469  0.00  0.00    +0.000 N 
ATOM     30  C   UNL     1      49.236   5.463  16.788  0.00  0.00    +0.000 A 
ATOM     31  O   UNL     1      48.338   6.131  16.287  0.00  0.00    +0.000 OA
ATOM     32  C   UNL     1      50.642   5.833  16.762  0.00  0.00    +0.000 A 
ATOM     33  H   UNL     1      48.004   4.012  17.505  0.00  0.00    +0.000 HD
ENDBRANCH  20  23
ENDBRANCH   2  19
TORSDOF 6
ENDMDL
MODEL 4
REMARK VINA RESULT:    -5.835      2.679      3.938
REMARK INTER + INTRA:          -9.276
REMARK INTER:                  -8.344
REMARK INTRA:                  -0.931
REMARK UNBOUND:                -1.394
REMARK  Name = 
REMARK  7 active torsions:
REMARK  status: ('A' for Active; 'I' for Inactive)
REMARK    1  A    between atoms: C_1  and  C_2
REMARK    2  A    between atoms: C_2  and  N_3
REMARK    3  A    between atoms: C_2  and  C_16
REMARK    4  A    between atoms: C_4  and  C_6
REMARK    5  A    between atoms: C_19  and  C_20
REMARK    6  A    between atoms: C_20  and  N_21
REMARK    7  A    between atoms: C_22  and  C_24
REMARK                            x       y       z     vdW  Elec       q    Type
REMARK                         _______ _______ _______ _____ _____    ______ ____
ROOT
ATOM      1  C   UNL     1      46.931   9.652  12.209  0.00  0.00    +0.000 C 
ATOM      2  C   UNL     1      46.707   8.448  13.134  0.00  0.00    +0.000 C 
ENDROOT
BRANCH   2   3
ATOM      3  C   UNL     1      45.970   7.294  12.470  0.00  0.00    +0.000 A 
ATOM      4  C   UNL     1      44.714   7.518  11.881  0.00  0.00    +0.000 A 
ATOM      5  C   UNL     1      44.018   6.482  11.247  0.00  0.00    +0.000 A 
ATOM      6  C   UNL     1      44.557   5.190  11.201  0.00  0.00    +0.000 A 
ATOM      7  C   UNL     1      45.793   4.955  11.810  0.00  0.00    +0.000 A 
ATOM      8  C   UNL     1      46.483   5.989  12.447  0.00  0.00    +0.000 A 
BRANCH   6   9
ATOM      9  C   UNL     1      43.851   4.070  10.482  0.00  0.00    +0.000 C 
BRANCH   9  10
ATOM     10  N   UNL     1      44.289   3.968   9.108  0.00  0.00    +0.000 N 
ATOM     11  C   UNL     1      45.144   2.972   8.706  0.00  0.00    +0.000 C 
ATOM     12  O   UNL     1      45.616   2.156   9.497  0.00  0.00    +0.000 OA
ATOM     13  H   UNL     1      43.985   4.678   8.451  0.00  0.00    +0.000 HD
BRANCH  11  14
ATOM     14  C   UNL     1      45.567   2.967   7.241  0.00  0.00    +0.000 C 
ATOM     15  C   UNL     1      46.120   1.627   6.813  0.00  0.00    +0.000 C 
ATOM     16  C   UNL     1      47.596   1.742   7.131  0.00  0.00    +0.000 C 
ATOM     17  O   UNL     1      47.920   3.142   7.163  0.00  0.00    +0.000 OA
ATOM     18  C   UNL     1      46.719   3.897   6.927  0.00  0.00    +0.000 C 
ENDBRANCH  11  14
ENDBRANCH   9  10
ENDBRANCH   6   9
ENDBRANCH   2   3
BRANCH   2  19
ATOM     19  N   UNL     1      47.971   7.969  13.660  0.00  0.00    +0.000 N 
ATOM     20  C   UNL     1      48.446   8.338  14.890  0.00  0.00    +0.000 C 
ATOM     21  O   UNL     1      47.785   9.003  15.684  0.00  0.00    +0.000 OA
ATOM     22  H   UNL     1      48.611   7.562  12.985  0.00  0.00    +0.000 HD
BRANCH  20  23
ATOM     23  C   UNL     1      49.784   7.847  15.236  0.00  0.00    +0.000 A 
ATOM     24  C   UNL     1      50.909   8.450  14.692  0.00  0.00    +0.000 A 
ATOM     25  S   UNL     1      52.375   7.744  15.206  0.00  0.00    +0.000 S 
ATOM     26  C   UNL     1      51.551   6.575  16.130  0.00  0.00    +0.000 A 
ATOM     27  N   UNL     1      52.232   5.609  16.802  0.00  0.00    +0.000 NA
ATOM     28  C   UNL     1      51.480   4.764  17.426  0.00  0.00    +0.000 A 
ATOM     29  N   UNL     1      50.108   4.809  17.452  0.00  0.00    +0.000 N 
ATOM     30  C   UNL     1      49.378   5.800  16.839  0.00  0.00    +0.000 A 
ATOM     31  O   UNL     1      48.161   5.873  16.969  0.00  0.00    +0.000 OA
ATOM     32  C   UNL     1      50.177   6.749  16.081  0.00  0.00    +0.000 A 
ATOM     33  H   UNL     1      49.582   4.132  17.986  0.00  0.00    +0.000 HD
ENDBRANCH  20  23
ENDBRANCH   2  19
TORSDOF 6
ENDMDL
MODEL 5
REMARK VINA RESULT:    -5.724      3.529      9.328
REMARK INTER + INTRA:          -9.126
REMARK INTER:                  -8.976
REMARK INTRA:                  -0.150
REMARK UNBOUND:                -1.394
REMARK  Name = 
REMARK  7 active torsions:
REMARK  status: ('A' for Active; 'I' for Inactive)
REMARK    1  A    between atoms: C_1  and  C_2
REMARK    2  A    between atoms: C_2  and  N_3
REMARK    3  A    between atoms: C_2  and  C_16
REMARK    4  A    between atoms: C_4  and  C_6
REMARK    5  A    between atoms: C_19  and  C_20
REMARK    6  A    between atoms: C_20  and  N_21
REMARK    7  A    between atoms: C_22  and  C_24
REMARK                            x       y       z     vdW  Elec       q    Type
REMARK                         _______ _______ _______ _____ _____    ______ ____
ROOT
ATOM      1  C   UNL     1      48.309   2.615  16.138  0.00  0.00    +0.000 C 
ATOM      2  C   UNL     1      47.260   3.542  16.765  0.00  0.00    +0.000 C 
ENDROOT
BRANCH   2   3
ATOM      3  C   UNL     1      47.795   4.384  17.914  0.00  0.00    +0.000 A 
ATOM      4  C   UNL     1      49.007   4.029  18.531  0.00  0.00    +0.000 A 
ATOM      5  C   UNL     1      49.535   4.793  19.579  0.00  0.00    +0.000 A 
ATOM      6  C   UNL     1      48.853   5.923  20.046  0.00  0.00    +0.000 A 
ATOM      7  C   UNL     1      47.632   6.264  19.456  0.00  0.00    +0.000 A 
ATOM      8  C   UNL     1      47.105   5.498  18.414  0.00  0.00    +0.000 A 
BRANCH   6   9
ATOM      9  C   UNL     1      49.424   6.789  21.139  0.00  0.00    +0.000 C 
BRANCH   9  10
ATOM     10  N   UNL     1      48.935   8.147  21.045  0.00  0.00    +0.000 N 
ATOM     11  C   UNL     1      49.663   9.123  20.412  0.00  0.00    +0.000 C 
ATOM     12  O   UNL     1      50.780   8.906  19.943  0.00  0.00    +0.000 OA
ATOM     13  H   UNL     1      48.056   8.374  21.498  0.00  0.00    +0.000 HD
BRANCH  11  14
ATOM     14  C   UNL     1      49.070  10.528  20.390  0.00  0.00    +0.000 C 
ATOM     15  C   UNL     1      47.586  10.516  20.106  0.00  0.00    +0.000 C 
ATOM     16  C   UNL     1      47.520  10.576  18.594  0.00  0.00    +0.000 C 
ATOM     17  O   UNL     1      48.756  11.147  18.133  0.00  0.00    +0.000 OA
ATOM     18  C   UNL     1      49.597  11.403  19.272  0.00  0.00    +0.000 C 
ENDBRANCH  11  14
ENDBRANCH   9  10
ENDBRANCH   6   9
ENDBRANCH   2   3
BRANCH   2  19
ATOM     19  N   UNL     1      46.687   4.415  15.759  0.00  0.00    +0.000 N 
ATOM     20  C   UNL     1      46.736   4.130  14.421  0.00  0.00    +0.000 C 
ATOM     21  O   UNL     1      47.161   3.063  13.984  0.00  0.00    +0.000 OA
ATOM     22  H   UNL     1      46.481   5.364  16.055  0.00  0.00    +0.000 HD
BRANCH  20  23
ATOM     23  C   UNL     1      46.200   5.160  13.524  0.00  0.00    +0.000 A 
ATOM     24  C   UNL     1      46.926   6.316  13.278  0.00  0.00    +0.000 A 
ATOM     25  S   UNL     1      46.145   7.397  12.215  0.00  0.00    +0.000 S 
ATOM     26  C   UNL     1      44.785   6.379  12.092  0.00  0.00    +0.000 A 
ATOM     27  N   UNL     1      43.703   6.745  11.355  0.00  0.00    +0.000 NA
ATOM     28  C   UNL     1      42.728   5.898  11.384  0.00  0.00    +0.000 A 
ATOM     29  N   UNL     1      42.745   4.709  12.071  0.00  0.00    +0.000 N 
ATOM     30  C   UNL     1      43.838   4.268  12.780  0.00  0.00    +0.000 A 
ATOM     31  O   UNL     1      43.863   3.155  13.294  0.00  0.00    +0.000 OA
ATOM     32  C   UNL     1      44.945   5.210  12.818  0.00  0.00    +0.000 A 
ATOM     33  H   UNL     1      41.958   4.079  12.026  0.00  0.00    +0.000 HD
ENDBRANCH  20  23
ENDBRANCH   2  19
TORSDOF 6
ENDMDL
MODEL 6
REMARK VINA RESULT:    -5.606      3.480      4.655
REMARK INTER + INTRA:          -8.967
REMARK INTER:                  -7.821
REMARK INTRA:                  -1.146
REMARK UNBOUND:                -1.394
REMARK  Name = 
REMARK  7 active torsions:
REMARK  status: ('A' for Active; 'I' for Inactive)
REMARK    1  A    between atoms: C_1  and  C_2
REMARK    2  A    between atoms: C_2  and  N_3
REMARK    3  A    between atoms: C_2  and  C_16
REMARK    4  A    between atoms: C_4  and  C_6
REMARK    5  A    between atoms: C_19  and  C_20
REMARK    6  A    between atoms: C_20  and  N_21
REMARK    7  A    between atoms: C_22  and  C_24
REMARK                            x       y       z     vdW  Elec       q    Type
REMARK                         _______ _______ _______ _____ _____    ______ ____
ROOT
ATOM      1  C   UNL     1      45.607   9.184  12.906  0.00  0.00    +0.000 C 
ATOM      2  C   UNL     1      46.344   7.933  13.401  0.00  0.00    +0.000 C 
ENDROOT
BRANCH   2   3
ATOM      3  C   UNL     1      45.945   6.659  12.672  0.00  0.00    +0.000 A 
ATOM      4  C   UNL     1      45.445   6.734  11.361  0.00  0.00    +0.000 A 
ATOM      5  C   UNL     1      45.085   5.579  10.657  0.00  0.00    +0.000 A 
ATOM      6  C   UNL     1      45.203   4.318  11.254  0.00  0.00    +0.000 A 
ATOM      7  C   UNL     1      45.673   4.239  12.569  0.00  0.00    +0.000 A 
ATOM      8  C   UNL     1      46.027   5.393  13.272  0.00  0.00    +0.000 A 
BRANCH   6   9
ATOM      9  C   UNL     1      44.870   3.057  10.501  0.00  0.00    +0.000 C 
BRANCH   9  10
ATOM     10  N   UNL     1      45.236   3.165   9.106  0.00  0.00    +0.000 N 
ATOM     11  C   UNL     1      45.461   2.048   8.341  0.00  0.00    +0.000 C 
ATOM     12  O   UNL     1      45.412   0.912   8.812  0.00  0.00    +0.000 OA
ATOM     13  H   UNL     1      45.368   4.091   8.712  0.00  0.00    +0.000 HD
BRANCH  11  14
ATOM     14  C   UNL     1      45.867   2.269   6.888  0.00  0.00    +0.000 C 
ATOM     15  C   UNL     1      47.026   1.388   6.480  0.00  0.00    +0.000 C 
ATOM     16  C   UNL     1      48.239   2.220   6.838  0.00  0.00    +0.000 C 
ATOM     17  O   UNL     1      47.820   3.595   6.875  0.00  0.00    +0.000 OA
ATOM     18  C   UNL     1      46.409   3.653   6.602  0.00  0.00    +0.000 C 
ENDBRANCH  11  14
ENDBRANCH   9  10
ENDBRANCH   6   9
ENDBRANCH   2   3
BRANCH   2  19
ATOM     19  N   UNL     1      47.780   8.115  13.295  0.00  0.00    +0.000 N 
ATOM     20  C   UNL     1      48.646   7.724  14.280  0.00  0.00    +0.000 C 
ATOM     21  O   UNL     1      48.287   7.087  15.268  0.00  0.00    +0.000 OA
ATOM     22  H   UNL     1      48.097   8.772  12.590  0.00  0.00    +0.000 HD
BRANCH  20  23
ATOM     23  C   UNL     1      50.057   8.066  14.068  0.00  0.00    +0.000 A 
ATOM     24  C   UNL     1      50.856   8.425  15.144  0.00  0.00    +0.000 A 
ATOM     25  S   UNL     1      52.464   8.791  14.706  0.00  0.00    +0.000 S 
ATOM     26  C   UNL     1      52.130   8.536  13.056  0.00  0.00    +0.000 A 
ATOM     27  N   UNL     1      53.086   8.733  12.111  0.00  0.00    +0.000 NA
ATOM     28  C   UNL     1      52.684   8.543  10.898  0.00  0.00    +0.000 A 
ATOM     29  N   UNL     1      51.414   8.158  10.547  0.00  0.00    +0.000 N 
ATOM     30  C   UNL     1      50.430   7.888  11.469  0.00  0.00    +0.000 A 
ATOM     31  O   UNL     1      49.339   7.442  11.131  0.00  0.00    +0.000 OA
ATOM     32  C   UNL     1      50.820   8.134  12.848  0.00  0.00    +0.000 A 
ATOM     33  H   UNL     1      51.175   7.998   9.580  0.00  0.00    +0.000 HD
ENDBRANCH  20  23
ENDBRANCH   2  19
TORSDOF 6
ENDMDL
MODEL 7
REMARK VINA RESULT:    -5.189      4.272      8.525
REMARK INTER + INTRA:          -8.404
REMARK INTER:                  -7.059
REMARK INTRA:                  -1.345
REMARK UNBOUND:                -1.394
REMARK  Name = 
REMARK  7 active torsions:
REMARK  status: ('A' for Active; 'I' for Inactive)
REMARK    1  A    between atoms: C_1  and  C_2
REMARK    2  A    between atoms: C_2  and  N_3
REMARK    3  A    between atoms: C_2  and  C_16
REMARK    4  A    between atoms: C_4  and  C_6
REMARK    5  A    between atoms: C_19  and  C_20
REMARK    6  A    between atoms: C_20  and  N_21
REMARK    7  A    between atoms: C_22  and  C_24
REMARK                            x       y       z     vdW  Elec       q    Type
REMARK                         _______ _______ _______ _____ _____    ______ ____
ROOT
ATOM      1  C   UNL     1      47.155   3.622  13.658  0.00  0.00    +0.000 C 
ATOM      2  C   UNL     1      46.691   4.680  14.668  0.00  0.00    +0.000 C 
ENDROOT
BRANCH   2   3
ATOM      3  C   UNL     1      47.388   4.587  16.017  0.00  0.00    +0.000 A 
ATOM      4  C   UNL     1      47.129   3.493  16.860  0.00  0.00    +0.000 A 
ATOM      5  C   UNL     1      47.768   3.369  18.100  0.00  0.00    +0.000 A 
ATOM      6  C   UNL     1      48.670   4.348  18.534  0.00  0.00    +0.000 A 
ATOM      7  C   UNL     1      48.909   5.453  17.712  0.00  0.00    +0.000 A 
ATOM      8  C   UNL     1      48.268   5.578  16.478  0.00  0.00    +0.000 A 
BRANCH   6   9
ATOM      9  C   UNL     1      49.406   4.213  19.841  0.00  0.00    +0.000 C 
BRANCH   9  10
ATOM     10  N   UNL     1      50.833   4.105  19.633  0.00  0.00    +0.000 N 
ATOM     11  C   UNL     1      51.695   5.065  20.102  0.00  0.00    +0.000 C 
ATOM     12  O   UNL     1      51.297   6.080  20.674  0.00  0.00    +0.000 OA
ATOM     13  H   UNL     1      51.183   3.323  19.090  0.00  0.00    +0.000 HD
BRANCH  11  14
ATOM     14  C   UNL     1      53.179   4.872  19.808  0.00  0.00    +0.000 C 
ATOM     15  C   UNL     1      53.681   5.833  18.755  0.00  0.00    +0.000 C 
ATOM     16  C   UNL     1      53.433   5.090  17.459  0.00  0.00    +0.000 C 
ATOM     17  O   UNL     1      53.367   3.689  17.774  0.00  0.00    +0.000 OA
ATOM     18  C   UNL     1      53.518   3.530  19.195  0.00  0.00    +0.000 C 
ENDBRANCH  11  14
ENDBRANCH   9  10
ENDBRANCH   6   9
ENDBRANCH   2   3
BRANCH   2  19
ATOM     19  N   UNL     1      46.873   6.013  14.126  0.00  0.00    +0.000 N 
ATOM     20  C   UNL     1      46.033   6.548  13.187  0.00  0.00    +0.000 C 
ATOM     21  O   UNL     1      45.002   5.989  12.822  0.00  0.00    +0.000 OA
ATOM     22  H   UNL     1      47.785   6.434  14.271  0.00  0.00    +0.000 HD
BRANCH  20  23
ATOM     23  C   UNL     1      46.408   7.867  12.666  0.00  0.00    +0.000 A 
ATOM     24  C   UNL     1      45.436   8.836  12.459  0.00  0.00    +0.000 A 
ATOM     25  S   UNL     1      46.057  10.303  11.848  0.00  0.00    +0.000 S 
ATOM     26  C   UNL     1      47.638   9.672  11.789  0.00  0.00    +0.000 A 
ATOM     27  N   UNL     1      48.668  10.414  11.304  0.00  0.00    +0.000 NA
ATOM     28  C   UNL     1      49.803   9.797  11.279  0.00  0.00    +0.000 A 
ATOM     29  N   UNL     1      50.003   8.510  11.710  0.00  0.00    +0.000 N 
ATOM     30  C   UNL     1      49.006   7.741  12.264  0.00  0.00    +0.000 A 
ATOM     31  O   UNL     1      49.238   6.634  12.739  0.00  0.00    +0.000 OA
ATOM     32  C   UNL     1      47.697   8.374  12.270  0.00  0.00    +0.000 A 
ATOM     33  H   UNL     1      50.924   8.098  11.690  0.00  0.00    +0.000 HD
ENDBRANCH  20  23
ENDBRANCH   2  19
TORSDOF 6
ENDMDL
MODEL 8
REMARK VINA RESULT:    -5.097      4.005      8.510
REMARK INTER + INTRA:          -8.279
REMARK INTER:                  -8.009
REMARK INTRA:                  -0.270
REMARK UNBOUND:                -1.394
REMARK  Name = 
REMARK  7 active torsions:
REMARK  status: ('A' for Active; 'I' for Inactive)
REMARK    1  A    between atoms: C_1  and  C_2
REMARK    2  A    between atoms: C_2  and  N_3
REMARK    3  A    between atoms: C_2  and  C_16
REMARK    4  A    between atoms: C_4  and  C_6
REMARK    5  A    between atoms: C_19  and  C_20
REMARK    6  A    between atoms: C_20  and  N_21
REMARK    7  A    between atoms: C_22  and  C_24
REMARK                            x       y       z     vdW  Elec       q    Type
REMARK                         _______ _______ _______ _____ _____    ______ ____
ROOT
ATOM      1  C   UNL     1      46.882   3.331  13.614  0.00  0.00    +0.000 C 
ATOM      2  C   UNL     1      46.551   4.361  14.702  0.00  0.00    +0.000 C 
ENDROOT
BRANCH   2   3
ATOM      3  C   UNL     1      47.575   4.417  15.825  0.00  0.00    +0.000 A 
ATOM      4  C   UNL     1      47.926   3.239  16.507  0.00  0.00    +0.000 A 
ATOM      5  C   UNL     1      48.877   3.254  17.533  0.00  0.00    +0.000 A 
ATOM      6  C   UNL     1      49.492   4.453  17.914  0.00  0.00    +0.000 A 
ATOM      7  C   UNL     1      49.126   5.633  17.258  0.00  0.00    +0.000 A 
ATOM      8  C   UNL     1      48.173   5.617  16.239  0.00  0.00    +0.000 A 
BRANCH   6   9
ATOM      9  C   UNL     1      50.555   4.487  18.981  0.00  0.00    +0.000 C 
BRANCH   9  10
ATOM     10  N   UNL     1      51.644   3.588  18.668  0.00  0.00    +0.000 N 
ATOM     11  C   UNL     1      52.749   4.022  17.980  0.00  0.00    +0.000 C 
ATOM     12  O   UNL     1      52.846   5.173  17.555  0.00  0.00    +0.000 OA
ATOM     13  H   UNL     1      51.553   2.612  18.931  0.00  0.00    +0.000 HD
BRANCH  11  14
ATOM     14  C   UNL     1      53.831   2.990  17.678  0.00  0.00    +0.000 C 
ATOM     15  C   UNL     1      53.794   1.827  18.643  0.00  0.00    +0.000 C 
ATOM     16  C   UNL     1      54.691   2.285  19.773  0.00  0.00    +0.000 C 
ATOM     17  O   UNL     1      55.574   3.286  19.241  0.00  0.00    +0.000 OA
ATOM     18  C   UNL     1      55.243   3.503  17.859  0.00  0.00    +0.000 C 
ENDBRANCH  11  14
ENDBRANCH   9  10
ENDBRANCH   6   9
ENDBRANCH   2   3
BRANCH   2  19
ATOM     19  N   UNL     1      46.404   5.683  14.122  0.00  0.00    +0.000 N 
ATOM     20  C   UNL     1      47.347   6.235  13.298  0.00  0.00    +0.000 C 
ATOM     21  O   UNL     1      48.325   5.610  12.895  0.00  0.00    +0.000 OA
ATOM     22  H   UNL     1      45.710   6.285  14.552  0.00  0.00    +0.000 HD
BRANCH  20  23
ATOM     23  C   UNL     1      47.100   7.617  12.873  0.00  0.00    +0.000 A 
ATOM     24  C   UNL     1      48.016   8.614  13.177  0.00  0.00    +0.000 A 
ATOM     25  S   UNL     1      47.559  10.155  12.606  0.00  0.00    +0.000 S 
ATOM     26  C   UNL     1      46.096   9.550  11.981  0.00  0.00    +0.000 A 
ATOM     27  N   UNL     1      45.193  10.377  11.391  0.00  0.00    +0.000 NA
ATOM     28  C   UNL     1      44.110   9.792  11.000  0.00  0.00    +0.000 A 
ATOM     29  N   UNL     1      43.855   8.449  11.134  0.00  0.00    +0.000 N 
ATOM     30  C   UNL     1      44.760   7.563  11.669  0.00  0.00    +0.000 A 
ATOM     31  O   UNL     1      44.548   6.355  11.677  0.00  0.00    +0.000 OA
ATOM     32  C   UNL     1      45.978   8.182  12.168  0.00  0.00    +0.000 A 
ATOM     33  H   UNL     1      42.998   8.051  10.779  0.00  0.00    +0.000 HD
ENDBRANCH  20  23
ENDBRANCH   2  19
TORSDOF 6
ENDMDL
MODEL 9
REMARK VINA RESULT:    -4.752     11.067     13.327
REMARK INTER + INTRA:          -7.814
REMARK INTER:                  -6.142
REMARK INTRA:                  -1.672
REMARK UNBOUND:                -1.394
REMARK  Name = 
REMARK  7 active torsions:
REMARK  status: ('A' for Active; 'I' for Inactive)
REMARK    1  A    between atoms: C_1  and  C_2
REMARK    2  A    between atoms: C_2  and  N_3
REMARK    3  A    between atoms: C_2  and  C_16
REMARK    4  A    between atoms: C_4  and  C_6
REMARK    5  A    between atoms: C_19  and  C_20
REMARK    6  A    between atoms: C_20  and  N_21
REMARK    7  A    between atoms: C_22  and  C_24
REMARK                            x       y       z     vdW  Elec       q    Type
REMARK                         _______ _______ _______ _____ _____    ______ ____
ROOT
ATOM      1  C   UNL     1      36.876  -2.765  11.346  0.00  0.00    +0.000 C 
ATOM      2  C   UNL     1      37.970  -1.924  12.017  0.00  0.00    +0.000 C 
ENDROOT
BRANCH   2   3
ATOM      3  C   UNL     1      37.434  -0.740  12.808  0.00  0.00    +0.000 A 
ATOM      4  C   UNL     1      37.413  -0.793  14.213  0.00  0.00    +0.000 A 
ATOM      5  C   UNL     1      36.943   0.286  14.970  0.00  0.00    +0.000 A 
ATOM      6  C   UNL     1      36.465   1.441  14.339  0.00  0.00    +0.000 A 
ATOM      7  C   UNL     1      36.456   1.488  12.941  0.00  0.00    +0.000 A 
ATOM      8  C   UNL     1      36.921   0.408  12.187  0.00  0.00    +0.000 A 
BRANCH   6   9
ATOM      9  C   UNL     1      36.000   2.634  15.131  0.00  0.00    +0.000 C 
BRANCH   9  10
ATOM     10  N   UNL     1      36.234   2.450  16.546  0.00  0.00    +0.000 N 
ATOM     11  C   UNL     1      37.179   3.189  17.213  0.00  0.00    +0.000 C 
ATOM     12  O   UNL     1      37.902   4.001  16.636  0.00  0.00    +0.000 OA
ATOM     13  H   UNL     1      35.713   1.726  17.031  0.00  0.00    +0.000 HD
BRANCH  11  14
ATOM     14  C   UNL     1      37.367   2.901  18.699  0.00  0.00    +0.000 C 
ATOM     15  C   UNL     1      38.666   2.182  18.980  0.00  0.00    +0.000 C 
ATOM     16  C   UNL     1      38.290   0.720  18.849  0.00  0.00    +0.000 C 
ATOM     17  O   UNL     1      36.872   0.622  19.064  0.00  0.00    +0.000 OA
ATOM     18  C   UNL     1      36.347   1.944  19.276  0.00  0.00    +0.000 C 
ENDBRANCH  11  14
ENDBRANCH   9  10
ENDBRANCH   6   9
ENDBRANCH   2   3
BRANCH   2  19
ATOM     19  N   UNL     1      38.784  -2.752  12.887  0.00  0.00    +0.000 N 
ATOM     20  C   UNL     1      40.125  -2.935  12.687  0.00  0.00    +0.000 C 
ATOM     21  O   UNL     1      40.759  -2.322  11.832  0.00  0.00    +0.000 OA
ATOM     22  H   UNL     1      38.282  -3.395  13.491  0.00  0.00    +0.000 HD
BRANCH  20  23
ATOM     23  C   UNL     1      40.788  -3.878  13.594  0.00  0.00    +0.000 A 
ATOM     24  C   UNL     1      41.170  -5.132  13.139  0.00  0.00    +0.000 A 
ATOM     25  S   UNL     1      41.921  -6.091  14.332  0.00  0.00    +0.000 S 
ATOM     26  C   UNL     1      41.712  -4.881  15.513  0.00  0.00    +0.000 A 
ATOM     27  N   UNL     1      42.101  -5.086  16.799  0.00  0.00    +0.000 NA
ATOM     28  C   UNL     1      41.845  -4.101  17.596  0.00  0.00    +0.000 A 
ATOM     29  N   UNL     1      41.247  -2.925  17.218  0.00  0.00    +0.000 N 
ATOM     30  C   UNL     1      40.891  -2.648  15.918  0.00  0.00    +0.000 A 
ATOM     31  O   UNL     1      40.459  -1.547  15.593  0.00  0.00    +0.000 OA
ATOM     32  C   UNL     1      41.115  -3.744  14.991  0.00  0.00    +0.000 A 
ATOM     33  H   UNL     1      41.103  -2.183  17.888  0.00  0.00    +0.000 HD
ENDBRANCH  20  23
ENDBRANCH   2  19
TORSDOF 6
ENDMDL
