MODEL 1
REMARK VINA RESULT:    -7.687      0.000      0.000
REMARK INTER + INTRA:         -10.741
REMARK INTER:                 -10.159
REMARK INTRA:                  -0.582
REMARK UNBOUND:                -0.582
REMARK  Name = 
REMARK  7 active torsions:
REMARK  status: ('A' for Active; 'I' for Inactive)
REMARK    1  A    between atoms: C_1  and  O_2
REMARK    2  A    between atoms: O_2  and  C_3
REMARK    3  A    between atoms: C_3  and  C_5
REMARK    4  A    between atoms: C_8  and  N_9
REMARK    5  A    between atoms: N_9  and  C_10
REMARK    6  A    between atoms: C_10  and  C_11
REMARK    7  A    between atoms: C_14  and  N_15
REMARK                            x       y       z     vdW  Elec       q    Type
REMARK                         _______ _______ _______ _____ _____    ______ ____
ROOT
ATOM      1  N   UNL     1      44.211   4.154  10.115  0.00  0.00    +0.000 N 
ATOM      2  H   UNL     1      44.436   4.848   9.404  0.00  0.00    +0.000 HD
ENDROOT
BRANCH   1   6
ATOM      3  C   UNL     1      46.433   4.689  13.656  0.00  0.00    +0.000 A 
ATOM      4  C   UNL     1      46.024   5.815  12.933  0.00  0.00    +0.000 A 
ATOM      5  C   UNL     1      45.270   5.660  11.762  0.00  0.00    +0.000 A 
ATOM      6  C   UNL     1      44.938   4.387  11.285  0.00  0.00    +0.000 A 
ATOM      7  C   UNL     1      45.289   3.276  12.062  0.00  0.00    +0.000 A 
ATOM      8  C   UNL     1      46.040   3.419  13.230  0.00  0.00    +0.000 A 
BRANCH   3   9
ATOM      9  C   UNL     1      47.279   4.791  14.872  0.00  0.00    +0.000 C 
ATOM     10  O   UNL     1      48.226   5.557  14.973  0.00  0.00    +0.000 OA
BRANCH   9  12
ATOM     11  C   UNL     1      47.822   3.353  16.625  0.00  0.00    +0.000 C 
ATOM     12  O   UNL     1      46.800   3.979  15.846  0.00  0.00    +0.000 OA
ENDBRANCH   9  12
ENDBRANCH   3   9
ENDBRANCH   1   6
BRANCH   1  13
ATOM     13  C   UNL     1      44.197   2.805   9.563  0.00  0.00    +0.000 C 
BRANCH  13  14
ATOM     14  C   UNL     1      45.287   2.631   8.527  0.00  0.00    +0.000 A 
ATOM     15  C   UNL     1      45.730   3.737   7.790  0.00  0.00    +0.000 A 
ATOM     16  C   UNL     1      46.808   3.620   6.903  0.00  0.00    +0.000 A 
ATOM     17  C   UNL     1      47.441   2.393   6.703  0.00  0.00    +0.000 A 
ATOM     18  C   UNL     1      47.044   1.305   7.480  0.00  0.00    +0.000 A 
ATOM     19  C   UNL     1      45.971   1.417   8.372  0.00  0.00    +0.000 A 
BRANCH  17  20
ATOM     20  N   UNL     1      48.605   2.318   5.926  0.00  0.00    +0.000 N 
ATOM     21  H   UNL     1      48.443   1.999   4.977  0.00  0.00    +0.000 HD
ATOM     22  H   UNL     1      49.363   1.817   6.377  0.00  0.00    +0.000 HD
ENDBRANCH  17  20
ENDBRANCH  13  14
ENDBRANCH   1  13
TORSDOF 6
ENDMDL
MODEL 2
REMARK VINA RESULT:    -7.517      1.110      1.939
REMARK INTER + INTRA:         -10.516
REMARK INTER:                  -9.932
REMARK INTRA:                  -0.584
REMARK UNBOUND:                -0.582
REMARK  Name = 
REMARK  7 active torsions:
REMARK  status: ('A' for Active; 'I' for Inactive)
REMARK    1  A    between atoms: C_1  and  O_2
REMARK    2  A    between atoms: O_2  and  C_3
REMARK    3  A    between atoms: C_3  and  C_5
REMARK    4  A    between atoms: C_8  and  N_9
REMARK    5  A    between atoms: N_9  and  C_10
REMARK    6  A    between atoms: C_10  and  C_11
REMARK    7  A    between atoms: C_14  and  N_15
REMARK                            x       y       z     vdW  Elec       q    Type
REMARK                         _______ _______ _______ _____ _____    ______ ____
ROOT
ATOM      1  N   UNL     1      44.071   3.418  10.004  0.00  0.00    +0.000 N 
ATOM      2  H   UNL     1      43.818   4.059   9.254  0.00  0.00    +0.000 HD
ENDROOT
BRANCH   1   6
ATOM      3  C   UNL     1      46.487   5.200  12.963  0.00  0.00    +0.000 A 
ATOM      4  C   UNL     1      46.137   5.944  11.831  0.00  0.00    +0.000 A 
ATOM      5  C   UNL     1      45.321   5.376  10.843  0.00  0.00    +0.000 A 
ATOM      6  C   UNL     1      44.867   4.058  10.959  0.00  0.00    +0.000 A 
ATOM      7  C   UNL     1      45.161   3.355  12.133  0.00  0.00    +0.000 A 
ATOM      8  C   UNL     1      45.974   3.911  13.123  0.00  0.00    +0.000 A 
BRANCH   3   9
ATOM      9  C   UNL     1      47.392   5.731  14.013  0.00  0.00    +0.000 C 
ATOM     10  O   UNL     1      47.797   5.065  14.954  0.00  0.00    +0.000 OA
BRANCH   9  12
ATOM     11  C   UNL     1      49.155   7.191  13.569  0.00  0.00    +0.000 C 
ATOM     12  O   UNL     1      47.746   7.008  13.725  0.00  0.00    +0.000 OA
ENDBRANCH   9  12
ENDBRANCH   3   9
ENDBRANCH   1   6
BRANCH   1  13
ATOM     13  C   UNL     1      44.511   2.129   9.484  0.00  0.00    +0.000 C 
BRANCH  13  14
ATOM     14  C   UNL     1      45.576   2.307   8.423  0.00  0.00    +0.000 A 
ATOM     15  C   UNL     1      46.416   1.234   8.093  0.00  0.00    +0.000 A 
ATOM     16  C   UNL     1      47.336   1.344   7.043  0.00  0.00    +0.000 A 
ATOM     17  C   UNL     1      47.467   2.534   6.326  0.00  0.00    +0.000 A 
ATOM     18  C   UNL     1      46.591   3.581   6.610  0.00  0.00    +0.000 A 
ATOM     19  C   UNL     1      45.665   3.476   7.654  0.00  0.00    +0.000 A 
BRANCH  17  20
ATOM     20  N   UNL     1      48.285   2.585   5.189  0.00  0.00    +0.000 N 
ATOM     21  H   UNL     1      49.079   3.209   5.285  0.00  0.00    +0.000 HD
ATOM     22  H   UNL     1      47.773   2.742   4.327  0.00  0.00    +0.000 HD
ENDBRANCH  17  20
ENDBRANCH  13  14
ENDBRANCH   1  13
TORSDOF 6
ENDMDL
MODEL 3
REMARK VINA RESULT:    -7.398      3.604      6.630
REMARK INTER + INTRA:         -10.358
REMARK INTER:                 -10.108
REMARK INTRA:                  -0.251
REMARK UNBOUND:                -0.582
REMARK  Name = 
REMARK  7 active torsions:
REMARK  status: ('A' for Active; 'I' for Inactive)
REMARK    1  A    between atoms: C_1  and  O_2
REMARK    2  A    between atoms: O_2  and  C_3
REMARK    3  A    between atoms: C_3  and  C_5
REMARK    4  A    between atoms: C_8  and  N_9
REMARK    5  A    between atoms: N_9  and  C_10
REMARK    6  A    between atoms: C_10  and  C_11
REMARK    7  A    between atoms: C_14  and  N_15
REMARK                            x       y       z     vdW  Elec       q    Type
REMARK                         _______ _______ _______ _____ _____    ______ ____
ROOT
ATOM      1  N   UNL     1      43.710   4.858   9.767  0.00  0.00    +0.000 N 
ATOM      2  H   UNL     1      42.838   4.920   9.244  0.00  0.00    +0.000 HD
ENDROOT
BRANCH   1   6
ATOM      3  C   UNL     1      46.335   2.133   7.908  0.00  0.00    +0.000 A 
ATOM      4  C   UNL     1      46.498   3.503   7.675  0.00  0.00    +0.000 A 
ATOM      5  C   UNL     1      45.647   4.427   8.295  0.00  0.00    +0.000 A 
ATOM      6  C   UNL     1      44.611   3.998   9.133  0.00  0.00    +0.000 A 
ATOM      7  C   UNL     1      44.512   2.631   9.418  0.00  0.00    +0.000 A 
ATOM      8  C   UNL     1      45.354   1.702   8.804  0.00  0.00    +0.000 A 
BRANCH   3   9
ATOM      9  C   UNL     1      47.171   1.108   7.236  0.00  0.00    +0.000 C 
ATOM     10  O   UNL     1      46.896  -0.082   7.218  0.00  0.00    +0.000 OA
BRANCH   9  12
ATOM     11  C   UNL     1      47.889   2.192   5.300  0.00  0.00    +0.000 C 
ATOM     12  O   UNL     1      48.215   1.697   6.601  0.00  0.00    +0.000 OA
ENDBRANCH   9  12
ENDBRANCH   3   9
ENDBRANCH   1   6
BRANCH   1  13
ATOM     13  C   UNL     1      43.469   4.681  11.194  0.00  0.00    +0.000 C 
BRANCH  13  14
ATOM     14  C   UNL     1      44.692   5.056  12.003  0.00  0.00    +0.000 A 
ATOM     15  C   UNL     1      45.117   6.390  12.043  0.00  0.00    +0.000 A 
ATOM     16  C   UNL     1      46.182   6.777  12.868  0.00  0.00    +0.000 A 
ATOM     17  C   UNL     1      46.869   5.838  13.639  0.00  0.00    +0.000 A 
ATOM     18  C   UNL     1      46.408   4.521  13.650  0.00  0.00    +0.000 A 
ATOM     19  C   UNL     1      45.341   4.130  12.832  0.00  0.00    +0.000 A 
BRANCH  17  20
ATOM     20  N   UNL     1      47.833   6.257  14.566  0.00  0.00    +0.000 N 
ATOM     21  H   UNL     1      47.457   6.449  15.488  0.00  0.00    +0.000 HD
ATOM     22  H   UNL     1      48.424   7.009  14.226  0.00  0.00    +0.000 HD
ENDBRANCH  17  20
ENDBRANCH  13  14
ENDBRANCH   1  13
TORSDOF 6
ENDMDL
MODEL 4
REMARK VINA RESULT:    -7.247      1.812      2.548
REMARK INTER + INTRA:         -10.159
REMARK INTER:                  -9.582
REMARK INTRA:                  -0.578
REMARK UNBOUND:                -0.582
REMARK  Name = 
REMARK  7 active torsions:
REMARK  status: ('A' for Active; 'I' for Inactive)
REMARK    1  A    between atoms: C_1  and  O_2
REMARK    2  A    between atoms: O_2  and  C_3
REMARK    3  A    between atoms: C_3  and  C_5
REMARK    4  A    between atoms: C_8  and  N_9
REMARK    5  A    between atoms: N_9  and  C_10
REMARK    6  A    between atoms: C_10  and  C_11
REMARK    7  A    between atoms: C_14  and  N_15
REMARK                            x       y       z     vdW  Elec       q    Type
REMARK                         _______ _______ _______ _____ _____    ______ ____
ROOT
ATOM      1  N   UNL     1      44.695   2.824  10.987  0.00  0.00    +0.000 N 
ATOM      2  H   UNL     1      44.158   2.291  11.669  0.00  0.00    +0.000 HD
ENDROOT
BRANCH   1   6
ATOM      3  C   UNL     1      45.572   6.669  12.476  0.00  0.00    +0.000 A 
ATOM      4  C   UNL     1      44.627   6.534  11.452  0.00  0.00    +0.000 A 
ATOM      5  C   UNL     1      44.309   5.264  10.954  0.00  0.00    +0.000 A 
ATOM      6  C   UNL     1      44.943   4.119  11.450  0.00  0.00    +0.000 A 
ATOM      7  C   UNL     1      45.827   4.264  12.526  0.00  0.00    +0.000 A 
ATOM      8  C   UNL     1      46.152   5.525  13.030  0.00  0.00    +0.000 A 
BRANCH   3   9
ATOM      9  C   UNL     1      45.988   7.992  13.003  0.00  0.00    +0.000 C 
ATOM     10  O   UNL     1      45.300   8.998  12.920  0.00  0.00    +0.000 OA
BRANCH   9  12
ATOM     11  C   UNL     1      47.869   9.135  13.771  0.00  0.00    +0.000 C 
ATOM     12  O   UNL     1      47.182   7.889  13.638  0.00  0.00    +0.000 OA
ENDBRANCH   9  12
ENDBRANCH   3   9
ENDBRANCH   1   6
BRANCH   1  13
ATOM     13  C   UNL     1      44.163   2.659   9.639  0.00  0.00    +0.000 C 
BRANCH  13  14
ATOM     14  C   UNL     1      45.280   2.567   8.622  0.00  0.00    +0.000 A 
ATOM     15  C   UNL     1      45.739   3.728   7.986  0.00  0.00    +0.000 A 
ATOM     16  C   UNL     1      46.840   3.681   7.121  0.00  0.00    +0.000 A 
ATOM     17  C   UNL     1      47.482   2.474   6.842  0.00  0.00    +0.000 A 
ATOM     18  C   UNL     1      47.068   1.328   7.521  0.00  0.00    +0.000 A 
ATOM     19  C   UNL     1      45.972   1.369   8.391  0.00  0.00    +0.000 A 
BRANCH  17  20
ATOM     20  N   UNL     1      48.666   2.462   6.092  0.00  0.00    +0.000 N 
ATOM     21  H   UNL     1      49.407   3.028   6.490  0.00  0.00    +0.000 HD
ATOM     22  H   UNL     1      48.524   2.650   5.105  0.00  0.00    +0.000 HD
ENDBRANCH  17  20
ENDBRANCH  13  14
ENDBRANCH   1  13
TORSDOF 6
ENDMDL
MODEL 5
REMARK VINA RESULT:    -6.158      3.779      6.982
REMARK INTER + INTRA:          -8.720
REMARK INTER:                  -8.835
REMARK INTRA:                   0.115
REMARK UNBOUND:                -0.582
REMARK  Name = 
REMARK  7 active torsions:
REMARK  status: ('A' for Active; 'I' for Inactive)
REMARK    1  A    between atoms: C_1  and  O_2
REMARK    2  A    between atoms: O_2  and  C_3
REMARK    3  A    between atoms: C_3  and  C_5
REMARK    4  A    between atoms: C_8  and  N_9
REMARK    5  A    between atoms: N_9  and  C_10
REMARK    6  A    between atoms: C_10  and  C_11
REMARK    7  A    between atoms: C_14  and  N_15
REMARK                            x       y       z     vdW  Elec       q    Type
REMARK                         _______ _______ _______ _____ _____    ______ ____
ROOT
ATOM      1  N   UNL     1      44.093   5.085   9.853  0.00  0.00    +0.000 N 
ATOM      2  H   UNL     1      43.151   5.146   9.470  0.00  0.00    +0.000 HD
ENDROOT
BRANCH   1   6
ATOM      3  C   UNL     1      46.483   2.382   7.674  0.00  0.00    +0.000 A 
ATOM      4  C   UNL     1      45.586   1.884   8.625  0.00  0.00    +0.000 A 
ATOM      5  C   UNL     1      44.770   2.764   9.349  0.00  0.00    +0.000 A 
ATOM      6  C   UNL     1      44.856   4.147   9.153  0.00  0.00    +0.000 A 
ATOM      7  C   UNL     1      45.702   4.623   8.145  0.00  0.00    +0.000 A 
ATOM      8  C   UNL     1      46.520   3.755   7.418  0.00  0.00    +0.000 A 
BRANCH   3   9
ATOM      9  C   UNL     1      47.410   1.503   6.919  0.00  0.00    +0.000 C 
ATOM     10  O   UNL     1      48.591   1.760   6.742  0.00  0.00    +0.000 OA
BRANCH   9  12
ATOM     11  C   UNL     1      46.709  -0.627   7.560  0.00  0.00    +0.000 C 
ATOM     12  O   UNL     1      46.772   0.369   6.537  0.00  0.00    +0.000 OA
ENDBRANCH   9  12
ENDBRANCH   3   9
ENDBRANCH   1   6
BRANCH   1  13
ATOM     13  C   UNL     1      44.075   5.019  11.310  0.00  0.00    +0.000 C 
BRANCH  13  14
ATOM     14  C   UNL     1      44.803   6.199  11.916  0.00  0.00    +0.000 A 
ATOM     15  C   UNL     1      45.906   5.982  12.753  0.00  0.00    +0.000 A 
ATOM     16  C   UNL     1      46.657   7.060  13.240  0.00  0.00    +0.000 A 
ATOM     17  C   UNL     1      46.304   8.375  12.936  0.00  0.00    +0.000 A 
ATOM     18  C   UNL     1      45.246   8.592  12.053  0.00  0.00    +0.000 A 
ATOM     19  C   UNL     1      44.495   7.520  11.559  0.00  0.00    +0.000 A 
BRANCH  17  20
ATOM     20  N   UNL     1      47.143   9.434  13.308  0.00  0.00    +0.000 N 
ATOM     21  H   UNL     1      47.909   9.594  12.662  0.00  0.00    +0.000 HD
ATOM     22  H   UNL     1      47.455   9.386  14.272  0.00  0.00    +0.000 HD
ENDBRANCH  17  20
ENDBRANCH  13  14
ENDBRANCH   1  13
TORSDOF 6
ENDMDL
MODEL 6
REMARK VINA RESULT:    -5.960      3.767      7.755
REMARK INTER + INTRA:          -8.458
REMARK INTER:                  -7.950
REMARK INTRA:                  -0.508
REMARK UNBOUND:                -0.582
REMARK  Name = 
REMARK  7 active torsions:
REMARK  status: ('A' for Active; 'I' for Inactive)
REMARK    1  A    between atoms: C_1  and  O_2
REMARK    2  A    between atoms: O_2  and  C_3
REMARK    3  A    between atoms: C_3  and  C_5
REMARK    4  A    between atoms: C_8  and  N_9
REMARK    5  A    between atoms: N_9  and  C_10
REMARK    6  A    between atoms: C_10  and  C_11
REMARK    7  A    between atoms: C_14  and  N_15
REMARK                            x       y       z     vdW  Elec       q    Type
REMARK                         _______ _______ _______ _____ _____    ______ ____
ROOT
ATOM      1  N   UNL     1      46.264   5.817  13.997  0.00  0.00    +0.000 N 
ATOM      2  H   UNL     1      45.692   5.448  14.756  0.00  0.00    +0.000 HD
ENDROOT
BRANCH   1   6
ATOM      3  C   UNL     1      45.275   4.173  10.244  0.00  0.00    +0.000 A 
ATOM      4  C   UNL     1      45.113   3.392  11.393  0.00  0.00    +0.000 A 
ATOM      5  C   UNL     1      45.421   3.924  12.652  0.00  0.00    +0.000 A 
ATOM      6  C   UNL     1      45.915   5.227  12.779  0.00  0.00    +0.000 A 
ATOM      7  C   UNL     1      45.996   6.021  11.629  0.00  0.00    +0.000 A 
ATOM      8  C   UNL     1      45.693   5.500  10.369  0.00  0.00    +0.000 A 
BRANCH   3   9
ATOM      9  C   UNL     1      45.018   3.644   8.881  0.00  0.00    +0.000 C 
ATOM     10  O   UNL     1      44.292   2.688   8.655  0.00  0.00    +0.000 OA
BRANCH   9  12
ATOM     11  C   UNL     1      46.594   3.704   7.164  0.00  0.00    +0.000 C 
ATOM     12  O   UNL     1      45.639   4.415   7.954  0.00  0.00    +0.000 OA
ENDBRANCH   9  12
ENDBRANCH   3   9
ENDBRANCH   1   6
BRANCH   1  13
ATOM     13  C   UNL     1      47.674   5.869  14.364  0.00  0.00    +0.000 C 
BRANCH  13  14
ATOM     14  C   UNL     1      47.927   5.125  15.658  0.00  0.00    +0.000 A 
ATOM     15  C   UNL     1      48.662   5.738  16.681  0.00  0.00    +0.000 A 
ATOM     16  C   UNL     1      48.818   5.110  17.924  0.00  0.00    +0.000 A 
ATOM     17  C   UNL     1      48.279   3.845  18.161  0.00  0.00    +0.000 A 
ATOM     18  C   UNL     1      47.495   3.260  17.167  0.00  0.00    +0.000 A 
ATOM     19  C   UNL     1      47.330   3.885  15.925  0.00  0.00    +0.000 A 
BRANCH  17  20
ATOM     20  N   UNL     1      48.317   3.292  19.448  0.00  0.00    +0.000 N 
ATOM     21  H   UNL     1      47.530   2.688  19.656  0.00  0.00    +0.000 HD
ATOM     22  H   UNL     1      48.484   3.975  20.179  0.00  0.00    +0.000 HD
ENDBRANCH  17  20
ENDBRANCH  13  14
ENDBRANCH   1  13
TORSDOF 6
ENDMDL
MODEL 7
REMARK VINA RESULT:    -5.800      3.926      7.665
REMARK INTER + INTRA:          -8.246
REMARK INTER:                  -7.793
REMARK INTRA:                  -0.453
REMARK UNBOUND:                -0.582
REMARK  Name = 
REMARK  7 active torsions:
REMARK  status: ('A' for Active; 'I' for Inactive)
REMARK    1  A    between atoms: C_1  and  O_2
REMARK    2  A    between atoms: O_2  and  C_3
REMARK    3  A    between atoms: C_3  and  C_5
REMARK    4  A    between atoms: C_8  and  N_9
REMARK    5  A    between atoms: N_9  and  C_10
REMARK    6  A    between atoms: C_10  and  C_11
REMARK    7  A    between atoms: C_14  and  N_15
REMARK                            x       y       z     vdW  Elec       q    Type
REMARK                         _______ _______ _______ _____ _____    ______ ____
ROOT
ATOM      1  N   UNL     1      47.374   5.153  15.058  0.00  0.00    +0.000 N 
ATOM      2  H   UNL     1      47.395   6.143  15.299  0.00  0.00    +0.000 HD
ENDROOT
BRANCH   1   6
ATOM      3  C   UNL     1      45.001   4.328  11.672  0.00  0.00    +0.000 A 
ATOM      4  C   UNL     1      45.225   5.659  12.039  0.00  0.00    +0.000 A 
ATOM      5  C   UNL     1      46.024   5.957  13.151  0.00  0.00    +0.000 A 
ATOM      6  C   UNL     1      46.587   4.934  13.924  0.00  0.00    +0.000 A 
ATOM      7  C   UNL     1      46.418   3.611  13.498  0.00  0.00    +0.000 A 
ATOM      8  C   UNL     1      45.623   3.304  12.392  0.00  0.00    +0.000 A 
BRANCH   3   9
ATOM      9  C   UNL     1      44.120   3.954  10.539  0.00  0.00    +0.000 C 
ATOM     10  O   UNL     1      43.490   4.765   9.877  0.00  0.00    +0.000 OA
BRANCH   9  12
ATOM     11  C   UNL     1      44.665   2.276   9.013  0.00  0.00    +0.000 C 
ATOM     12  O   UNL     1      44.185   2.618  10.316  0.00  0.00    +0.000 OA
ENDBRANCH   9  12
ENDBRANCH   3   9
ENDBRANCH   1   6
BRANCH   1  13
ATOM     13  C   UNL     1      47.147   4.319  16.232  0.00  0.00    +0.000 C 
BRANCH  13  14
ATOM     14  C   UNL     1      48.456   3.832  16.814  0.00  0.00    +0.000 A 
ATOM     15  C   UNL     1      48.812   2.482  16.695  0.00  0.00    +0.000 A 
ATOM     16  C   UNL     1      50.063   2.031  17.133  0.00  0.00    +0.000 A 
ATOM     17  C   UNL     1      50.971   2.905  17.732  0.00  0.00    +0.000 A 
ATOM     18  C   UNL     1      50.647   4.260  17.794  0.00  0.00    +0.000 A 
ATOM     19  C   UNL     1      49.400   4.718  17.353  0.00  0.00    +0.000 A 
BRANCH  17  20
ATOM     20  N   UNL     1      52.271   2.475  18.033  0.00  0.00    +0.000 N 
ATOM     21  H   UNL     1      52.997   3.074  17.654  0.00  0.00    +0.000 HD
ATOM     22  H   UNL     1      52.432   1.495  17.825  0.00  0.00    +0.000 HD
ENDBRANCH  17  20
ENDBRANCH  13  14
ENDBRANCH   1  13
TORSDOF 6
ENDMDL
MODEL 8
REMARK VINA RESULT:    -5.421      4.628      6.601
REMARK INTER + INTRA:          -7.745
REMARK INTER:                  -7.200
REMARK INTRA:                  -0.545
REMARK UNBOUND:                -0.582
REMARK  Name = 
REMARK  7 active torsions:
REMARK  status: ('A' for Active; 'I' for Inactive)
REMARK    1  A    between atoms: C_1  and  O_2
REMARK    2  A    between atoms: O_2  and  C_3
REMARK    3  A    between atoms: C_3  and  C_5
REMARK    4  A    between atoms: C_8  and  N_9
REMARK    5  A    between atoms: N_9  and  C_10
REMARK    6  A    between atoms: C_10  and  C_11
REMARK    7  A    between atoms: C_14  and  N_15
REMARK                            x       y       z     vdW  Elec       q    Type
REMARK                         _______ _______ _______ _____ _____    ______ ____
ROOT
ATOM      1  N   UNL     1      47.500   6.977  13.054  0.00  0.00    +0.000 N 
ATOM      2  H   UNL     1      48.449   6.612  13.108  0.00  0.00    +0.000 HD
ENDROOT
BRANCH   1   6
ATOM      3  C   UNL     1      44.832   4.137  11.446  0.00  0.00    +0.000 A 
ATOM      4  C   UNL     1      45.458   3.868  12.668  0.00  0.00    +0.000 A 
ATOM      5  C   UNL     1      46.336   4.805  13.228  0.00  0.00    +0.000 A 
ATOM      6  C   UNL     1      46.619   6.007  12.569  0.00  0.00    +0.000 A 
ATOM      7  C   UNL     1      45.926   6.294  11.387  0.00  0.00    +0.000 A 
ATOM      8  C   UNL     1      45.050   5.367  10.819  0.00  0.00    +0.000 A 
BRANCH   3   9
ATOM      9  C   UNL     1      43.938   3.159  10.779  0.00  0.00    +0.000 C 
ATOM     10  O   UNL     1      43.054   2.547  11.361  0.00  0.00    +0.000 OA
BRANCH   9  12
ATOM     11  C   UNL     1      45.127   2.085   9.085  0.00  0.00    +0.000 C 
ATOM     12  O   UNL     1      44.202   3.111   9.450  0.00  0.00    +0.000 OA
ENDBRANCH   9  12
ENDBRANCH   3   9
ENDBRANCH   1   6
BRANCH   1  13
ATOM     13  C   UNL     1      47.470   8.305  12.452  0.00  0.00    +0.000 C 
BRANCH  13  14
ATOM     14  C   UNL     1      48.807   8.651  11.833  0.00  0.00    +0.000 A 
ATOM     15  C   UNL     1      49.092   9.980  11.491  0.00  0.00    +0.000 A 
ATOM     16  C   UNL     1      50.360  10.339  11.015  0.00  0.00    +0.000 A 
ATOM     17  C   UNL     1      51.356   9.379  10.834  0.00  0.00    +0.000 A 
ATOM     18  C   UNL     1      51.096   8.068  11.233  0.00  0.00    +0.000 A 
ATOM     19  C   UNL     1      49.833   7.704  11.714  0.00  0.00    +0.000 A 
BRANCH  17  20
ATOM     20  N   UNL     1      52.659   9.770  10.497  0.00  0.00    +0.000 N 
ATOM     21  H   UNL     1      52.834  10.761  10.624  0.00  0.00    +0.000 HD
ATOM     22  H   UNL     1      52.959   9.439   9.585  0.00  0.00    +0.000 HD
ENDBRANCH  17  20
ENDBRANCH  13  14
ENDBRANCH   1  13
TORSDOF 6
ENDMDL
MODEL 9
REMARK VINA RESULT:    -5.146      4.158      7.821
REMARK INTER + INTRA:          -7.382
REMARK INTER:                  -6.865
REMARK INTRA:                  -0.518
REMARK UNBOUND:                -0.582
REMARK  Name = 
REMARK  7 active torsions:
REMARK  status: ('A' for Active; 'I' for Inactive)
REMARK    1  A    between atoms: C_1  and  O_2
REMARK    2  A    between atoms: O_2  and  C_3
REMARK    3  A    between atoms: C_3  and  C_5
REMARK    4  A    between atoms: C_8  and  N_9
REMARK    5  A    between atoms: N_9  and  C_10
REMARK    6  A    between atoms: C_10  and  C_11
REMARK    7  A    between atoms: C_14  and  N_15
REMARK                            x       y       z     vdW  Elec       q    Type
REMARK                         _______ _______ _______ _____ _____    ______ ____
ROOT
ATOM      1  N   UNL     1      48.610   6.530  13.519  0.00  0.00    +0.000 N 
ATOM      2  H   UNL     1      49.164   7.083  12.867  0.00  0.00    +0.000 HD
ENDROOT
BRANCH   1   6
ATOM      3  C   UNL     1      45.214   5.068  11.494  0.00  0.00    +0.000 A 
ATOM      4  C   UNL     1      45.634   4.431  12.666  0.00  0.00    +0.000 A 
ATOM      5  C   UNL     1      46.751   4.910  13.364  0.00  0.00    +0.000 A 
ATOM      6  C   UNL     1      47.474   6.011  12.890  0.00  0.00    +0.000 A 
ATOM      7  C   UNL     1      46.995   6.683  11.760  0.00  0.00    +0.000 A 
ATOM      8  C   UNL     1      45.884   6.213  11.057  0.00  0.00    +0.000 A 
BRANCH   3   9
ATOM      9  C   UNL     1      44.073   4.571  10.685  0.00  0.00    +0.000 C 
ATOM     10  O   UNL     1      44.148   4.327   9.491  0.00  0.00    +0.000 OA
BRANCH   9  12
ATOM     11  C   UNL     1      42.279   5.565  11.795  0.00  0.00    +0.000 C 
ATOM     12  O   UNL     1      42.991   4.367  11.477  0.00  0.00    +0.000 OA
ENDBRANCH   9  12
ENDBRANCH   3   9
ENDBRANCH   1   6
BRANCH   1  13
ATOM     13  C   UNL     1      48.445   7.212  14.797  0.00  0.00    +0.000 C 
BRANCH  13  14
ATOM     14  C   UNL     1      49.074   6.419  15.922  0.00  0.00    +0.000 A 
ATOM     15  C   UNL     1      48.331   5.425  16.573  0.00  0.00    +0.000 A 
ATOM     16  C   UNL     1      48.926   4.609  17.543  0.00  0.00    +0.000 A 
ATOM     17  C   UNL     1      50.259   4.789  17.913  0.00  0.00    +0.000 A 
ATOM     18  C   UNL     1      51.018   5.734  17.223  0.00  0.00    +0.000 A 
ATOM     19  C   UNL     1      50.431   6.549  16.248  0.00  0.00    +0.000 A 
BRANCH  17  20
ATOM     20  N   UNL     1      50.881   3.877  18.776  0.00  0.00    +0.000 N 
ATOM     21  H   UNL     1      50.287   3.100  19.047  0.00  0.00    +0.000 HD
ATOM     22  H   UNL     1      51.331   4.314  19.574  0.00  0.00    +0.000 HD
ENDBRANCH  17  20
ENDBRANCH  13  14
ENDBRANCH   1  13
TORSDOF 6
ENDMDL
