MODEL 1
REMARK VINA RESULT:    -8.943      0.000      0.000
REMARK INTER + INTRA:         -10.950
REMARK INTER:                 -10.511
REMARK INTRA:                  -0.439
REMARK UNBOUND:                -0.439
REMARK  Name = 
REMARK  3 active torsions:
REMARK  status: ('A' for Active; 'I' for Inactive)
REMARK    1  A    between atoms: C_2  and  C_4
REMARK    2  A    between atoms: N_8  and  C_9
REMARK    3  A    between atoms: C_9  and  C_10
REMARK                            x       y       z     vdW  Elec       q    Type
REMARK                         _______ _______ _______ _____ _____    ______ ____
ROOT
ATOM      1  C   UNL     1      46.525   2.507   7.615  0.00  0.00    +0.000 A 
ATOM      2  C   UNL     1      45.709   1.965   8.602  0.00  0.00    +0.000 A 
ATOM      3  C   UNL     1      44.911   2.817   9.366  0.00  0.00    +0.000 A 
ATOM      4  C   UNL     1      44.960   4.192   9.152  0.00  0.00    +0.000 A 
ATOM      5  N   UNL     1      44.133   5.094   9.806  0.00  0.00    +0.000 N 
ATOM      6  N   UNL     1      45.772   4.730   8.222  0.00  0.00    +0.000 NA
ATOM      7  C   UNL     1      46.538   3.886   7.478  0.00  0.00    +0.000 A 
ATOM      8  H   UNL     1      44.503   6.024   9.614  0.00  0.00    +0.000 HD
ENDROOT
BRANCH   1  10
ATOM      9  N   UNL     1      48.436   2.288   6.135  0.00  0.00    +0.000 N 
ATOM     10  C   UNL     1      47.361   1.681   6.722  0.00  0.00    +0.000 C 
ATOM     11  O   UNL     1      47.129   0.493   6.542  0.00  0.00    +0.000 OA
ATOM     12  H   UNL     1      49.063   1.686   5.614  0.00  0.00    +0.000 HD
ATOM     13  H   UNL     1      48.805   3.175   6.451  0.00  0.00    +0.000 HD
ENDBRANCH   1  10
BRANCH   5  14
ATOM     14  C   UNL     1      43.815   4.845  11.202  0.00  0.00    +0.000 C 
BRANCH  14  15
ATOM     15  C   UNL     1      45.043   4.885  12.084  0.00  0.00    +0.000 A 
ATOM     16  C   UNL     1      45.394   3.812  12.871  0.00  0.00    +0.000 A 
ATOM     17  C   UNL     1      46.603   3.921  13.512  0.00  0.00    +0.000 A 
ATOM     18  N   UNL     1      47.423   4.980  13.386  0.00  0.00    +0.000 NA
ATOM     19  C   UNL     1      47.012   5.995  12.611  0.00  0.00    +0.000 A 
ATOM     20  N   UNL     1      47.839   7.067  12.391  0.00  0.00    +0.000 N 
ATOM     21  C   UNL     1      49.210   7.089  12.890  0.00  0.00    +0.000 C 
ATOM     22  C   UNL     1      49.371   8.151  13.985  0.00  0.00    +0.000 C 
ATOM     23  O   UNL     1      48.895   9.437  13.553  0.00  0.00    +0.000 OA
ATOM     24  C   UNL     1      47.501   9.357  13.208  0.00  0.00    +0.000 C 
ATOM     25  C   UNL     1      47.262   8.367  12.056  0.00  0.00    +0.000 C 
ATOM     26  N   UNL     1      45.833   5.975  11.971  0.00  0.00    +0.000 NA
ENDBRANCH  14  15
ENDBRANCH   5  14
TORSDOF 3
ENDMDL
MODEL 2
REMARK VINA RESULT:    -7.816      2.553      3.419
REMARK INTER + INTRA:          -9.626
REMARK INTER:                  -9.291
REMARK INTRA:                  -0.335
REMARK UNBOUND:                -0.439
REMARK  Name = 
REMARK  3 active torsions:
REMARK  status: ('A' for Active; 'I' for Inactive)
REMARK    1  A    between atoms: C_2  and  C_4
REMARK    2  A    between atoms: N_8  and  C_9
REMARK    3  A    between atoms: C_9  and  C_10
REMARK                            x       y       z     vdW  Elec       q    Type
REMARK                         _______ _______ _______ _____ _____    ______ ____
ROOT
ATOM      1  C   UNL     1      46.288   2.789   7.651  0.00  0.00    +0.000 A 
ATOM      2  C   UNL     1      45.877   2.038   8.747  0.00  0.00    +0.000 A 
ATOM      3  C   UNL     1      45.327   2.691   9.850  0.00  0.00    +0.000 A 
ATOM      4  C   UNL     1      45.222   4.080   9.853  0.00  0.00    +0.000 A 
ATOM      5  N   UNL     1      44.605   4.793  10.870  0.00  0.00    +0.000 N 
ATOM      6  N   UNL     1      45.648   4.818   8.811  0.00  0.00    +0.000 NA
ATOM      7  C   UNL     1      46.173   4.166   7.738  0.00  0.00    +0.000 A 
ATOM      8  H   UNL     1      44.835   5.774  10.721  0.00  0.00    +0.000 HD
ENDROOT
BRANCH   1  10
ATOM      9  N   UNL     1      47.027   3.010   5.350  0.00  0.00    +0.000 N 
ATOM     10  C   UNL     1      46.829   2.181   6.419  0.00  0.00    +0.000 C 
ATOM     11  O   UNL     1      47.125   0.995   6.365  0.00  0.00    +0.000 OA
ATOM     12  H   UNL     1      47.500   2.605   4.550  0.00  0.00    +0.000 HD
ATOM     13  H   UNL     1      47.040   4.018   5.432  0.00  0.00    +0.000 HD
ENDBRANCH   1  10
BRANCH   5  14
ATOM     14  C   UNL     1      44.782   4.331  12.237  0.00  0.00    +0.000 C 
BRANCH  14  15
ATOM     15  C   UNL     1      46.010   4.927  12.888  0.00  0.00    +0.000 A 
ATOM     16  C   UNL     1      46.686   5.979  12.310  0.00  0.00    +0.000 A 
ATOM     17  C   UNL     1      47.693   6.519  13.069  0.00  0.00    +0.000 A 
ATOM     18  N   UNL     1      48.013   6.090  14.304  0.00  0.00    +0.000 NA
ATOM     19  C   UNL     1      47.320   5.054  14.799  0.00  0.00    +0.000 A 
ATOM     20  N   UNL     1      47.556   4.621  16.079  0.00  0.00    +0.000 N 
ATOM     21  C   UNL     1      48.470   5.331  16.968  0.00  0.00    +0.000 C 
ATOM     22  C   UNL     1      49.714   4.479  17.257  0.00  0.00    +0.000 C 
ATOM     23  O   UNL     1      49.362   3.164  17.721  0.00  0.00    +0.000 OA
ATOM     24  C   UNL     1      48.574   2.484  16.729  0.00  0.00    +0.000 C 
ATOM     25  C   UNL     1      47.264   3.235  16.438  0.00  0.00    +0.000 C 
ATOM     26  N   UNL     1      46.336   4.454  14.110  0.00  0.00    +0.000 NA
ENDBRANCH  14  15
ENDBRANCH   5  14
TORSDOF 3
ENDMDL
MODEL 3
REMARK VINA RESULT:    -7.429      1.585      2.344
REMARK INTER + INTRA:          -9.170
REMARK INTER:                  -8.797
REMARK INTRA:                  -0.373
REMARK UNBOUND:                -0.439
REMARK  Name = 
REMARK  3 active torsions:
REMARK  status: ('A' for Active; 'I' for Inactive)
REMARK    1  A    between atoms: C_2  and  C_4
REMARK    2  A    between atoms: N_8  and  C_9
REMARK    3  A    between atoms: C_9  and  C_10
REMARK                            x       y       z     vdW  Elec       q    Type
REMARK                         _______ _______ _______ _____ _____    ______ ____
ROOT
ATOM      1  C   UNL     1      46.308   2.057   7.952  0.00  0.00    +0.000 A 
ATOM      2  C   UNL     1      45.594   1.853   9.127  0.00  0.00    +0.000 A 
ATOM      3  C   UNL     1      44.878   2.917   9.678  0.00  0.00    +0.000 A 
ATOM      4  C   UNL     1      44.909   4.167   9.066  0.00  0.00    +0.000 A 
ATOM      5  N   UNL     1      44.153   5.246   9.501  0.00  0.00    +0.000 N 
ATOM      6  N   UNL     1      45.626   4.382   7.947  0.00  0.00    +0.000 NA
ATOM      7  C   UNL     1      46.311   3.334   7.415  0.00  0.00    +0.000 A 
ATOM      8  H   UNL     1      44.505   6.067   9.010  0.00  0.00    +0.000 HD
ENDROOT
BRANCH   1  10
ATOM      9  N   UNL     1      46.748  -0.307   7.619  0.00  0.00    +0.000 N 
ATOM     10  C   UNL     1      47.049   0.979   7.267  0.00  0.00    +0.000 C 
ATOM     11  O   UNL     1      47.871   1.220   6.393  0.00  0.00    +0.000 OA
ATOM     12  H   UNL     1      47.181  -1.037   7.066  0.00  0.00    +0.000 HD
ATOM     13  H   UNL     1      45.913  -0.553   8.136  0.00  0.00    +0.000 HD
ENDBRANCH   1  10
BRANCH   5  14
ATOM     14  C   UNL     1      43.976   5.426  10.932  0.00  0.00    +0.000 C 
BRANCH  14  15
ATOM     15  C   UNL     1      44.568   6.729  11.422  0.00  0.00    +0.000 A 
ATOM     16  C   UNL     1      43.900   7.923  11.262  0.00  0.00    +0.000 A 
ATOM     17  C   UNL     1      44.475   9.006  11.875  0.00  0.00    +0.000 A 
ATOM     18  N   UNL     1      45.603   8.941  12.607  0.00  0.00    +0.000 NA
ATOM     19  C   UNL     1      46.207   7.747  12.711  0.00  0.00    +0.000 A 
ATOM     20  N   UNL     1      47.318   7.609  13.501  0.00  0.00    +0.000 N 
ATOM     21  C   UNL     1      47.808   8.706  14.331  0.00  0.00    +0.000 C 
ATOM     22  C   UNL     1      49.163   9.210  13.817  0.00  0.00    +0.000 C 
ATOM     23  O   UNL     1      50.108   8.136  13.667  0.00  0.00    +0.000 OA
ATOM     24  C   UNL     1      49.607   7.165  12.731  0.00  0.00    +0.000 C 
ATOM     25  C   UNL     1      48.283   6.549  13.213  0.00  0.00    +0.000 C 
ATOM     26  N   UNL     1      45.720   6.644  12.121  0.00  0.00    +0.000 NA
ENDBRANCH  14  15
ENDBRANCH   5  14
TORSDOF 3
ENDMDL
MODEL 4
REMARK VINA RESULT:    -6.553      4.425      7.859
REMARK INTER + INTRA:          -8.141
REMARK INTER:                  -7.739
REMARK INTRA:                  -0.402
REMARK UNBOUND:                -0.439
REMARK  Name = 
REMARK  3 active torsions:
REMARK  status: ('A' for Active; 'I' for Inactive)
REMARK    1  A    between atoms: C_2  and  C_4
REMARK    2  A    between atoms: N_8  and  C_9
REMARK    3  A    between atoms: C_9  and  C_10
REMARK                            x       y       z     vdW  Elec       q    Type
REMARK                         _______ _______ _______ _____ _____    ______ ____
ROOT
ATOM      1  C   UNL     1      50.941   2.515  17.369  0.00  0.00    +0.000 A 
ATOM      2  C   UNL     1      51.224   3.872  17.469  0.00  0.00    +0.000 A 
ATOM      3  C   UNL     1      50.254   4.798  17.082  0.00  0.00    +0.000 A 
ATOM      4  C   UNL     1      49.034   4.355  16.578  0.00  0.00    +0.000 A 
ATOM      5  N   UNL     1      47.988   5.209  16.258  0.00  0.00    +0.000 N 
ATOM      6  N   UNL     1      48.764   3.042  16.445  0.00  0.00    +0.000 NA
ATOM      7  C   UNL     1      49.716   2.152  16.836  0.00  0.00    +0.000 A 
ATOM      8  H   UNL     1      47.306   4.656  15.740  0.00  0.00    +0.000 HD
ENDROOT
BRANCH   1  10
ATOM      9  N   UNL     1      51.349   0.261  18.173  0.00  0.00    +0.000 N 
ATOM     10  C   UNL     1      51.883   1.465  17.806  0.00  0.00    +0.000 C 
ATOM     11  O   UNL     1      53.093   1.647  17.805  0.00  0.00    +0.000 OA
ATOM     12  H   UNL     1      52.010  -0.483  18.365  0.00  0.00    +0.000 HD
ATOM     13  H   UNL     1      50.401  -0.010  17.947  0.00  0.00    +0.000 HD
ENDBRANCH   1  10
BRANCH   5  14
ATOM     14  C   UNL     1      48.310   6.491  15.655  0.00  0.00    +0.000 C 
BRANCH  14  15
ATOM     15  C   UNL     1      47.809   6.595  14.231  0.00  0.00    +0.000 A 
ATOM     16  C   UNL     1      48.462   7.370  13.298  0.00  0.00    +0.000 A 
ATOM     17  C   UNL     1      47.991   7.266  12.014  0.00  0.00    +0.000 A 
ATOM     18  N   UNL     1      46.977   6.459  11.651  0.00  0.00    +0.000 NA
ATOM     19  C   UNL     1      46.380   5.741  12.614  0.00  0.00    +0.000 A 
ATOM     20  N   UNL     1      45.390   4.850  12.290  0.00  0.00    +0.000 N 
ATOM     21  C   UNL     1      45.036   4.573  10.901  0.00  0.00    +0.000 C 
ATOM     22  C   UNL     1      43.627   5.096  10.587  0.00  0.00    +0.000 C 
ATOM     23  O   UNL     1      42.658   4.617  11.536  0.00  0.00    +0.000 OA
ATOM     24  C   UNL     1      43.010   5.047  12.862  0.00  0.00    +0.000 C 
ATOM     25  C   UNL     1      44.381   4.496  13.287  0.00  0.00    +0.000 C 
ATOM     26  N   UNL     1      46.765   5.805  13.899  0.00  0.00    +0.000 NA
ENDBRANCH  14  15
ENDBRANCH   5  14
TORSDOF 3
ENDMDL
MODEL 5
REMARK VINA RESULT:    -6.532      1.957      6.923
REMARK INTER + INTRA:          -8.116
REMARK INTER:                  -7.675
REMARK INTRA:                  -0.441
REMARK UNBOUND:                -0.439
REMARK  Name = 
REMARK  3 active torsions:
REMARK  status: ('A' for Active; 'I' for Inactive)
REMARK    1  A    between atoms: C_2  and  C_4
REMARK    2  A    between atoms: N_8  and  C_9
REMARK    3  A    between atoms: C_9  and  C_10
REMARK                            x       y       z     vdW  Elec       q    Type
REMARK                         _______ _______ _______ _____ _____    ______ ____
ROOT
ATOM      1  C   UNL     1      50.131   8.166  12.896  0.00  0.00    +0.000 A 
ATOM      2  C   UNL     1      49.348   8.368  11.766  0.00  0.00    +0.000 A 
ATOM      3  C   UNL     1      47.961   8.253  11.871  0.00  0.00    +0.000 A 
ATOM      4  C   UNL     1      47.384   7.913  13.092  0.00  0.00    +0.000 A 
ATOM      5  N   UNL     1      46.013   7.868  13.298  0.00  0.00    +0.000 N 
ATOM      6  N   UNL     1      48.136   7.682  14.184  0.00  0.00    +0.000 NA
ATOM      7  C   UNL     1      49.486   7.807  14.068  0.00  0.00    +0.000 A 
ATOM      8  H   UNL     1      45.866   7.414  14.198  0.00  0.00    +0.000 HD
ENDROOT
BRANCH   1  10
ATOM      9  N   UNL     1      52.273   7.900  14.005  0.00  0.00    +0.000 N 
ATOM     10  C   UNL     1      51.599   8.321  12.893  0.00  0.00    +0.000 C 
ATOM     11  O   UNL     1      52.195   8.770  11.924  0.00  0.00    +0.000 OA
ATOM     12  H   UNL     1      53.285   7.909  13.947  0.00  0.00    +0.000 HD
ATOM     13  H   UNL     1      51.857   7.299  14.705  0.00  0.00    +0.000 HD
ENDBRANCH   1  10
BRANCH   5  14
ATOM     14  C   UNL     1      45.173   7.366  12.223  0.00  0.00    +0.000 C 
BRANCH  14  15
ATOM     15  C   UNL     1      45.264   5.863  12.081  0.00  0.00    +0.000 A 
ATOM     16  C   UNL     1      45.277   5.040  13.186  0.00  0.00    +0.000 A 
ATOM     17  C   UNL     1      45.217   3.696  12.919  0.00  0.00    +0.000 A 
ATOM     18  N   UNL     1      45.130   3.182  11.678  0.00  0.00    +0.000 NA
ATOM     19  C   UNL     1      45.134   4.042  10.648  0.00  0.00    +0.000 A 
ATOM     20  N   UNL     1      44.977   3.578   9.368  0.00  0.00    +0.000 N 
ATOM     21  C   UNL     1      44.692   2.173   9.094  0.00  0.00    +0.000 C 
ATOM     22  C   UNL     1      45.880   1.509   8.384  0.00  0.00    +0.000 C 
ATOM     23  O   UNL     1      46.288   2.251   7.222  0.00  0.00    +0.000 OA
ATOM     24  C   UNL     1      46.679   3.583   7.599  0.00  0.00    +0.000 C 
ATOM     25  C   UNL     1      45.516   4.349   8.249  0.00  0.00    +0.000 C 
ATOM     26  N   UNL     1      45.215   5.370  10.825  0.00  0.00    +0.000 NA
ENDBRANCH  14  15
ENDBRANCH   5  14
TORSDOF 3
ENDMDL
MODEL 6
REMARK VINA RESULT:    -6.530      2.332      6.770
REMARK INTER + INTRA:          -8.114
REMARK INTER:                  -8.123
REMARK INTRA:                   0.009
REMARK UNBOUND:                -0.439
REMARK  Name = 
REMARK  3 active torsions:
REMARK  status: ('A' for Active; 'I' for Inactive)
REMARK    1  A    between atoms: C_2  and  C_4
REMARK    2  A    between atoms: N_8  and  C_9
REMARK    3  A    between atoms: C_9  and  C_10
REMARK                            x       y       z     vdW  Elec       q    Type
REMARK                         _______ _______ _______ _____ _____    ______ ____
ROOT
ATOM      1  C   UNL     1      46.911   8.985  12.324  0.00  0.00    +0.000 A 
ATOM      2  C   UNL     1      46.620   7.658  12.618  0.00  0.00    +0.000 A 
ATOM      3  C   UNL     1      45.401   7.122  12.200  0.00  0.00    +0.000 A 
ATOM      4  C   UNL     1      44.486   7.923  11.522  0.00  0.00    +0.000 A 
ATOM      5  N   UNL     1      43.297   7.441  10.996  0.00  0.00    +0.000 N 
ATOM      6  N   UNL     1      44.745   9.219  11.263  0.00  0.00    +0.000 NA
ATOM      7  C   UNL     1      45.941   9.725  11.668  0.00  0.00    +0.000 A 
ATOM      8  H   UNL     1      42.742   8.254  10.732  0.00  0.00    +0.000 HD
ENDROOT
BRANCH   1  10
ATOM      9  N   UNL     1      48.172  10.570  13.662  0.00  0.00    +0.000 N 
ATOM     10  C   UNL     1      48.195   9.622  12.677  0.00  0.00    +0.000 C 
ATOM     11  O   UNL     1      49.244   9.292  12.141  0.00  0.00    +0.000 OA
ATOM     12  H   UNL     1      49.072  10.919  13.971  0.00  0.00    +0.000 HD
ATOM     13  H   UNL     1      47.391  10.684  14.295  0.00  0.00    +0.000 HD
ENDBRANCH   1  10
BRANCH   5  14
ATOM     14  C   UNL     1      42.572   6.432  11.750  0.00  0.00    +0.000 C 
BRANCH  14  15
ATOM     15  C   UNL     1      43.227   5.071  11.661  0.00  0.00    +0.000 A 
ATOM     16  C   UNL     1      43.283   4.232  12.752  0.00  0.00    +0.000 A 
ATOM     17  C   UNL     1      43.772   2.975  12.503  0.00  0.00    +0.000 A 
ATOM     18  N   UNL     1      44.161   2.550  11.286  0.00  0.00    +0.000 NA
ATOM     19  C   UNL     1      44.089   3.426  10.271  0.00  0.00    +0.000 A 
ATOM     20  N   UNL     1      44.405   3.025   8.999  0.00  0.00    +0.000 N 
ATOM     21  C   UNL     1      44.715   1.632   8.691  0.00  0.00    +0.000 C 
ATOM     22  C   UNL     1      46.190   1.480   8.294  0.00  0.00    +0.000 C 
ATOM     23  O   UNL     1      46.557   2.397   7.249  0.00  0.00    +0.000 OA
ATOM     24  C   UNL     1      46.347   3.752   7.684  0.00  0.00    +0.000 C 
ATOM     25  C   UNL     1      44.871   4.011   8.025  0.00  0.00    +0.000 C 
ATOM     26  N   UNL     1      43.645   4.681  10.438  0.00  0.00    +0.000 NA
ENDBRANCH  14  15
ENDBRANCH   5  14
TORSDOF 3
ENDMDL
MODEL 7
REMARK VINA RESULT:    -6.339      3.311      5.088
REMARK INTER + INTRA:          -7.890
REMARK INTER:                  -7.330
REMARK INTRA:                  -0.560
REMARK UNBOUND:                -0.439
REMARK  Name = 
REMARK  3 active torsions:
REMARK  status: ('A' for Active; 'I' for Inactive)
REMARK    1  A    between atoms: C_2  and  C_4
REMARK    2  A    between atoms: N_8  and  C_9
REMARK    3  A    between atoms: C_9  and  C_10
REMARK                            x       y       z     vdW  Elec       q    Type
REMARK                         _______ _______ _______ _____ _____    ______ ____
ROOT
ATOM      1  C   UNL     1      44.519   4.204  11.411  0.00  0.00    +0.000 A 
ATOM      2  C   UNL     1      44.198   4.866  12.590  0.00  0.00    +0.000 A 
ATOM      3  C   UNL     1      44.780   6.106  12.852  0.00  0.00    +0.000 A 
ATOM      4  C   UNL     1      45.692   6.650  11.951  0.00  0.00    +0.000 A 
ATOM      5  N   UNL     1      46.242   7.915  12.096  0.00  0.00    +0.000 N 
ATOM      6  N   UNL     1      46.036   6.000  10.823  0.00  0.00    +0.000 NA
ATOM      7  C   UNL     1      45.452   4.796  10.576  0.00  0.00    +0.000 A 
ATOM      8  H   UNL     1      47.004   7.982  11.423  0.00  0.00    +0.000 HD
ENDROOT
BRANCH   1  10
ATOM      9  N   UNL     1      44.457   2.267   9.950  0.00  0.00    +0.000 N 
ATOM     10  C   UNL     1      43.912   2.915  11.023  0.00  0.00    +0.000 C 
ATOM     11  O   UNL     1      42.985   2.426  11.654  0.00  0.00    +0.000 OA
ATOM     12  H   UNL     1      44.104   1.335   9.762  0.00  0.00    +0.000 HD
ATOM     13  H   UNL     1      45.364   2.501   9.569  0.00  0.00    +0.000 HD
ENDBRANCH   1  10
BRANCH   5  14
ATOM     14  C   UNL     1      46.577   8.367  13.436  0.00  0.00    +0.000 C 
BRANCH  14  15
ATOM     15  C   UNL     1      47.888   7.791  13.923  0.00  0.00    +0.000 A 
ATOM     16  C   UNL     1      49.094   8.239  13.430  0.00  0.00    +0.000 A 
ATOM     17  C   UNL     1      50.208   7.739  14.055  0.00  0.00    +0.000 A 
ATOM     18  N   UNL     1      50.163   6.884  15.094  0.00  0.00    +0.000 NA
ATOM     19  C   UNL     1      48.954   6.480  15.514  0.00  0.00    +0.000 A 
ATOM     20  N   UNL     1      48.848   5.666  16.612  0.00  0.00    +0.000 N 
ATOM     21  C   UNL     1      50.014   5.309  17.414  0.00  0.00    +0.000 C 
ATOM     22  C   UNL     1      50.329   3.813  17.274  0.00  0.00    +0.000 C 
ATOM     23  O   UNL     1      49.174   2.999  17.542  0.00  0.00    +0.000 OA
ATOM     24  C   UNL     1      48.118   3.322  16.621  0.00  0.00    +0.000 C 
ATOM     25  C   UNL     1      47.685   4.792  16.753  0.00  0.00    +0.000 C 
ATOM     26  N   UNL     1      47.818   6.905  14.940  0.00  0.00    +0.000 NA
ENDBRANCH  14  15
ENDBRANCH   5  14
TORSDOF 3
ENDMDL
