MODEL 1
REMARK VINA RESULT:    -9.300      0.000      0.000
REMARK INTER + INTRA:         -14.029
REMARK INTER:                 -13.106
REMARK INTRA:                  -0.923
REMARK UNBOUND:                -0.923
REMARK  Name = 
REMARK  9 active torsions:
REMARK  status: ('A' for Active; 'I' for Inactive)
REMARK    1  A    between atoms: C_1  and  C_2
REMARK    2  A    between atoms: C_2  and  C_3
REMARK    3  A    between atoms: C_5  and  O_6
REMARK    4  A    between atoms: O_6  and  C_7
REMARK    5  A    between atoms: C_9  and  C_10
REMARK    6  A    between atoms: C_10  and  C_11
REMARK    7  A    between atoms: C_11  and  N_12
REMARK    8  A    between atoms: C_16  and  C_17
REMARK    9  A    between atoms: C_23  and  C_24
REMARK                            x       y       z     vdW  Elec       q    Type
REMARK                         _______ _______ _______ _____ _____    ______ ____
ROOT
ATOM      1  C   UNL     1      46.823   4.502  13.786  0.00  0.00    +0.000 A 
ATOM      2  C   UNL     1      45.471   4.323  13.466  0.00  0.00    +0.000 A 
ATOM      3  C   UNL     1      44.763   5.302  12.752  0.00  0.00    +0.000 A 
ATOM      4  C   UNL     1      45.452   6.468  12.376  0.00  0.00    +0.000 A 
ATOM      5  C   UNL     1      46.794   6.678  12.723  0.00  0.00    +0.000 A 
ATOM      6  C   UNL     1      47.475   5.680  13.430  0.00  0.00    +0.000 A 
ENDROOT
BRANCH   5   7
ATOM      7  C   UNL     1      47.496   7.965  12.371  0.00  0.00    +0.000 C 
ATOM      8  F   UNL     1      48.418   7.831  11.376  0.00  0.00    +0.000 F 
ATOM      9  F   UNL     1      46.629   8.926  11.946  0.00  0.00    +0.000 F 
ATOM     10  F   UNL     1      48.162   8.504  13.428  0.00  0.00    +0.000 F 
ENDBRANCH   5   7
BRANCH   1  11
ATOM     11  O   UNL     1      47.424   3.485  14.490  0.00  0.00    +0.000 OA
BRANCH  11  16
ATOM     12  C   UNL     1      48.362   3.867  18.871  0.00  0.00    +0.000 C 
ATOM     13  C   UNL     1      49.028   3.721  17.503  0.00  0.00    +0.000 C 
ATOM     14  C   UNL     1      50.547   3.677  17.621  0.00  0.00    +0.000 C 
ATOM     15  C   UNL     1      48.507   4.723  16.439  0.00  0.00    +0.000 C 
ATOM     16  C   UNL     1      47.536   3.627  15.925  0.00  0.00    +0.000 C 
ATOM     17  C   UNL     1      48.441   2.584  16.621  0.00  0.00    +0.000 C 
ENDBRANCH  11  16
ENDBRANCH   1  11
BRANCH   3  18
ATOM     18  C   UNL     1      43.289   5.084  12.434  0.00  0.00    +0.000 C 
BRANCH  18  19
ATOM     19  C   UNL     1      43.040   4.393  11.086  0.00  0.00    +0.000 C 
BRANCH  19  20
ATOM     20  N   UNL     1      43.808   4.972   9.980  0.00  0.00    +0.000 N 
ATOM     21  C   UNL     1      44.596   3.983   9.343  0.00  0.00    +0.000 A 
ATOM     22  C   UNL     1      45.413   4.353   8.279  0.00  0.00    +0.000 A 
ATOM     23  C   UNL     1      46.190   3.380   7.640  0.00  0.00    +0.000 A 
ATOM     24  C   UNL     1      46.140   2.053   8.069  0.00  0.00    +0.000 A 
ATOM     25  C   UNL     1      45.291   1.771   9.123  0.00  0.00    +0.000 A 
ATOM     26  N   UNL     1      44.528   2.697   9.753  0.00  0.00    +0.000 NA
ATOM     27  H   UNL     1      44.427   5.718  10.287  0.00  0.00    +0.000 HD
BRANCH  24  28
ATOM     28  C   UNL     1      46.973   1.029   7.395  0.00  0.00    +0.000 C 
ATOM     29  N   UNL     1      46.745  -0.295   7.654  0.00  0.00    +0.000 N 
ATOM     30  O   UNL     1      47.867   1.352   6.620  0.00  0.00    +0.000 OA
ATOM     31  H   UNL     1      46.055  -0.671   8.285  0.00  0.00    +0.000 HD
ATOM     32  H   UNL     1      47.349  -0.956   7.181  0.00  0.00    +0.000 HD
ENDBRANCH  24  28
ENDBRANCH  19  20
ENDBRANCH  18  19
ENDBRANCH   3  18
TORSDOF 7
ENDMDL
MODEL 2
REMARK VINA RESULT:    -9.118      1.099      1.345
REMARK INTER + INTRA:         -13.772
REMARK INTER:                 -12.767
REMARK INTRA:                  -1.006
REMARK UNBOUND:                -0.923
REMARK  Name = 
REMARK  9 active torsions:
REMARK  status: ('A' for Active; 'I' for Inactive)
REMARK    1  A    between atoms: C_1  and  C_2
REMARK    2  A    between atoms: C_2  and  C_3
REMARK    3  A    between atoms: C_5  and  O_6
REMARK    4  A    between atoms: O_6  and  C_7
REMARK    5  A    between atoms: C_9  and  C_10
REMARK    6  A    between atoms: C_10  and  C_11
REMARK    7  A    between atoms: C_11  and  N_12
REMARK    8  A    between atoms: C_16  and  C_17
REMARK    9  A    between atoms: C_23  and  C_24
REMARK                            x       y       z     vdW  Elec       q    Type
REMARK                         _______ _______ _______ _____ _____    ______ ____
ROOT
ATOM      1  C   UNL     1      46.844   4.728  13.870  0.00  0.00    +0.000 A 
ATOM      2  C   UNL     1      45.518   4.669  13.424  0.00  0.00    +0.000 A 
ATOM      3  C   UNL     1      45.018   5.622  12.521  0.00  0.00    +0.000 A 
ATOM      4  C   UNL     1      45.889   6.636  12.087  0.00  0.00    +0.000 A 
ATOM      5  C   UNL     1      47.206   6.729  12.555  0.00  0.00    +0.000 A 
ATOM      6  C   UNL     1      47.678   5.761  13.449  0.00  0.00    +0.000 A 
ENDROOT
BRANCH   5   7
ATOM      7  C   UNL     1      48.104   7.864  12.131  0.00  0.00    +0.000 C 
ATOM      8  F   UNL     1      48.871   7.577  11.041  0.00  0.00    +0.000 F 
ATOM      9  F   UNL     1      47.400   8.984  11.805  0.00  0.00    +0.000 F 
ATOM     10  F   UNL     1      48.971   8.239  13.110  0.00  0.00    +0.000 F 
ENDBRANCH   5   7
BRANCH   1  11
ATOM     11  O   UNL     1      47.234   3.750  14.755  0.00  0.00    +0.000 OA
BRANCH  11  16
ATOM     12  C   UNL     1      48.249   4.654  19.041  0.00  0.00    +0.000 C 
ATOM     13  C   UNL     1      48.847   4.087  17.753  0.00  0.00    +0.000 C 
ATOM     14  C   UNL     1      50.296   3.655  17.951  0.00  0.00    +0.000 C 
ATOM     15  C   UNL     1      48.619   4.981  16.506  0.00  0.00    +0.000 C 
ATOM     16  C   UNL     1      47.383   4.116  16.147  0.00  0.00    +0.000 C 
ATOM     17  C   UNL     1      47.968   3.011  17.057  0.00  0.00    +0.000 C 
ENDBRANCH  11  16
ENDBRANCH   1  11
BRANCH   3  18
ATOM     18  C   UNL     1      43.565   5.540  12.068  0.00  0.00    +0.000 C 
BRANCH  18  19
ATOM     19  C   UNL     1      43.388   4.981  10.650  0.00  0.00    +0.000 C 
BRANCH  19  20
ATOM     20  N   UNL     1      43.653   3.543  10.549  0.00  0.00    +0.000 N 
ATOM     21  C   UNL     1      44.602   3.277   9.531  0.00  0.00    +0.000 A 
ATOM     22  C   UNL     1      44.963   1.958   9.274  0.00  0.00    +0.000 A 
ATOM     23  C   UNL     1      45.904   1.687   8.274  0.00  0.00    +0.000 A 
ATOM     24  C   UNL     1      46.472   2.734   7.548  0.00  0.00    +0.000 A 
ATOM     25  C   UNL     1      46.067   4.014   7.878  0.00  0.00    +0.000 A 
ATOM     26  N   UNL     1      45.160   4.297   8.845  0.00  0.00    +0.000 NA
ATOM     27  H   UNL     1      42.813   3.008  10.344  0.00  0.00    +0.000 HD
BRANCH  24  28
ATOM     28  C   UNL     1      47.461   2.441   6.484  0.00  0.00    +0.000 C 
ATOM     29  N   UNL     1      47.378   3.106   5.291  0.00  0.00    +0.000 N 
ATOM     30  O   UNL     1      48.342   1.604   6.653  0.00  0.00    +0.000 OA
ATOM     31  H   UNL     1      46.687   3.793   5.036  0.00  0.00    +0.000 HD
ATOM     32  H   UNL     1      48.066   2.860   4.590  0.00  0.00    +0.000 HD
ENDBRANCH  24  28
ENDBRANCH  19  20
ENDBRANCH  18  19
ENDBRANCH   3  18
TORSDOF 7
ENDMDL
MODEL 3
REMARK VINA RESULT:    -8.521      2.649      4.807
REMARK INTER + INTRA:         -12.931
REMARK INTER:                 -11.718
REMARK INTRA:                  -1.213
REMARK UNBOUND:                -0.923
REMARK  Name = 
REMARK  9 active torsions:
REMARK  status: ('A' for Active; 'I' for Inactive)
REMARK    1  A    between atoms: C_1  and  C_2
REMARK    2  A    between atoms: C_2  and  C_3
REMARK    3  A    between atoms: C_5  and  O_6
REMARK    4  A    between atoms: O_6  and  C_7
REMARK    5  A    between atoms: C_9  and  C_10
REMARK    6  A    between atoms: C_10  and  C_11
REMARK    7  A    between atoms: C_11  and  N_12
REMARK    8  A    between atoms: C_16  and  C_17
REMARK    9  A    between atoms: C_23  and  C_24
REMARK                            x       y       z     vdW  Elec       q    Type
REMARK                         _______ _______ _______ _____ _____    ______ ____
ROOT
ATOM      1  C   UNL     1      47.235   6.663  12.204  0.00  0.00    +0.000 A 
ATOM      2  C   UNL     1      45.901   6.570  11.787  0.00  0.00    +0.000 A 
ATOM      3  C   UNL     1      44.980   5.776  12.489  0.00  0.00    +0.000 A 
ATOM      4  C   UNL     1      45.441   5.075  13.616  0.00  0.00    +0.000 A 
ATOM      5  C   UNL     1      46.782   5.127  14.021  0.00  0.00    +0.000 A 
ATOM      6  C   UNL     1      47.676   5.933  13.306  0.00  0.00    +0.000 A 
ENDROOT
BRANCH   5   7
ATOM      7  C   UNL     1      47.273   4.313  15.192  0.00  0.00    +0.000 C 
ATOM      8  F   UNL     1      46.382   4.242  16.221  0.00  0.00    +0.000 F 
ATOM      9  F   UNL     1      47.543   3.024  14.846  0.00  0.00    +0.000 F 
ATOM     10  F   UNL     1      48.422   4.807  15.727  0.00  0.00    +0.000 F 
ENDBRANCH   5   7
BRANCH   1  11
ATOM     11  O   UNL     1      48.057   7.464  11.447  0.00  0.00    +0.000 OA
BRANCH  11  16
ATOM     12  C   UNL     1      50.019  11.239  12.904  0.00  0.00    +0.000 C 
ATOM     13  C   UNL     1      49.479  10.570  11.639  0.00  0.00    +0.000 C 
ATOM     14  C   UNL     1      49.657  11.460  10.415  0.00  0.00    +0.000 C 
ATOM     15  C   UNL     1      48.049   9.990  11.796  0.00  0.00    +0.000 C 
ATOM     16  C   UNL     1      48.675   8.602  12.092  0.00  0.00    +0.000 C 
ATOM     17  C   UNL     1      49.973   9.112  11.424  0.00  0.00    +0.000 C 
ENDBRANCH  11  16
ENDBRANCH   1  11
BRANCH   3  18
ATOM     18  C   UNL     1      43.540   5.684  12.000  0.00  0.00    +0.000 C 
BRANCH  18  19
ATOM     19  C   UNL     1      43.397   5.065  10.603  0.00  0.00    +0.000 C 
BRANCH  19  20
ATOM     20  N   UNL     1      43.677   3.627  10.567  0.00  0.00    +0.000 N 
ATOM     21  C   UNL     1      44.611   3.321   9.548  0.00  0.00    +0.000 A 
ATOM     22  C   UNL     1      44.983   1.995   9.348  0.00  0.00    +0.000 A 
ATOM     23  C   UNL     1      45.910   1.685   8.347  0.00  0.00    +0.000 A 
ATOM     24  C   UNL     1      46.454   2.701   7.560  0.00  0.00    +0.000 A 
ATOM     25  C   UNL     1      46.040   3.991   7.835  0.00  0.00    +0.000 A 
ATOM     26  N   UNL     1      45.146   4.312   8.802  0.00  0.00    +0.000 NA
ATOM     27  H   UNL     1      42.840   3.074  10.404  0.00  0.00    +0.000 HD
BRANCH  24  28
ATOM     28  C   UNL     1      47.428   2.366   6.495  0.00  0.00    +0.000 C 
ATOM     29  N   UNL     1      47.470   3.132   5.362  0.00  0.00    +0.000 N 
ATOM     30  O   UNL     1      48.185   1.408   6.609  0.00  0.00    +0.000 OA
ATOM     31  H   UNL     1      46.884   3.925   5.153  0.00  0.00    +0.000 HD
ATOM     32  H   UNL     1      48.141   2.855   4.656  0.00  0.00    +0.000 HD
ENDBRANCH  24  28
ENDBRANCH  19  20
ENDBRANCH  18  19
ENDBRANCH   3  18
TORSDOF 7
ENDMDL
MODEL 4
REMARK VINA RESULT:    -8.308      1.709      2.174
REMARK INTER + INTRA:         -12.631
REMARK INTER:                 -12.135
REMARK INTRA:                  -0.496
REMARK UNBOUND:                -0.923
REMARK  Name = 
REMARK  9 active torsions:
REMARK  status: ('A' for Active; 'I' for Inactive)
REMARK    1  A    between atoms: C_1  and  C_2
REMARK    2  A    between atoms: C_2  and  C_3
REMARK    3  A    between atoms: C_5  and  O_6
REMARK    4  A    between atoms: O_6  and  C_7
REMARK    5  A    between atoms: C_9  and  C_10
REMARK    6  A    between atoms: C_10  and  C_11
REMARK    7  A    between atoms: C_11  and  N_12
REMARK    8  A    between atoms: C_16  and  C_17
REMARK    9  A    between atoms: C_23  and  C_24
REMARK                            x       y       z     vdW  Elec       q    Type
REMARK                         _______ _______ _______ _____ _____    ______ ____
ROOT
ATOM      1  C   UNL     1      47.136   6.291  13.258  0.00  0.00    +0.000 A 
ATOM      2  C   UNL     1      46.238   5.221  13.154  0.00  0.00    +0.000 A 
ATOM      3  C   UNL     1      44.974   5.394  12.567  0.00  0.00    +0.000 A 
ATOM      4  C   UNL     1      44.639   6.675  12.094  0.00  0.00    +0.000 A 
ATOM      5  C   UNL     1      45.513   7.763  12.227  0.00  0.00    +0.000 A 
ATOM      6  C   UNL     1      46.768   7.558  12.810  0.00  0.00    +0.000 A 
ENDROOT
BRANCH   5   7
ATOM      7  C   UNL     1      45.107   9.144  11.776  0.00  0.00    +0.000 C 
ATOM      8  F   UNL     1      44.260   9.144  10.708  0.00  0.00    +0.000 F 
ATOM      9  F   UNL     1      44.468   9.840  12.757  0.00  0.00    +0.000 F 
ATOM     10  F   UNL     1      46.172   9.908  11.408  0.00  0.00    +0.000 F 
ENDBRANCH   5   7
BRANCH   1  11
ATOM     11  O   UNL     1      48.346   6.018  13.850  0.00  0.00    +0.000 OA
BRANCH  11  16
ATOM     12  C   UNL     1      49.653   7.565  17.865  0.00  0.00    +0.000 C 
ATOM     13  C   UNL     1      49.930   6.454  16.852  0.00  0.00    +0.000 C 
ATOM     14  C   UNL     1      51.023   5.510  17.340  0.00  0.00    +0.000 C 
ATOM     15  C   UNL     1      50.137   6.963  15.401  0.00  0.00    +0.000 C 
ATOM     16  C   UNL     1      48.643   6.661  15.112  0.00  0.00    +0.000 C 
ATOM     17  C   UNL     1      48.659   5.721  16.340  0.00  0.00    +0.000 C 
ENDBRANCH  11  16
ENDBRANCH   1  11
BRANCH   3  18
ATOM     18  C   UNL     1      44.015   4.214  12.485  0.00  0.00    +0.000 C 
BRANCH  18  19
ATOM     19  C   UNL     1      43.340   4.056  11.115  0.00  0.00    +0.000 C 
BRANCH  19  20
ATOM     20  N   UNL     1      44.010   4.797  10.043  0.00  0.00    +0.000 N 
ATOM     21  C   UNL     1      44.831   3.936   9.274  0.00  0.00    +0.000 A 
ATOM     22  C   UNL     1      45.567   4.468   8.220  0.00  0.00    +0.000 A 
ATOM     23  C   UNL     1      46.376   3.623   7.451  0.00  0.00    +0.000 A 
ATOM     24  C   UNL     1      46.438   2.260   7.745  0.00  0.00    +0.000 A 
ATOM     25  C   UNL     1      45.664   1.813   8.799  0.00  0.00    +0.000 A 
ATOM     26  N   UNL     1      44.872   2.615   9.553  0.00  0.00    +0.000 NA
ATOM     27  H   UNL     1      44.591   5.552  10.398  0.00  0.00    +0.000 HD
BRANCH  24  28
ATOM     28  C   UNL     1      47.304   1.372   6.934  0.00  0.00    +0.000 C 
ATOM     29  N   UNL     1      48.396   1.899   6.299  0.00  0.00    +0.000 N 
ATOM     30  O   UNL     1      47.049   0.178   6.814  0.00  0.00    +0.000 OA
ATOM     31  H   UNL     1      48.687   2.864   6.310  0.00  0.00    +0.000 HD
ATOM     32  H   UNL     1      48.948   1.256   5.745  0.00  0.00    +0.000 HD
ENDBRANCH  24  28
ENDBRANCH  19  20
ENDBRANCH  18  19
ENDBRANCH   3  18
TORSDOF 7
ENDMDL
MODEL 5
REMARK VINA RESULT:    -7.708      2.993      4.017
REMARK INTER + INTRA:         -11.785
REMARK INTER:                 -11.459
REMARK INTRA:                  -0.326
REMARK UNBOUND:                -0.923
REMARK  Name = 
REMARK  9 active torsions:
REMARK  status: ('A' for Active; 'I' for Inactive)
REMARK    1  A    between atoms: C_1  and  C_2
REMARK    2  A    between atoms: C_2  and  C_3
REMARK    3  A    between atoms: C_5  and  O_6
REMARK    4  A    between atoms: O_6  and  C_7
REMARK    5  A    between atoms: C_9  and  C_10
REMARK    6  A    between atoms: C_10  and  C_11
REMARK    7  A    between atoms: C_11  and  N_12
REMARK    8  A    between atoms: C_16  and  C_17
REMARK    9  A    between atoms: C_23  and  C_24
REMARK                            x       y       z     vdW  Elec       q    Type
REMARK                         _______ _______ _______ _____ _____    ______ ____
ROOT
ATOM      1  C   UNL     1      46.853   7.197  13.074  0.00  0.00    +0.000 A 
ATOM      2  C   UNL     1      46.169   5.976  13.018  0.00  0.00    +0.000 A 
ATOM      3  C   UNL     1      44.916   5.878  12.394  0.00  0.00    +0.000 A 
ATOM      4  C   UNL     1      44.369   7.045  11.833  0.00  0.00    +0.000 A 
ATOM      5  C   UNL     1      45.024   8.282  11.916  0.00  0.00    +0.000 A 
ATOM      6  C   UNL     1      46.275   8.346  12.539  0.00  0.00    +0.000 A 
ENDROOT
BRANCH   5   7
ATOM      7  C   UNL     1      44.388   9.536  11.369  0.00  0.00    +0.000 C 
ATOM      8  F   UNL     1      43.256   9.305  10.647  0.00  0.00    +0.000 F 
ATOM      9  F   UNL     1      44.029  10.404  12.355  0.00  0.00    +0.000 F 
ATOM     10  F   UNL     1      45.222  10.228  10.546  0.00  0.00    +0.000 F 
ENDBRANCH   5   7
BRANCH   1  11
ATOM     11  O   UNL     1      48.072   7.186  13.710  0.00  0.00    +0.000 OA
BRANCH  11  16
ATOM     12  C   UNL     1      51.603   7.913  11.024  0.00  0.00    +0.000 C 
ATOM     13  C   UNL     1      50.366   8.600  11.603  0.00  0.00    +0.000 C 
ATOM     14  C   UNL     1      50.246  10.040  11.116  0.00  0.00    +0.000 C 
ATOM     15  C   UNL     1      50.218   8.439  13.139  0.00  0.00    +0.000 C 
ATOM     16  C   UNL     1      49.264   7.241  12.892  0.00  0.00    +0.000 C 
ATOM     17  C   UNL     1      49.052   7.783  11.459  0.00  0.00    +0.000 C 
ENDBRANCH  11  16
ENDBRANCH   1  11
BRANCH   3  18
ATOM     18  C   UNL     1      44.191   4.538  12.365  0.00  0.00    +0.000 C 
BRANCH  18  19
ATOM     19  C   UNL     1      43.416   4.279  11.066  0.00  0.00    +0.000 C 
BRANCH  19  20
ATOM     20  N   UNL     1      44.003   4.933   9.893  0.00  0.00    +0.000 N 
ATOM     21  C   UNL     1      44.813   4.027   9.165  0.00  0.00    +0.000 A 
ATOM     22  C   UNL     1      45.474   4.477   8.027  0.00  0.00    +0.000 A 
ATOM     23  C   UNL     1      46.271   3.587   7.299  0.00  0.00    +0.000 A 
ATOM     24  C   UNL     1      46.398   2.262   7.716  0.00  0.00    +0.000 A 
ATOM     25  C   UNL     1      45.696   1.895   8.849  0.00  0.00    +0.000 A 
ATOM     26  N   UNL     1      44.916   2.741   9.565  0.00  0.00    +0.000 NA
ATOM     27  H   UNL     1      44.573   5.736  10.142  0.00  0.00    +0.000 HD
BRANCH  24  28
ATOM     28  C   UNL     1      47.252   1.326   6.947  0.00  0.00    +0.000 C 
ATOM     29  N   UNL     1      48.352   1.809   6.291  0.00  0.00    +0.000 N 
ATOM     30  O   UNL     1      46.980   0.132   6.880  0.00  0.00    +0.000 OA
ATOM     31  H   UNL     1      48.656   2.769   6.260  0.00  0.00    +0.000 HD
ATOM     32  H   UNL     1      48.895   1.135   5.767  0.00  0.00    +0.000 HD
ENDBRANCH  24  28
ENDBRANCH  19  20
ENDBRANCH  18  19
ENDBRANCH   3  18
TORSDOF 7
ENDMDL
MODEL 6
REMARK VINA RESULT:    -7.337      4.126      6.681
REMARK INTER + INTRA:         -11.263
REMARK INTER:                  -9.680
REMARK INTRA:                  -1.583
REMARK UNBOUND:                -0.923
REMARK  Name = 
REMARK  9 active torsions:
REMARK  status: ('A' for Active; 'I' for Inactive)
REMARK    1  A    between atoms: C_1  and  C_2
REMARK    2  A    between atoms: C_2  and  C_3
REMARK    3  A    between atoms: C_5  and  O_6
REMARK    4  A    between atoms: O_6  and  C_7
REMARK    5  A    between atoms: C_9  and  C_10
REMARK    6  A    between atoms: C_10  and  C_11
REMARK    7  A    between atoms: C_11  and  N_12
REMARK    8  A    between atoms: C_16  and  C_17
REMARK    9  A    between atoms: C_23  and  C_24
REMARK                            x       y       z     vdW  Elec       q    Type
REMARK                         _______ _______ _______ _____ _____    ______ ____
ROOT
ATOM      1  C   UNL     1      46.379   4.159  13.536  0.00  0.00    +0.000 A 
ATOM      2  C   UNL     1      46.210   5.549  13.534  0.00  0.00    +0.000 A 
ATOM      3  C   UNL     1      45.432   6.180  12.550  0.00  0.00    +0.000 A 
ATOM      4  C   UNL     1      44.835   5.372  11.567  0.00  0.00    +0.000 A 
ATOM      5  C   UNL     1      45.027   3.984  11.535  0.00  0.00    +0.000 A 
ATOM      6  C   UNL     1      45.802   3.383  12.533  0.00  0.00    +0.000 A 
ENDROOT
BRANCH   5   7
ATOM      7  C   UNL     1      44.434   3.143  10.432  0.00  0.00    +0.000 C 
ATOM      8  F   UNL     1      43.458   2.292  10.857  0.00  0.00    +0.000 F 
ATOM      9  F   UNL     1      43.866   3.901   9.454  0.00  0.00    +0.000 F 
ATOM     10  F   UNL     1      45.362   2.366   9.811  0.00  0.00    +0.000 F 
ENDBRANCH   5   7
BRANCH   1  11
ATOM     11  O   UNL     1      47.161   3.640  14.541  0.00  0.00    +0.000 OA
BRANCH  11  16
ATOM     12  C   UNL     1      47.504   5.320  18.697  0.00  0.00    +0.000 C 
ATOM     13  C   UNL     1      48.223   4.412  17.700  0.00  0.00    +0.000 C 
ATOM     14  C   UNL     1      49.513   3.849  18.285  0.00  0.00    +0.000 C 
ATOM     15  C   UNL     1      48.389   5.033  16.288  0.00  0.00    +0.000 C 
ATOM     16  C   UNL     1      47.110   4.279  15.838  0.00  0.00    +0.000 C 
ATOM     17  C   UNL     1      47.316   3.334  17.045  0.00  0.00    +0.000 C 
ENDBRANCH  11  16
ENDBRANCH   1  11
BRANCH   3  18
ATOM     18  C   UNL     1      45.283   7.696  12.566  0.00  0.00    +0.000 C 
BRANCH  18  19
ATOM     19  C   UNL     1      46.604   8.448  12.785  0.00  0.00    +0.000 C 
BRANCH  19  20
ATOM     20  N   UNL     1      46.804   8.890  14.168  0.00  0.00    +0.000 N 
ATOM     21  C   UNL     1      48.100   8.545  14.623  0.00  0.00    +0.000 A 
ATOM     22  C   UNL     1      48.465   8.866  15.927  0.00  0.00    +0.000 A 
ATOM     23  C   UNL     1      49.746   8.535  16.383  0.00  0.00    +0.000 A 
ATOM     24  C   UNL     1      50.645   7.890  15.532  0.00  0.00    +0.000 A 
ATOM     25  C   UNL     1      50.205   7.622  14.249  0.00  0.00    +0.000 A 
ATOM     26  N   UNL     1      48.970   7.938  13.788  0.00  0.00    +0.000 NA
ATOM     27  H   UNL     1      46.127   8.481  14.806  0.00  0.00    +0.000 HD
BRANCH  24  28
ATOM     28  C   UNL     1      51.997   7.534  16.023  0.00  0.00    +0.000 C 
ATOM     29  N   UNL     1      52.959   7.164  15.123  0.00  0.00    +0.000 N 
ATOM     30  O   UNL     1      52.260   7.554  17.221  0.00  0.00    +0.000 OA
ATOM     31  H   UNL     1      52.849   7.092  14.124  0.00  0.00    +0.000 HD
ATOM     32  H   UNL     1      53.862   6.914  15.508  0.00  0.00    +0.000 HD
ENDBRANCH  24  28
ENDBRANCH  19  20
ENDBRANCH  18  19
ENDBRANCH   3  18
TORSDOF 7
ENDMDL
MODEL 7
REMARK VINA RESULT:    -6.641      4.259      7.457
REMARK INTER + INTRA:         -10.282
REMARK INTER:                  -8.617
REMARK INTRA:                  -1.665
REMARK UNBOUND:                -0.923
REMARK  Name = 
REMARK  9 active torsions:
REMARK  status: ('A' for Active; 'I' for Inactive)
REMARK    1  A    between atoms: C_1  and  C_2
REMARK    2  A    between atoms: C_2  and  C_3
REMARK    3  A    between atoms: C_5  and  O_6
REMARK    4  A    between atoms: O_6  and  C_7
REMARK    5  A    between atoms: C_9  and  C_10
REMARK    6  A    between atoms: C_10  and  C_11
REMARK    7  A    between atoms: C_11  and  N_12
REMARK    8  A    between atoms: C_16  and  C_17
REMARK    9  A    between atoms: C_23  and  C_24
REMARK                            x       y       z     vdW  Elec       q    Type
REMARK                         _______ _______ _______ _____ _____    ______ ____
ROOT
ATOM      1  C   UNL     1      46.107   4.734  13.839  0.00  0.00    +0.000 A 
ATOM      2  C   UNL     1      47.106   5.622  13.420  0.00  0.00    +0.000 A 
ATOM      3  C   UNL     1      47.027   6.261  12.172  0.00  0.00    +0.000 A 
ATOM      4  C   UNL     1      45.917   5.976  11.358  0.00  0.00    +0.000 A 
ATOM      5  C   UNL     1      44.930   5.061  11.748  0.00  0.00    +0.000 A 
ATOM      6  C   UNL     1      45.033   4.445  13.000  0.00  0.00    +0.000 A 
ENDROOT
BRANCH   5   7
ATOM      7  C   UNL     1      43.783   4.717  10.830  0.00  0.00    +0.000 C 
ATOM      8  F   UNL     1      42.938   5.760  10.597  0.00  0.00    +0.000 F 
ATOM      9  F   UNL     1      44.210   4.303   9.605  0.00  0.00    +0.000 F 
ATOM     10  F   UNL     1      43.009   3.709  11.317  0.00  0.00    +0.000 F 
ENDBRANCH   5   7
BRANCH   1  11
ATOM     11  O   UNL     1      46.280   4.159  15.076  0.00  0.00    +0.000 OA
BRANCH  11  16
ATOM     12  C   UNL     1      50.148   4.026  17.365  0.00  0.00    +0.000 C 
ATOM     13  C   UNL     1      48.650   3.757  17.511  0.00  0.00    +0.000 C 
ATOM     14  C   UNL     1      48.300   3.282  18.916  0.00  0.00    +0.000 C 
ATOM     15  C   UNL     1      48.056   2.875  16.380  0.00  0.00    +0.000 C 
ATOM     16  C   UNL     1      47.609   4.167  15.647  0.00  0.00    +0.000 C 
ATOM     17  C   UNL     1      47.739   4.907  16.999  0.00  0.00    +0.000 C 
ENDBRANCH  11  16
ENDBRANCH   1  11
BRANCH   3  18
ATOM     18  C   UNL     1      48.139   7.208  11.740  0.00  0.00    +0.000 C 
BRANCH  18  19
ATOM     19  C   UNL     1      48.698   8.071  12.879  0.00  0.00    +0.000 C 
BRANCH  19  20
ATOM     20  N   UNL     1      49.956   7.566  13.434  0.00  0.00    +0.000 N 
ATOM     21  C   UNL     1      49.960   7.671  14.847  0.00  0.00    +0.000 A 
ATOM     22  C   UNL     1      51.087   7.259  15.551  0.00  0.00    +0.000 A 
ATOM     23  C   UNL     1      51.097   7.352  16.947  0.00  0.00    +0.000 A 
ATOM     24  C   UNL     1      49.983   7.854  17.621  0.00  0.00    +0.000 A 
ATOM     25  C   UNL     1      48.901   8.227  16.845  0.00  0.00    +0.000 A 
ATOM     26  N   UNL     1      48.871   8.141  15.493  0.00  0.00    +0.000 NA
ATOM     27  H   UNL     1      50.765   8.069  13.079  0.00  0.00    +0.000 HD
BRANCH  24  28
ATOM     28  C   UNL     1      50.003   7.961  19.099  0.00  0.00    +0.000 C 
ATOM     29  N   UNL     1      50.710   8.973  19.687  0.00  0.00    +0.000 N 
ATOM     30  O   UNL     1      49.406   7.149  19.799  0.00  0.00    +0.000 OA
ATOM     31  H   UNL     1      51.252   9.679  19.214  0.00  0.00    +0.000 HD
ATOM     32  H   UNL     1      50.706   8.995  20.700  0.00  0.00    +0.000 HD
ENDBRANCH  24  28
ENDBRANCH  19  20
ENDBRANCH  18  19
ENDBRANCH   3  18
TORSDOF 7
ENDMDL
MODEL 8
REMARK VINA RESULT:    -6.599      4.431      7.856
REMARK INTER + INTRA:         -10.223
REMARK INTER:                  -9.493
REMARK INTRA:                  -0.730
REMARK UNBOUND:                -0.923
REMARK  Name = 
REMARK  9 active torsions:
REMARK  status: ('A' for Active; 'I' for Inactive)
REMARK    1  A    between atoms: C_1  and  C_2
REMARK    2  A    between atoms: C_2  and  C_3
REMARK    3  A    between atoms: C_5  and  O_6
REMARK    4  A    between atoms: O_6  and  C_7
REMARK    5  A    between atoms: C_9  and  C_10
REMARK    6  A    between atoms: C_10  and  C_11
REMARK    7  A    between atoms: C_11  and  N_12
REMARK    8  A    between atoms: C_16  and  C_17
REMARK    9  A    between atoms: C_23  and  C_24
REMARK                            x       y       z     vdW  Elec       q    Type
REMARK                         _______ _______ _______ _____ _____    ______ ____
ROOT
ATOM      1  C   UNL     1      46.451   6.577  12.063  0.00  0.00    +0.000 A 
ATOM      2  C   UNL     1      47.052   5.758  13.027  0.00  0.00    +0.000 A 
ATOM      3  C   UNL     1      46.493   4.517  13.370  0.00  0.00    +0.000 A 
ATOM      4  C   UNL     1      45.310   4.128  12.718  0.00  0.00    +0.000 A 
ATOM      5  C   UNL     1      44.677   4.954  11.780  0.00  0.00    +0.000 A 
ATOM      6  C   UNL     1      45.262   6.183  11.454  0.00  0.00    +0.000 A 
ENDROOT
BRANCH   5   7
ATOM      7  C   UNL     1      43.371   4.549  11.143  0.00  0.00    +0.000 C 
ATOM      8  F   UNL     1      43.014   3.259  11.400  0.00  0.00    +0.000 F 
ATOM      9  F   UNL     1      42.329   5.314  11.571  0.00  0.00    +0.000 F 
ATOM     10  F   UNL     1      43.391   4.668   9.787  0.00  0.00    +0.000 F 
ENDBRANCH   5   7
BRANCH   1  11
ATOM     11  O   UNL     1      47.077   7.774  11.802  0.00  0.00    +0.000 OA
BRANCH  11  16
ATOM     12  C   UNL     1      51.245   8.809  13.133  0.00  0.00    +0.000 C 
ATOM     13  C   UNL     1      50.224   9.097  12.032  0.00  0.00    +0.000 C 
ATOM     14  C   UNL     1      50.776  10.067  10.994  0.00  0.00    +0.000 C 
ATOM     15  C   UNL     1      48.816   9.476  12.564  0.00  0.00    +0.000 C 
ATOM     16  C   UNL     1      48.382   7.997  12.385  0.00  0.00    +0.000 C 
ATOM     17  C   UNL     1      49.573   7.829  11.413  0.00  0.00    +0.000 C 
ENDBRANCH  11  16
ENDBRANCH   1  11
BRANCH   3  18
ATOM     18  C   UNL     1      47.162   3.658  14.435  0.00  0.00    +0.000 C 
BRANCH  18  19
ATOM     19  C   UNL     1      46.976   4.184  15.864  0.00  0.00    +0.000 C 
BRANCH  19  20
ATOM     20  N   UNL     1      47.933   5.231  16.233  0.00  0.00    +0.000 N 
ATOM     21  C   UNL     1      49.109   4.666  16.785  0.00  0.00    +0.000 A 
ATOM     22  C   UNL     1      50.126   5.512  17.216  0.00  0.00    +0.000 A 
ATOM     23  C   UNL     1      51.293   4.962  17.757  0.00  0.00    +0.000 A 
ATOM     24  C   UNL     1      51.430   3.577  17.859  0.00  0.00    +0.000 A 
ATOM     25  C   UNL     1      50.378   2.811  17.394  0.00  0.00    +0.000 A 
ATOM     26  N   UNL     1      49.241   3.324  16.864  0.00  0.00    +0.000 NA
ATOM     27  H   UNL     1      47.549   5.885  16.910  0.00  0.00    +0.000 HD
BRANCH  24  28
ATOM     28  C   UNL     1      52.665   3.000  18.442  0.00  0.00    +0.000 C 
ATOM     29  N   UNL     1      52.804   1.640  18.502  0.00  0.00    +0.000 N 
ATOM     30  O   UNL     1      53.554   3.722  18.880  0.00  0.00    +0.000 OA
ATOM     31  H   UNL     1      52.132   0.955  18.193  0.00  0.00    +0.000 HD
ATOM     32  H   UNL     1      53.657   1.293  18.922  0.00  0.00    +0.000 HD
ENDBRANCH  24  28
ENDBRANCH  19  20
ENDBRANCH  18  19
ENDBRANCH   3  18
TORSDOF 7
ENDMDL
MODEL 9
REMARK VINA RESULT:    -6.546      4.371      7.754
REMARK INTER + INTRA:         -10.148
REMARK INTER:                  -9.042
REMARK INTRA:                  -1.106
REMARK UNBOUND:                -0.923
REMARK  Name = 
REMARK  9 active torsions:
REMARK  status: ('A' for Active; 'I' for Inactive)
REMARK    1  A    between atoms: C_1  and  C_2
REMARK    2  A    between atoms: C_2  and  C_3
REMARK    3  A    between atoms: C_5  and  O_6
REMARK    4  A    between atoms: O_6  and  C_7
REMARK    5  A    between atoms: C_9  and  C_10
REMARK    6  A    between atoms: C_10  and  C_11
REMARK    7  A    between atoms: C_11  and  N_12
REMARK    8  A    between atoms: C_16  and  C_17
REMARK    9  A    between atoms: C_23  and  C_24
REMARK                            x       y       z     vdW  Elec       q    Type
REMARK                         _______ _______ _______ _____ _____    ______ ____
ROOT
ATOM      1  C   UNL     1      47.503   7.834  12.337  0.00  0.00    +0.000 A 
ATOM      2  C   UNL     1      47.453   8.180  13.693  0.00  0.00    +0.000 A 
ATOM      3  C   UNL     1      48.608   8.588  14.378  0.00  0.00    +0.000 A 
ATOM      4  C   UNL     1      49.816   8.633  13.659  0.00  0.00    +0.000 A 
ATOM      5  C   UNL     1      49.889   8.252  12.312  0.00  0.00    +0.000 A 
ATOM      6  C   UNL     1      48.718   7.856  11.655  0.00  0.00    +0.000 A 
ENDROOT
BRANCH   5   7
ATOM      7  C   UNL     1      51.207   8.241  11.579  0.00  0.00    +0.000 C 
ATOM      8  F   UNL     1      51.405   9.337  10.793  0.00  0.00    +0.000 F 
ATOM      9  F   UNL     1      52.270   8.195  12.428  0.00  0.00    +0.000 F 
ATOM     10  F   UNL     1      51.337   7.164  10.756  0.00  0.00    +0.000 F 
ENDBRANCH   5   7
BRANCH   1  11
ATOM     11  O   UNL     1      46.317   7.445  11.760  0.00  0.00    +0.000 OA
BRANCH  11  16
ATOM     12  C   UNL     1      44.492   3.357  12.177  0.00  0.00    +0.000 C 
ATOM     13  C   UNL     1      44.130   4.819  11.918  0.00  0.00    +0.000 C 
ATOM     14  C   UNL     1      42.626   5.001  11.742  0.00  0.00    +0.000 C 
ATOM     15  C   UNL     1      44.981   5.492  10.810  0.00  0.00    +0.000 C 
ATOM     16  C   UNL     1      45.911   6.065  11.911  0.00  0.00    +0.000 C 
ATOM     17  C   UNL     1      44.763   5.824  12.920  0.00  0.00    +0.000 C 
ENDBRANCH  11  16
ENDBRANCH   1  11
BRANCH   3  18
ATOM     18  C   UNL     1      48.522   8.942  15.857  0.00  0.00    +0.000 C 
BRANCH  18  19
ATOM     19  C   UNL     1      49.117   7.874  16.786  0.00  0.00    +0.000 C 
BRANCH  19  20
ATOM     20  N   UNL     1      48.295   6.665  16.892  0.00  0.00    +0.000 N 
ATOM     21  C   UNL     1      49.107   5.521  17.088  0.00  0.00    +0.000 A 
ATOM     22  C   UNL     1      48.501   4.273  17.190  0.00  0.00    +0.000 A 
ATOM     23  C   UNL     1      49.295   3.138  17.390  0.00  0.00    +0.000 A 
ATOM     24  C   UNL     1      50.681   3.265  17.488  0.00  0.00    +0.000 A 
ATOM     25  C   UNL     1      51.199   4.543  17.390  0.00  0.00    +0.000 A 
ATOM     26  N   UNL     1      50.446   5.655  17.200  0.00  0.00    +0.000 NA
ATOM     27  H   UNL     1      47.727   6.510  16.064  0.00  0.00    +0.000 HD
BRANCH  24  28
ATOM     28  C   UNL     1      51.518   2.059  17.690  0.00  0.00    +0.000 C 
ATOM     29  N   UNL     1      52.582   2.119  18.548  0.00  0.00    +0.000 N 
ATOM     30  O   UNL     1      51.277   1.015  17.093  0.00  0.00    +0.000 OA
ATOM     31  H   UNL     1      52.884   2.926  19.072  0.00  0.00    +0.000 HD
ATOM     32  H   UNL     1      53.133   1.275  18.642  0.00  0.00    +0.000 HD
ENDBRANCH  24  28
ENDBRANCH  19  20
ENDBRANCH  18  19
ENDBRANCH   3  18
TORSDOF 7
ENDMDL
