MODEL 1
REMARK VINA RESULT:    -7.854      0.000      0.000
REMARK INTER + INTRA:         -11.147
REMARK INTER:                 -10.149
REMARK INTRA:                  -0.998
REMARK UNBOUND:                -0.998
REMARK  Name = 
REMARK  6 active torsions:
REMARK  status: ('A' for Active; 'I' for Inactive)
REMARK    1  A    between atoms: C_1  and  N_2
REMARK    2  A    between atoms: N_2  and  C_3
REMARK    3  A    between atoms: C_3  and  C_4
REMARK    4  A    between atoms: C_7  and  O_8
REMARK    5  A    between atoms: O_8  and  C_9
REMARK    6  A    between atoms: C_17  and  C_19
REMARK                            x       y       z     vdW  Elec       q    Type
REMARK                         _______ _______ _______ _____ _____    ______ ____
ROOT
ATOM      1  C   UNL     1      46.055   8.595  12.171  0.00  0.00    +0.000 C 
ATOM      2  N   UNL     1      45.896   7.147  12.109  0.00  0.00    +0.000 N 
ATOM      3  C   UNL     1      44.666   6.688  11.603  0.00  0.00    +0.000 C 
ATOM      4  O   UNL     1      43.783   7.476  11.269  0.00  0.00    +0.000 OA
ENDROOT
BRANCH   3   5
ATOM      5  C   UNL     1      44.415   5.243  11.509  0.00  0.00    +0.000 A 
ATOM      6  C   UNL     1      43.678   4.509  12.426  0.00  0.00    +0.000 A 
ATOM      7  S   UNL     1      43.493   2.867  11.997  0.00  0.00    +0.000 S 
ATOM      8  C   UNL     1      44.263   3.117  10.502  0.00  0.00    +0.000 A 
ATOM      9  N   UNL     1      44.347   2.121   9.581  0.00  0.00    +0.000 NA
ATOM     10  C   UNL     1      44.896   2.477   8.468  0.00  0.00    +0.000 A 
ATOM     11  N   UNL     1      45.408   3.723   8.211  0.00  0.00    +0.000 N 
ATOM     12  C   UNL     1      45.476   4.720   9.164  0.00  0.00    +0.000 A 
ATOM     13  O   UNL     1      46.154   5.721   8.983  0.00  0.00    +0.000 OA
ATOM     14  C   UNL     1      44.750   4.407  10.381  0.00  0.00    +0.000 A 
ATOM     15  H   UNL     1      45.890   3.916   7.343  0.00  0.00    +0.000 HD
ENDBRANCH   3   5
BRANCH   2  16
ATOM     16  C   UNL     1      47.047   6.269  12.319  0.00  0.00    +0.000 C 
BRANCH  16  17
ATOM     17  C   UNL     1      47.381   5.864  13.729  0.00  0.00    +0.000 A 
ATOM     18  C   UNL     1      46.818   4.700  14.274  0.00  0.00    +0.000 A 
ATOM     19  C   UNL     1      47.174   4.277  15.551  0.00  0.00    +0.000 A 
ATOM     20  C   UNL     1      48.138   4.983  16.276  0.00  0.00    +0.000 A 
ATOM     21  C   UNL     1      48.655   6.175  15.768  0.00  0.00    +0.000 A 
ATOM     22  C   UNL     1      48.275   6.618  14.498  0.00  0.00    +0.000 A 
BRANCH  20  23
ATOM     23  O   UNL     1      48.583   4.590  17.518  0.00  0.00    +0.000 OA
BRANCH  23  24
ATOM     24  C   UNL     1      49.695   3.763  17.570  0.00  0.00    +0.000 A 
ATOM     25  C   UNL     1      49.540   2.458  17.125  0.00  0.00    +0.000 A 
ATOM     26  N   UNL     1      50.568   1.573  17.085  0.00  0.00    +0.000 NA
ATOM     27  C   UNL     1      51.757   2.053  17.519  0.00  0.00    +0.000 A 
ATOM     28  C   UNL     1      51.907   3.346  17.993  0.00  0.00    +0.000 A 
ATOM     29  N   UNL     1      50.881   4.220  18.043  0.00  0.00    +0.000 NA
ENDBRANCH  23  24
ENDBRANCH  20  23
ENDBRANCH  16  17
ENDBRANCH   2  16
TORSDOF 5
ENDMDL
MODEL 2
REMARK VINA RESULT:    -7.371      1.368      2.073
REMARK INTER + INTRA:         -10.523
REMARK INTER:                  -9.427
REMARK INTRA:                  -1.096
REMARK UNBOUND:                -0.998
REMARK  Name = 
REMARK  6 active torsions:
REMARK  status: ('A' for Active; 'I' for Inactive)
REMARK    1  A    between atoms: C_1  and  N_2
REMARK    2  A    between atoms: N_2  and  C_3
REMARK    3  A    between atoms: C_3  and  C_4
REMARK    4  A    between atoms: C_7  and  O_8
REMARK    5  A    between atoms: O_8  and  C_9
REMARK    6  A    between atoms: C_17  and  C_19
REMARK                            x       y       z     vdW  Elec       q    Type
REMARK                         _______ _______ _______ _____ _____    ______ ____
ROOT
ATOM      1  C   UNL     1      46.341   8.875  12.903  0.00  0.00    +0.000 C 
ATOM      2  N   UNL     1      46.237   7.541  12.324  0.00  0.00    +0.000 N 
ATOM      3  C   UNL     1      45.180   7.349  11.417  0.00  0.00    +0.000 C 
ATOM      4  O   UNL     1      44.385   8.253  11.166  0.00  0.00    +0.000 OA
ENDROOT
BRANCH   3   5
ATOM      5  C   UNL     1      44.995   6.033  10.787  0.00  0.00    +0.000 A 
ATOM      6  C   UNL     1      45.554   5.651   9.578  0.00  0.00    +0.000 A 
ATOM      7  S   UNL     1      45.223   4.031   9.152  0.00  0.00    +0.000 S 
ATOM      8  C   UNL     1      44.448   3.744  10.638  0.00  0.00    +0.000 A 
ATOM      9  N   UNL     1      44.011   2.502  10.972  0.00  0.00    +0.000 NA
ATOM     10  C   UNL     1      43.506   2.422  12.159  0.00  0.00    +0.000 A 
ATOM     11  N   UNL     1      43.359   3.480  13.020  0.00  0.00    +0.000 N 
ATOM     12  C   UNL     1      43.654   4.782  12.669  0.00  0.00    +0.000 A 
ATOM     13  O   UNL     1      43.284   5.722  13.358  0.00  0.00    +0.000 OA
ATOM     14  C   UNL     1      44.348   4.896  11.399  0.00  0.00    +0.000 A 
ATOM     15  H   UNL     1      42.890   3.363  13.908  0.00  0.00    +0.000 HD
ENDBRANCH   3   5
BRANCH   2  16
ATOM     16  C   UNL     1      47.324   6.577  12.494  0.00  0.00    +0.000 C 
BRANCH  16  17
ATOM     17  C   UNL     1      47.564   6.016  13.870  0.00  0.00    +0.000 A 
ATOM     18  C   UNL     1      46.926   4.829  14.262  0.00  0.00    +0.000 A 
ATOM     19  C   UNL     1      47.194   4.263  15.504  0.00  0.00    +0.000 A 
ATOM     20  C   UNL     1      48.144   4.846  16.346  0.00  0.00    +0.000 A 
ATOM     21  C   UNL     1      48.735   6.059  15.993  0.00  0.00    +0.000 A 
ATOM     22  C   UNL     1      48.444   6.646  14.758  0.00  0.00    +0.000 A 
BRANCH  20  23
ATOM     23  O   UNL     1      48.503   4.310  17.562  0.00  0.00    +0.000 OA
BRANCH  23  24
ATOM     24  C   UNL     1      49.675   3.568  17.616  0.00  0.00    +0.000 A 
ATOM     25  C   UNL     1      49.635   2.276  17.111  0.00  0.00    +0.000 A 
ATOM     26  N   UNL     1      50.729   1.475  17.067  0.00  0.00    +0.000 NA
ATOM     27  C   UNL     1      51.863   2.025  17.559  0.00  0.00    +0.000 A 
ATOM     28  C   UNL     1      51.899   3.303  18.093  0.00  0.00    +0.000 A 
ATOM     29  N   UNL     1      50.807   4.093  18.146  0.00  0.00    +0.000 NA
ENDBRANCH  23  24
ENDBRANCH  20  23
ENDBRANCH  16  17
ENDBRANCH   2  16
TORSDOF 5
ENDMDL
MODEL 3
REMARK VINA RESULT:    -6.906      3.075      8.093
REMARK INTER + INTRA:          -9.922
REMARK INTER:                  -8.914
REMARK INTRA:                  -1.008
REMARK UNBOUND:                -0.998
REMARK  Name = 
REMARK  6 active torsions:
REMARK  status: ('A' for Active; 'I' for Inactive)
REMARK    1  A    between atoms: C_1  and  N_2
REMARK    2  A    between atoms: N_2  and  C_3
REMARK    3  A    between atoms: C_3  and  C_4
REMARK    4  A    between atoms: C_7  and  O_8
REMARK    5  A    between atoms: O_8  and  C_9
REMARK    6  A    between atoms: C_17  and  C_19
REMARK                            x       y       z     vdW  Elec       q    Type
REMARK                         _______ _______ _______ _____ _____    ______ ____
ROOT
ATOM      1  C   UNL     1      49.664   7.416  12.536  0.00  0.00    +0.000 C 
ATOM      2  N   UNL     1      49.053   7.674  13.835  0.00  0.00    +0.000 N 
ATOM      3  C   UNL     1      49.946   7.835  14.909  0.00  0.00    +0.000 C 
ATOM      4  O   UNL     1      51.161   7.729  14.748  0.00  0.00    +0.000 OA
ENDROOT
BRANCH   3   5
ATOM      5  C   UNL     1      49.420   8.093  16.257  0.00  0.00    +0.000 A 
ATOM      6  C   UNL     1      49.400   9.335  16.872  0.00  0.00    +0.000 A 
ATOM      7  S   UNL     1      48.648   9.328  18.405  0.00  0.00    +0.000 S 
ATOM      8  C   UNL     1      48.193   7.699  18.232  0.00  0.00    +0.000 A 
ATOM      9  N   UNL     1      47.415   7.085  19.162  0.00  0.00    +0.000 NA
ATOM     10  C   UNL     1      47.094   5.870  18.863  0.00  0.00    +0.000 A 
ATOM     11  N   UNL     1      47.518   5.202  17.742  0.00  0.00    +0.000 N 
ATOM     12  C   UNL     1      48.424   5.734  16.847  0.00  0.00    +0.000 A 
ATOM     13  O   UNL     1      48.967   5.033  16.006  0.00  0.00    +0.000 OA
ATOM     14  C   UNL     1      48.703   7.141  17.073  0.00  0.00    +0.000 A 
ATOM     15  H   UNL     1      47.288   4.228  17.603  0.00  0.00    +0.000 HD
ENDBRANCH   3   5
BRANCH   2  16
ATOM     16  C   UNL     1      47.630   7.997  13.929  0.00  0.00    +0.000 C 
BRANCH  16  17
ATOM     17  C   UNL     1      46.666   7.196  13.097  0.00  0.00    +0.000 A 
ATOM     18  C   UNL     1      45.853   7.842  12.153  0.00  0.00    +0.000 A 
ATOM     19  C   UNL     1      45.008   7.105  11.329  0.00  0.00    +0.000 A 
ATOM     20  C   UNL     1      45.007   5.709  11.401  0.00  0.00    +0.000 A 
ATOM     21  C   UNL     1      45.764   5.063  12.379  0.00  0.00    +0.000 A 
ATOM     22  C   UNL     1      46.590   5.804  13.228  0.00  0.00    +0.000 A 
BRANCH  20  23
ATOM     23  O   UNL     1      44.244   4.914  10.577  0.00  0.00    +0.000 OA
BRANCH  23  24
ATOM     24  C   UNL     1      44.907   4.142   9.634  0.00  0.00    +0.000 A 
ATOM     25  C   UNL     1      44.799   2.763   9.748  0.00  0.00    +0.000 A 
ATOM     26  N   UNL     1      45.363   1.910   8.857  0.00  0.00    +0.000 NA
ATOM     27  C   UNL     1      46.048   2.501   7.851  0.00  0.00    +0.000 A 
ATOM     28  C   UNL     1      46.184   3.876   7.752  0.00  0.00    +0.000 A 
ATOM     29  N   UNL     1      45.632   4.722   8.645  0.00  0.00    +0.000 NA
ENDBRANCH  23  24
ENDBRANCH  20  23
ENDBRANCH  16  17
ENDBRANCH   2  16
TORSDOF 5
ENDMDL
MODEL 4
REMARK VINA RESULT:    -6.801      2.859      8.237
REMARK INTER + INTRA:          -9.787
REMARK INTER:                  -8.807
REMARK INTRA:                  -0.980
REMARK UNBOUND:                -0.998
REMARK  Name = 
REMARK  6 active torsions:
REMARK  status: ('A' for Active; 'I' for Inactive)
REMARK    1  A    between atoms: C_1  and  N_2
REMARK    2  A    between atoms: N_2  and  C_3
REMARK    3  A    between atoms: C_3  and  C_4
REMARK    4  A    between atoms: C_7  and  O_8
REMARK    5  A    between atoms: O_8  and  C_9
REMARK    6  A    between atoms: C_17  and  C_19
REMARK                            x       y       z     vdW  Elec       q    Type
REMARK                         _______ _______ _______ _____ _____    ______ ____
ROOT
ATOM      1  C   UNL     1      49.786   7.767  13.260  0.00  0.00    +0.000 C 
ATOM      2  N   UNL     1      48.890   7.169  14.243  0.00  0.00    +0.000 N 
ATOM      3  C   UNL     1      49.504   6.676  15.409  0.00  0.00    +0.000 C 
ATOM      4  O   UNL     1      50.724   6.728  15.556  0.00  0.00    +0.000 OA
ENDROOT
BRANCH   3   5
ATOM      5  C   UNL     1      48.679   6.052  16.453  0.00  0.00    +0.000 A 
ATOM      6  C   UNL     1      48.280   4.724  16.455  0.00  0.00    +0.000 A 
ATOM      7  S   UNL     1      47.399   4.276  17.848  0.00  0.00    +0.000 S 
ATOM      8  C   UNL     1      47.650   5.799  18.560  0.00  0.00    +0.000 A 
ATOM      9  N   UNL     1      47.238   6.057  19.829  0.00  0.00    +0.000 NA
ATOM     10  C   UNL     1      47.558   7.232  20.260  0.00  0.00    +0.000 A 
ATOM     11  N   UNL     1      48.212   8.185  19.521  0.00  0.00    +0.000 N 
ATOM     12  C   UNL     1      48.520   8.021  18.185  0.00  0.00    +0.000 A 
ATOM     13  O   UNL     1      48.873   8.968  17.498  0.00  0.00    +0.000 OA
ATOM     14  C   UNL     1      48.300   6.669  17.702  0.00  0.00    +0.000 A 
ATOM     15  H   UNL     1      48.370   9.111  19.895  0.00  0.00    +0.000 HD
ENDBRANCH   3   5
BRANCH   2  16
ATOM     16  C   UNL     1      47.442   7.325  14.112  0.00  0.00    +0.000 C 
BRANCH  16  17
ATOM     17  C   UNL     1      46.738   6.529  13.046  0.00  0.00    +0.000 A 
ATOM     18  C   UNL     1      46.357   5.203  13.300  0.00  0.00    +0.000 A 
ATOM     19  C   UNL     1      45.643   4.481  12.349  0.00  0.00    +0.000 A 
ATOM     20  C   UNL     1      45.255   5.093  11.155  0.00  0.00    +0.000 A 
ATOM     21  C   UNL     1      45.685   6.389  10.867  0.00  0.00    +0.000 A 
ATOM     22  C   UNL     1      46.428   7.106  11.808  0.00  0.00    +0.000 A 
BRANCH  20  23
ATOM     23  O   UNL     1      44.498   4.461  10.196  0.00  0.00    +0.000 OA
BRANCH  23  24
ATOM     24  C   UNL     1      45.168   3.710   9.239  0.00  0.00    +0.000 A 
ATOM     25  C   UNL     1      45.200   2.334   9.417  0.00  0.00    +0.000 A 
ATOM     26  N   UNL     1      45.783   1.496   8.523  0.00  0.00    +0.000 NA
ATOM     27  C   UNL     1      46.340   2.100   7.448  0.00  0.00    +0.000 A 
ATOM     28  C   UNL     1      46.337   3.476   7.284  0.00  0.00    +0.000 A 
ATOM     29  N   UNL     1      45.767   4.308   8.180  0.00  0.00    +0.000 NA
ENDBRANCH  23  24
ENDBRANCH  20  23
ENDBRANCH  16  17
ENDBRANCH   2  16
TORSDOF 5
ENDMDL
MODEL 5
REMARK VINA RESULT:    -6.698      2.113      7.944
REMARK INTER + INTRA:          -9.653
REMARK INTER:                  -8.722
REMARK INTRA:                  -0.931
REMARK UNBOUND:                -0.998
REMARK  Name = 
REMARK  6 active torsions:
REMARK  status: ('A' for Active; 'I' for Inactive)
REMARK    1  A    between atoms: C_1  and  N_2
REMARK    2  A    between atoms: N_2  and  C_3
REMARK    3  A    between atoms: C_3  and  C_4
REMARK    4  A    between atoms: C_7  and  O_8
REMARK    5  A    between atoms: O_8  and  C_9
REMARK    6  A    between atoms: C_17  and  C_19
REMARK                            x       y       z     vdW  Elec       q    Type
REMARK                         _______ _______ _______ _____ _____    ______ ____
ROOT
ATOM      1  C   UNL     1      48.979   8.846  16.067  0.00  0.00    +0.000 C 
ATOM      2  N   UNL     1      48.934   7.389  16.094  0.00  0.00    +0.000 N 
ATOM      3  C   UNL     1      48.548   6.812  17.318  0.00  0.00    +0.000 C 
ATOM      4  O   UNL     1      48.299   7.510  18.299  0.00  0.00    +0.000 OA
ENDROOT
BRANCH   3   5
ATOM      5  C   UNL     1      48.479   5.349  17.440  0.00  0.00    +0.000 A 
ATOM      6  C   UNL     1      47.314   4.603  17.346  0.00  0.00    +0.000 A 
ATOM      7  S   UNL     1      47.570   2.918  17.447  0.00  0.00    +0.000 S 
ATOM      8  C   UNL     1      49.258   3.123  17.469  0.00  0.00    +0.000 A 
ATOM      9  N   UNL     1      50.095   2.054  17.442  0.00  0.00    +0.000 NA
ATOM     10  C   UNL     1      51.348   2.365  17.393  0.00  0.00    +0.000 A 
ATOM     11  N   UNL     1      51.837   3.646  17.414  0.00  0.00    +0.000 N 
ATOM     12  C   UNL     1      51.034   4.756  17.587  0.00  0.00    +0.000 A 
ATOM     13  O   UNL     1      51.514   5.849  17.849  0.00  0.00    +0.000 OA
ATOM     14  C   UNL     1      49.614   4.460  17.510  0.00  0.00    +0.000 A 
ATOM     15  H   UNL     1      52.833   3.819  17.445  0.00  0.00    +0.000 HD
ENDBRANCH   3   5
BRANCH   2  16
ATOM     16  C   UNL     1      49.032   6.624  14.851  0.00  0.00    +0.000 C 
BRANCH  16  17
ATOM     17  C   UNL     1      47.773   6.395  14.059  0.00  0.00    +0.000 A 
ATOM     18  C   UNL     1      47.191   7.457  13.349  0.00  0.00    +0.000 A 
ATOM     19  C   UNL     1      46.068   7.241  12.557  0.00  0.00    +0.000 A 
ATOM     20  C   UNL     1      45.547   5.952  12.422  0.00  0.00    +0.000 A 
ATOM     21  C   UNL     1      46.079   4.904  13.173  0.00  0.00    +0.000 A 
ATOM     22  C   UNL     1      47.189   5.125  13.993  0.00  0.00    +0.000 A 
BRANCH  20  23
ATOM     23  O   UNL     1      44.476   5.655  11.609  0.00  0.00    +0.000 OA
BRANCH  23  24
ATOM     24  C   UNL     1      44.723   4.901  10.471  0.00  0.00    +0.000 A 
ATOM     25  C   UNL     1      45.578   5.442   9.521  0.00  0.00    +0.000 A 
ATOM     26  N   UNL     1      45.930   4.777   8.392  0.00  0.00    +0.000 NA
ATOM     27  C   UNL     1      45.380   3.549   8.254  0.00  0.00    +0.000 A 
ATOM     28  C   UNL     1      44.501   3.019   9.185  0.00  0.00    +0.000 A 
ATOM     29  N   UNL     1      44.144   3.686  10.301  0.00  0.00    +0.000 NA
ENDBRANCH  23  24
ENDBRANCH  20  23
ENDBRANCH  16  17
ENDBRANCH   2  16
TORSDOF 5
ENDMDL
MODEL 6
REMARK VINA RESULT:    -6.543      3.604      7.964
REMARK INTER + INTRA:          -9.453
REMARK INTER:                  -8.568
REMARK INTRA:                  -0.885
REMARK UNBOUND:                -0.998
REMARK  Name = 
REMARK  6 active torsions:
REMARK  status: ('A' for Active; 'I' for Inactive)
REMARK    1  A    between atoms: C_1  and  N_2
REMARK    2  A    between atoms: N_2  and  C_3
REMARK    3  A    between atoms: C_3  and  C_4
REMARK    4  A    between atoms: C_7  and  O_8
REMARK    5  A    between atoms: O_8  and  C_9
REMARK    6  A    between atoms: C_17  and  C_19
REMARK                            x       y       z     vdW  Elec       q    Type
REMARK                         _______ _______ _______ _____ _____    ______ ____
ROOT
ATOM      1  C   UNL     1      46.844   4.665  14.303  0.00  0.00    +0.000 C 
ATOM      2  N   UNL     1      47.052   6.091  14.079  0.00  0.00    +0.000 N 
ATOM      3  C   UNL     1      48.259   6.618  14.572  0.00  0.00    +0.000 C 
ATOM      4  O   UNL     1      49.061   5.910  15.178  0.00  0.00    +0.000 OA
ENDROOT
BRANCH   3   5
ATOM      5  C   UNL     1      48.551   8.048  14.397  0.00  0.00    +0.000 A 
ATOM      6  C   UNL     1      48.275   9.031  15.334  0.00  0.00    +0.000 A 
ATOM      7  S   UNL     1      48.809  10.585  14.874  0.00  0.00    +0.000 S 
ATOM      8  C   UNL     1      49.558   9.972  13.476  0.00  0.00    +0.000 A 
ATOM      9  N   UNL     1      50.301  10.773  12.669  0.00  0.00    +0.000 NA
ATOM     10  C   UNL     1      50.864  10.154  11.685  0.00  0.00    +0.000 A 
ATOM     11  N   UNL     1      50.713   8.818  11.412  0.00  0.00    +0.000 N 
ATOM     12  C   UNL     1      49.854   7.998  12.116  0.00  0.00    +0.000 A 
ATOM     13  O   UNL     1      49.556   6.889  11.699  0.00  0.00    +0.000 OA
ATOM     14  C   UNL     1      49.309   8.620  13.309  0.00  0.00    +0.000 A 
ATOM     15  H   UNL     1      51.125   8.410  10.583  0.00  0.00    +0.000 HD
ENDBRANCH   3   5
BRANCH   2  16
ATOM     16  C   UNL     1      46.171   6.832  13.176  0.00  0.00    +0.000 C 
BRANCH  16  17
ATOM     17  C   UNL     1      45.676   6.133  11.939  0.00  0.00    +0.000 A 
ATOM     18  C   UNL     1      46.361   6.292  10.725  0.00  0.00    +0.000 A 
ATOM     19  C   UNL     1      45.954   5.596   9.591  0.00  0.00    +0.000 A 
ATOM     20  C   UNL     1      44.893   4.691   9.671  0.00  0.00    +0.000 A 
ATOM     21  C   UNL     1      44.167   4.574  10.856  0.00  0.00    +0.000 A 
ATOM     22  C   UNL     1      44.554   5.296  11.989  0.00  0.00    +0.000 A 
BRANCH  20  23
ATOM     23  O   UNL     1      44.475   3.924   8.607  0.00  0.00    +0.000 OA
BRANCH  23  24
ATOM     24  C   UNL     1      45.414   3.104   7.998  0.00  0.00    +0.000 A 
ATOM     25  C   UNL     1      45.629   1.854   8.560  0.00  0.00    +0.000 A 
ATOM     26  N   UNL     1      46.486   0.949   8.023  0.00  0.00    +0.000 NA
ATOM     27  C   UNL     1      47.124   1.358   6.902  0.00  0.00    +0.000 A 
ATOM     28  C   UNL     1      46.936   2.618   6.357  0.00  0.00    +0.000 A 
ATOM     29  N   UNL     1      46.092   3.519   6.899  0.00  0.00    +0.000 NA
ENDBRANCH  23  24
ENDBRANCH  20  23
ENDBRANCH  16  17
ENDBRANCH   2  16
TORSDOF 5
ENDMDL
MODEL 7
REMARK VINA RESULT:    -6.324      2.791      7.652
REMARK INTER + INTRA:          -9.170
REMARK INTER:                  -7.808
REMARK INTRA:                  -1.362
REMARK UNBOUND:                -0.998
REMARK  Name = 
REMARK  6 active torsions:
REMARK  status: ('A' for Active; 'I' for Inactive)
REMARK    1  A    between atoms: C_1  and  N_2
REMARK    2  A    between atoms: N_2  and  C_3
REMARK    3  A    between atoms: C_3  and  C_4
REMARK    4  A    between atoms: C_7  and  O_8
REMARK    5  A    between atoms: O_8  and  C_9
REMARK    6  A    between atoms: C_17  and  C_19
REMARK                            x       y       z     vdW  Elec       q    Type
REMARK                         _______ _______ _______ _____ _____    ______ ____
ROOT
ATOM      1  C   UNL     1      47.701   9.201  17.665  0.00  0.00    +0.000 C 
ATOM      2  N   UNL     1      48.686   8.192  17.292  0.00  0.00    +0.000 N 
ATOM      3  C   UNL     1      48.781   7.083  18.152  0.00  0.00    +0.000 C 
ATOM      4  O   UNL     1      48.090   7.003  19.166  0.00  0.00    +0.000 OA
ENDROOT
BRANCH   3   5
ATOM      5  C   UNL     1      49.752   6.019  17.857  0.00  0.00    +0.000 A 
ATOM      6  C   UNL     1      51.108   6.088  18.135  0.00  0.00    +0.000 A 
ATOM      7  S   UNL     1      51.959   4.659  17.752  0.00  0.00    +0.000 S 
ATOM      8  C   UNL     1      50.521   3.850  17.341  0.00  0.00    +0.000 A 
ATOM      9  N   UNL     1      50.525   2.530  17.018  0.00  0.00    +0.000 NA
ATOM     10  C   UNL     1      49.352   2.037  16.797  0.00  0.00    +0.000 A 
ATOM     11  N   UNL     1      48.183   2.754  16.827  0.00  0.00    +0.000 N 
ATOM     12  C   UNL     1      48.144   4.123  17.006  0.00  0.00    +0.000 A 
ATOM     13  O   UNL     1      47.126   4.760  16.781  0.00  0.00    +0.000 OA
ATOM     14  C   UNL     1      49.423   4.692  17.391  0.00  0.00    +0.000 A 
ATOM     15  H   UNL     1      47.305   2.322  16.574  0.00  0.00    +0.000 HD
ENDBRANCH   3   5
BRANCH   2  16
ATOM     16  C   UNL     1      49.324   8.236  15.977  0.00  0.00    +0.000 C 
BRANCH  16  17
ATOM     17  C   UNL     1      48.491   7.881  14.774  0.00  0.00    +0.000 A 
ATOM     18  C   UNL     1      48.580   6.597  14.217  0.00  0.00    +0.000 A 
ATOM     19  C   UNL     1      47.764   6.235  13.149  0.00  0.00    +0.000 A 
ATOM     20  C   UNL     1      46.812   7.134  12.663  0.00  0.00    +0.000 A 
ATOM     21  C   UNL     1      46.760   8.433  13.169  0.00  0.00    +0.000 A 
ATOM     22  C   UNL     1      47.600   8.809  14.221  0.00  0.00    +0.000 A 
BRANCH  20  23
ATOM     23  O   UNL     1      45.932   6.824  11.652  0.00  0.00    +0.000 OA
BRANCH  23  24
ATOM     24  C   UNL     1      45.030   5.793  11.877  0.00  0.00    +0.000 A 
ATOM     25  C   UNL     1      44.990   4.766  10.944  0.00  0.00    +0.000 A 
ATOM     26  N   UNL     1      44.185   3.684  11.084  0.00  0.00    +0.000 NA
ATOM     27  C   UNL     1      43.414   3.681  12.196  0.00  0.00    +0.000 A 
ATOM     28  C   UNL     1      43.428   4.720  13.113  0.00  0.00    +0.000 A 
ATOM     29  N   UNL     1      44.222   5.801  12.966  0.00  0.00    +0.000 NA
ENDBRANCH  23  24
ENDBRANCH  20  23
ENDBRANCH  16  17
ENDBRANCH   2  16
TORSDOF 5
ENDMDL
MODEL 8
REMARK VINA RESULT:    -6.147      3.803      4.987
REMARK INTER + INTRA:          -8.942
REMARK INTER:                  -8.180
REMARK INTRA:                  -0.762
REMARK UNBOUND:                -0.998
REMARK  Name = 
REMARK  6 active torsions:
REMARK  status: ('A' for Active; 'I' for Inactive)
REMARK    1  A    between atoms: C_1  and  N_2
REMARK    2  A    between atoms: N_2  and  C_3
REMARK    3  A    between atoms: C_3  and  C_4
REMARK    4  A    between atoms: C_7  and  O_8
REMARK    5  A    between atoms: O_8  and  C_9
REMARK    6  A    between atoms: C_17  and  C_19
REMARK                            x       y       z     vdW  Elec       q    Type
REMARK                         _______ _______ _______ _____ _____    ______ ____
ROOT
ATOM      1  C   UNL     1      45.605   8.542  12.528  0.00  0.00    +0.000 C 
ATOM      2  N   UNL     1      45.552   7.093  12.373  0.00  0.00    +0.000 N 
ATOM      3  C   UNL     1      44.418   6.590  11.711  0.00  0.00    +0.000 C 
ATOM      4  O   UNL     1      43.523   7.340  11.324  0.00  0.00    +0.000 OA
ENDROOT
BRANCH   3   5
ATOM      5  C   UNL     1      44.277   5.140  11.514  0.00  0.00    +0.000 A 
ATOM      6  C   UNL     1      43.531   4.302  12.327  0.00  0.00    +0.000 A 
ATOM      7  S   UNL     1      43.494   2.682  11.790  0.00  0.00    +0.000 S 
ATOM      8  C   UNL     1      44.348   3.077  10.374  0.00  0.00    +0.000 A 
ATOM      9  N   UNL     1      44.569   2.150   9.406  0.00  0.00    +0.000 NA
ATOM     10  C   UNL     1      45.170   2.612   8.360  0.00  0.00    +0.000 A 
ATOM     11  N   UNL     1      45.609   3.904   8.216  0.00  0.00    +0.000 N 
ATOM     12  C   UNL     1      45.538   4.839   9.228  0.00  0.00    +0.000 A 
ATOM     13  O   UNL     1      46.154   5.893   9.159  0.00  0.00    +0.000 OA
ATOM     14  C   UNL     1      44.750   4.401  10.367  0.00  0.00    +0.000 A 
ATOM     15  H   UNL     1      46.137   4.183   7.400  0.00  0.00    +0.000 HD
ENDBRANCH   3   5
BRANCH   2  16
ATOM     16  C   UNL     1      46.731   6.277  12.661  0.00  0.00    +0.000 C 
BRANCH  16  17
ATOM     17  C   UNL     1      48.076   6.952  12.663  0.00  0.00    +0.000 A 
ATOM     18  C   UNL     1      48.574   7.521  11.481  0.00  0.00    +0.000 A 
ATOM     19  C   UNL     1      49.784   8.209  11.486  0.00  0.00    +0.000 A 
ATOM     20  C   UNL     1      50.482   8.383  12.683  0.00  0.00    +0.000 A 
ATOM     21  C   UNL     1      50.028   7.766  13.849  0.00  0.00    +0.000 A 
ATOM     22  C   UNL     1      48.828   7.049  13.840  0.00  0.00    +0.000 A 
BRANCH  20  23
ATOM     23  O   UNL     1      51.652   9.102  12.775  0.00  0.00    +0.000 OA
BRANCH  23  24
ATOM     24  C   UNL     1      52.554   8.998  11.726  0.00  0.00    +0.000 A 
ATOM     25  C   UNL     1      53.286   7.823  11.629  0.00  0.00    +0.000 A 
ATOM     26  N   UNL     1      54.162   7.589  10.619  0.00  0.00    +0.000 NA
ATOM     27  C   UNL     1      54.277   8.589   9.716  0.00  0.00    +0.000 A 
ATOM     28  C   UNL     1      53.571   9.777   9.827  0.00  0.00    +0.000 A 
ATOM     29  N   UNL     1      52.710  10.011  10.838  0.00  0.00    +0.000 NA
ENDBRANCH  23  24
ENDBRANCH  20  23
ENDBRANCH  16  17
ENDBRANCH   2  16
TORSDOF 5
ENDMDL
MODEL 9
REMARK VINA RESULT:    -5.921      2.951      8.540
REMARK INTER + INTRA:          -8.649
REMARK INTER:                  -7.873
REMARK INTRA:                  -0.776
REMARK UNBOUND:                -0.998
REMARK  Name = 
REMARK  6 active torsions:
REMARK  status: ('A' for Active; 'I' for Inactive)
REMARK    1  A    between atoms: C_1  and  N_2
REMARK    2  A    between atoms: N_2  and  C_3
REMARK    3  A    between atoms: C_3  and  C_4
REMARK    4  A    between atoms: C_7  and  O_8
REMARK    5  A    between atoms: O_8  and  C_9
REMARK    6  A    between atoms: C_17  and  C_19
REMARK                            x       y       z     vdW  Elec       q    Type
REMARK                         _______ _______ _______ _____ _____    ______ ____
ROOT
ATOM      1  C   UNL     1      47.961   8.815  15.198  0.00  0.00    +0.000 C 
ATOM      2  N   UNL     1      49.124   7.935  15.186  0.00  0.00    +0.000 N 
ATOM      3  C   UNL     1      49.915   7.952  16.348  0.00  0.00    +0.000 C 
ATOM      4  O   UNL     1      49.644   8.694  17.291  0.00  0.00    +0.000 OA
ENDROOT
BRANCH   3   5
ATOM      5  C   UNL     1      51.111   7.101  16.424  0.00  0.00    +0.000 A 
ATOM      6  C   UNL     1      52.377   7.480  16.007  0.00  0.00    +0.000 A 
ATOM      7  S   UNL     1      53.576   6.301  16.303  0.00  0.00    +0.000 S 
ATOM      8  C   UNL     1      52.471   5.309  17.130  0.00  0.00    +0.000 A 
ATOM      9  N   UNL     1      52.877   4.166  17.744  0.00  0.00    +0.000 NA
ATOM     10  C   UNL     1      51.941   3.553  18.390  0.00  0.00    +0.000 A 
ATOM     11  N   UNL     1      50.631   3.956  18.438  0.00  0.00    +0.000 N 
ATOM     12  C   UNL     1      50.145   5.025  17.713  0.00  0.00    +0.000 A 
ATOM     13  O   UNL     1      48.943   5.206  17.582  0.00  0.00    +0.000 OA
ATOM     14  C   UNL     1      51.185   5.819  17.084  0.00  0.00    +0.000 A 
ATOM     15  H   UNL     1      49.933   3.391  18.903  0.00  0.00    +0.000 HD
ENDBRANCH   3   5
BRANCH   2  16
ATOM     16  C   UNL     1      49.277   6.929  14.135  0.00  0.00    +0.000 C 
BRANCH  16  17
ATOM     17  C   UNL     1      48.081   6.614  13.277  0.00  0.00    +0.000 A 
ATOM     18  C   UNL     1      47.941   7.227  12.022  0.00  0.00    +0.000 A 
ATOM     19  C   UNL     1      46.877   6.891  11.190  0.00  0.00    +0.000 A 
ATOM     20  C   UNL     1      45.973   5.899  11.579  0.00  0.00    +0.000 A 
ATOM     21  C   UNL     1      46.068   5.332  12.850  0.00  0.00    +0.000 A 
ATOM     22  C   UNL     1      47.118   5.690  13.700  0.00  0.00    +0.000 A 
BRANCH  20  23
ATOM     23  O   UNL     1      44.934   5.473  10.784  0.00  0.00    +0.000 OA
BRANCH  23  24
ATOM     24  C   UNL     1      45.205   4.486   9.846  0.00  0.00    +0.000 A 
ATOM     25  C   UNL     1      44.899   3.178  10.193  0.00  0.00    +0.000 A 
ATOM     26  N   UNL     1      45.074   2.137   9.341  0.00  0.00    +0.000 NA
ATOM     27  C   UNL     1      45.578   2.465   8.129  0.00  0.00    +0.000 A 
ATOM     28  C   UNL     1      45.914   3.767   7.791  0.00  0.00    +0.000 A 
ATOM     29  N   UNL     1      45.749   4.798   8.644  0.00  0.00    +0.000 NA
ENDBRANCH  23  24
ENDBRANCH  20  23
ENDBRANCH  16  17
ENDBRANCH   2  16
TORSDOF 5
ENDMDL
