MODEL 1
REMARK VINA RESULT:    -8.877      0.000      0.000
REMARK INTER + INTRA:         -11.608
REMARK INTER:                 -10.953
REMARK INTRA:                  -0.654
REMARK UNBOUND:                -0.654
REMARK  Name = 
REMARK  4 active torsions:
REMARK  status: ('A' for Active; 'I' for Inactive)
REMARK    1  A    between atoms: C_2  and  C_4
REMARK    2  A    between atoms: N_8  and  C_9
REMARK    3  A    between atoms: C_9  and  C_10
REMARK    4  A    between atoms: C_14  and  C_15
REMARK                            x       y       z     vdW  Elec       q    Type
REMARK                         _______ _______ _______ _____ _____    ______ ____
ROOT
ATOM      1  C   UNL     1      43.461   3.767  11.186  0.00  0.00    +0.000 C 
ENDROOT
BRANCH   1   6
ATOM      2  C   UNL     1      46.573   2.507   7.264  0.00  0.00    +0.000 A 
ATOM      3  C   UNL     1      46.010   3.729   7.611  0.00  0.00    +0.000 A 
ATOM      4  C   UNL     1      45.178   3.801   8.726  0.00  0.00    +0.000 A 
ATOM      5  C   UNL     1      44.914   2.655   9.473  0.00  0.00    +0.000 A 
ATOM      6  N   UNL     1      44.176   2.652  10.622  0.00  0.00    +0.000 N 
ATOM      7  N   UNL     1      45.428   1.460   9.120  0.00  0.00    +0.000 NA
ATOM      8  C   UNL     1      46.235   1.404   8.028  0.00  0.00    +0.000 A 
ATOM      9  H   UNL     1      43.997   1.721  10.974  0.00  0.00    +0.000 HD
BRANCH   2  11
ATOM     10  N   UNL     1      47.429   3.292   5.138  0.00  0.00    +0.000 N 
ATOM     11  C   UNL     1      47.500   2.353   6.127  0.00  0.00    +0.000 C 
ATOM     12  O   UNL     1      48.324   1.447   6.087  0.00  0.00    +0.000 OA
ATOM     13  H   UNL     1      48.141   3.238   4.421  0.00  0.00    +0.000 HD
ATOM     14  H   UNL     1      46.959   4.179   5.260  0.00  0.00    +0.000 HD
ENDBRANCH   2  11
ENDBRANCH   1   6
BRANCH   1  15
ATOM     15  C   UNL     1      44.391   4.855  11.665  0.00  0.00    +0.000 A 
ATOM     16  C   UNL     1      44.258   6.166  11.197  0.00  0.00    +0.000 A 
ATOM     17  C   UNL     1      45.092   7.170  11.678  0.00  0.00    +0.000 A 
ATOM     18  C   UNL     1      46.051   6.879  12.653  0.00  0.00    +0.000 A 
ATOM     19  C   UNL     1      46.184   5.586  13.188  0.00  0.00    +0.000 A 
ATOM     20  C   UNL     1      45.358   4.579  12.648  0.00  0.00    +0.000 A 
BRANCH  19  21
ATOM     21  C   UNL     1      47.065   5.308  14.347  0.00  0.00    +0.000 A 
ATOM     22  C   UNL     1      48.010   6.265  14.773  0.00  0.00    +0.000 A 
ATOM     23  C   UNL     1      48.769   6.088  15.935  0.00  0.00    +0.000 A 
ATOM     24  C   UNL     1      48.594   4.945  16.706  0.00  0.00    +0.000 A 
ATOM     25  C   UNL     1      47.686   3.981  16.290  0.00  0.00    +0.000 A 
ATOM     26  F   UNL     1      47.507   2.884  17.039  0.00  0.00    +0.000 F 
ATOM     27  C   UNL     1      46.937   4.141  15.125  0.00  0.00    +0.000 A 
ENDBRANCH  19  21
ENDBRANCH   1  15
TORSDOF 4
ENDMDL
MODEL 2
REMARK VINA RESULT:    -8.781      2.792      4.307
REMARK INTER + INTRA:         -11.489
REMARK INTER:                 -10.703
REMARK INTRA:                  -0.787
REMARK UNBOUND:                -0.654
REMARK  Name = 
REMARK  4 active torsions:
REMARK  status: ('A' for Active; 'I' for Inactive)
REMARK    1  A    between atoms: C_2  and  C_4
REMARK    2  A    between atoms: N_8  and  C_9
REMARK    3  A    between atoms: C_9  and  C_10
REMARK    4  A    between atoms: C_14  and  C_15
REMARK                            x       y       z     vdW  Elec       q    Type
REMARK                         _______ _______ _______ _____ _____    ______ ____
ROOT
ATOM      1  C   UNL     1      43.482   3.834  11.179  0.00  0.00    +0.000 C 
ENDROOT
BRANCH   1   6
ATOM      2  C   UNL     1      46.592   2.509   7.277  0.00  0.00    +0.000 A 
ATOM      3  C   UNL     1      46.076   3.747   7.637  0.00  0.00    +0.000 A 
ATOM      4  C   UNL     1      45.232   3.836   8.742  0.00  0.00    +0.000 A 
ATOM      5  C   UNL     1      44.911   2.690   9.467  0.00  0.00    +0.000 A 
ATOM      6  N   UNL     1      44.158   2.699  10.606  0.00  0.00    +0.000 N 
ATOM      7  N   UNL     1      45.380   1.480   9.101  0.00  0.00    +0.000 NA
ATOM      8  C   UNL     1      46.198   1.408   8.019  0.00  0.00    +0.000 A 
ATOM      9  H   UNL     1      43.937   1.771  10.941  0.00  0.00    +0.000 HD
BRANCH   2  11
ATOM     10  N   UNL     1      47.412   3.210   5.108  0.00  0.00    +0.000 N 
ATOM     11  C   UNL     1      47.527   2.334   6.149  0.00  0.00    +0.000 C 
ATOM     12  O   UNL     1      48.394   1.468   6.160  0.00  0.00    +0.000 OA
ATOM     13  H   UNL     1      48.126   3.149   4.394  0.00  0.00    +0.000 HD
ATOM     14  H   UNL     1      46.899   4.079   5.180  0.00  0.00    +0.000 HD
ENDBRANCH   2  11
ENDBRANCH   1   6
BRANCH   1  15
ATOM     15  C   UNL     1      44.434   4.756  11.903  0.00  0.00    +0.000 A 
ATOM     16  C   UNL     1      45.452   4.241  12.711  0.00  0.00    +0.000 A 
ATOM     17  C   UNL     1      46.351   5.097  13.339  0.00  0.00    +0.000 A 
ATOM     18  C   UNL     1      46.256   6.478  13.144  0.00  0.00    +0.000 A 
ATOM     19  C   UNL     1      45.280   7.035  12.300  0.00  0.00    +0.000 A 
ATOM     20  C   UNL     1      44.354   6.148  11.715  0.00  0.00    +0.000 A 
BRANCH  19  21
ATOM     21  C   UNL     1      45.287   8.474  11.942  0.00  0.00    +0.000 A 
ATOM     22  C   UNL     1      46.393   9.288  12.267  0.00  0.00    +0.000 A 
ATOM     23  C   UNL     1      46.486  10.615  11.836  0.00  0.00    +0.000 A 
ATOM     24  C   UNL     1      45.471  11.161  11.060  0.00  0.00    +0.000 A 
ATOM     25  C   UNL     1      44.363  10.384  10.749  0.00  0.00    +0.000 A 
ATOM     26  F   UNL     1      43.390  10.905   9.990  0.00  0.00    +0.000 F 
ATOM     27  C   UNL     1      44.254   9.065  11.188  0.00  0.00    +0.000 A 
ENDBRANCH  19  21
ENDBRANCH   1  15
TORSDOF 4
ENDMDL
MODEL 3
REMARK VINA RESULT:    -8.296      4.146      7.194
REMARK INTER + INTRA:         -10.890
REMARK INTER:                 -10.035
REMARK INTRA:                  -0.855
REMARK UNBOUND:                -0.654
REMARK  Name = 
REMARK  4 active torsions:
REMARK  status: ('A' for Active; 'I' for Inactive)
REMARK    1  A    between atoms: C_2  and  C_4
REMARK    2  A    between atoms: N_8  and  C_9
REMARK    3  A    between atoms: C_9  and  C_10
REMARK    4  A    between atoms: C_14  and  C_15
REMARK                            x       y       z     vdW  Elec       q    Type
REMARK                         _______ _______ _______ _____ _____    ______ ____
ROOT
ATOM      1  C   UNL     1      44.606   6.390  12.341  0.00  0.00    +0.000 C 
ENDROOT
BRANCH   1   6
ATOM      2  C   UNL     1      49.601   7.672  12.564  0.00  0.00    +0.000 A 
ATOM      3  C   UNL     1      48.710   7.702  11.499  0.00  0.00    +0.000 A 
ATOM      4  C   UNL     1      47.397   7.281  11.700  0.00  0.00    +0.000 A 
ATOM      5  C   UNL     1      46.995   6.831  12.955  0.00  0.00    +0.000 A 
ATOM      6  N   UNL     1      45.712   6.477  13.259  0.00  0.00    +0.000 N 
ATOM      7  N   UNL     1      47.865   6.766  13.983  0.00  0.00    +0.000 NA
ATOM      8  C   UNL     1      49.143   7.176  13.772  0.00  0.00    +0.000 A 
ATOM      9  H   UNL     1      45.621   6.075  14.182  0.00  0.00    +0.000 HD
BRANCH   2  11
ATOM     10  N   UNL     1      51.766   8.077  13.574  0.00  0.00    +0.000 N 
ATOM     11  C   UNL     1      50.995   8.142  12.448  0.00  0.00    +0.000 C 
ATOM     12  O   UNL     1      51.455   8.538  11.384  0.00  0.00    +0.000 OA
ATOM     13  H   UNL     1      52.746   8.298  13.456  0.00  0.00    +0.000 HD
ATOM     14  H   UNL     1      51.508   7.524  14.381  0.00  0.00    +0.000 HD
ENDBRANCH   2  11
ENDBRANCH   1   6
BRANCH   1  15
ATOM     15  C   UNL     1      44.415   4.989  11.812  0.00  0.00    +0.000 A 
ATOM     16  C   UNL     1      43.466   4.133  12.381  0.00  0.00    +0.000 A 
ATOM     17  C   UNL     1      43.268   2.859  11.858  0.00  0.00    +0.000 A 
ATOM     18  C   UNL     1      43.997   2.437  10.743  0.00  0.00    +0.000 A 
ATOM     19  C   UNL     1      44.924   3.284  10.109  0.00  0.00    +0.000 A 
ATOM     20  C   UNL     1      45.139   4.550  10.689  0.00  0.00    +0.000 A 
BRANCH  19  21
ATOM     21  C   UNL     1      45.563   2.916   8.822  0.00  0.00    +0.000 A 
ATOM     22  C   UNL     1      45.940   3.914   7.899  0.00  0.00    +0.000 A 
ATOM     23  C   UNL     1      46.655   3.612   6.735  0.00  0.00    +0.000 A 
ATOM     24  C   UNL     1      47.017   2.297   6.470  0.00  0.00    +0.000 A 
ATOM     25  C   UNL     1      46.635   1.298   7.355  0.00  0.00    +0.000 A 
ATOM     26  F   UNL     1      46.995   0.030   7.106  0.00  0.00    +0.000 F 
ATOM     27  C   UNL     1      45.908   1.587   8.509  0.00  0.00    +0.000 A 
ENDBRANCH  19  21
ENDBRANCH   1  15
TORSDOF 4
ENDMDL
MODEL 4
REMARK VINA RESULT:    -8.222      2.783      3.650
REMARK INTER + INTRA:         -10.799
REMARK INTER:                  -9.998
REMARK INTRA:                  -0.800
REMARK UNBOUND:                -0.654
REMARK  Name = 
REMARK  4 active torsions:
REMARK  status: ('A' for Active; 'I' for Inactive)
REMARK    1  A    between atoms: C_2  and  C_4
REMARK    2  A    between atoms: N_8  and  C_9
REMARK    3  A    between atoms: C_9  and  C_10
REMARK    4  A    between atoms: C_14  and  C_15
REMARK                            x       y       z     vdW  Elec       q    Type
REMARK                         _______ _______ _______ _____ _____    ______ ____
ROOT
ATOM      1  C   UNL     1      43.424   4.897  10.850  0.00  0.00    +0.000 C 
ENDROOT
BRANCH   1   6
ATOM      2  C   UNL     1      46.402   2.245   7.571  0.00  0.00    +0.000 A 
ATOM      3  C   UNL     1      45.984   1.937   8.859  0.00  0.00    +0.000 A 
ATOM      4  C   UNL     1      45.184   2.844   9.549  0.00  0.00    +0.000 A 
ATOM      5  C   UNL     1      44.818   4.047   8.948  0.00  0.00    +0.000 A 
ATOM      6  N   UNL     1      43.974   4.955   9.521  0.00  0.00    +0.000 N 
ATOM      7  N   UNL     1      45.251   4.368   7.713  0.00  0.00    +0.000 NA
ATOM      8  C   UNL     1      46.034   3.474   7.053  0.00  0.00    +0.000 A 
ATOM      9  H   UNL     1      43.903   5.815   8.994  0.00  0.00    +0.000 HD
BRANCH   2  11
ATOM     10  N   UNL     1      48.239   1.866   6.038  0.00  0.00    +0.000 N 
ATOM     11  C   UNL     1      47.212   1.321   6.755  0.00  0.00    +0.000 C 
ATOM     12  O   UNL     1      47.001   0.114   6.748  0.00  0.00    +0.000 OA
ATOM     13  H   UNL     1      48.853   1.210   5.571  0.00  0.00    +0.000 HD
ATOM     14  H   UNL     1      48.601   2.793   6.220  0.00  0.00    +0.000 HD
ENDBRANCH   2  11
ENDBRANCH   1   6
BRANCH   1  15
ATOM     15  C   UNL     1      44.479   5.095  11.911  0.00  0.00    +0.000 A 
ATOM     16  C   UNL     1      44.600   4.195  12.975  0.00  0.00    +0.000 A 
ATOM     17  C   UNL     1      45.604   4.362  13.924  0.00  0.00    +0.000 A 
ATOM     18  C   UNL     1      46.515   5.416  13.803  0.00  0.00    +0.000 A 
ATOM     19  C   UNL     1      46.461   6.312  12.722  0.00  0.00    +0.000 A 
ATOM     20  C   UNL     1      45.406   6.147  11.803  0.00  0.00    +0.000 A 
BRANCH  19  21
ATOM     21  C   UNL     1      47.528   7.314  12.486  0.00  0.00    +0.000 A 
ATOM     22  C   UNL     1      48.887   6.936  12.519  0.00  0.00    +0.000 A 
ATOM     23  C   UNL     1      49.911   7.825  12.179  0.00  0.00    +0.000 A 
ATOM     24  C   UNL     1      49.597   9.122  11.791  0.00  0.00    +0.000 A 
ATOM     25  C   UNL     1      48.268   9.521  11.775  0.00  0.00    +0.000 A 
ATOM     26  F   UNL     1      47.963  10.768  11.387  0.00  0.00    +0.000 F 
ATOM     27  C   UNL     1      47.241   8.645  12.127  0.00  0.00    +0.000 A 
ENDBRANCH  19  21
ENDBRANCH   1  15
TORSDOF 4
ENDMDL
MODEL 5
REMARK VINA RESULT:    -8.184      4.376      8.121
REMARK INTER + INTRA:         -10.752
REMARK INTER:                 -10.193
REMARK INTRA:                  -0.559
REMARK UNBOUND:                -0.654
REMARK  Name = 
REMARK  4 active torsions:
REMARK  status: ('A' for Active; 'I' for Inactive)
REMARK    1  A    between atoms: C_2  and  C_4
REMARK    2  A    between atoms: N_8  and  C_9
REMARK    3  A    between atoms: C_9  and  C_10
REMARK    4  A    between atoms: C_14  and  C_15
REMARK                            x       y       z     vdW  Elec       q    Type
REMARK                         _______ _______ _______ _____ _____    ______ ____
ROOT
ATOM      1  C   UNL     1      45.956   5.525  13.643  0.00  0.00    +0.000 C 
ENDROOT
BRANCH   1   6
ATOM      2  C   UNL     1      49.235   4.187  17.399  0.00  0.00    +0.000 A 
ATOM      3  C   UNL     1      48.987   5.424  16.817  0.00  0.00    +0.000 A 
ATOM      4  C   UNL     1      48.048   5.517  15.793  0.00  0.00    +0.000 A 
ATOM      5  C   UNL     1      47.376   4.376  15.359  0.00  0.00    +0.000 A 
ATOM      6  N   UNL     1      46.387   4.391  14.418  0.00  0.00    +0.000 N 
ATOM      7  N   UNL     1      47.639   3.167  15.894  0.00  0.00    +0.000 NA
ATOM      8  C   UNL     1      48.559   3.091  16.890  0.00  0.00    +0.000 A 
ATOM      9  H   UNL     1      46.084   3.465  14.149  0.00  0.00    +0.000 HD
BRANCH   2  11
ATOM     10  N   UNL     1      49.704   4.257  19.774  0.00  0.00    +0.000 N 
ATOM     11  C   UNL     1      50.179   4.009  18.518  0.00  0.00    +0.000 C 
ATOM     12  O   UNL     1      51.326   3.618  18.337  0.00  0.00    +0.000 OA
ATOM     13  H   UNL     1      50.326   4.027  20.539  0.00  0.00    +0.000 HD
ATOM     14  H   UNL     1      48.716   4.323  19.982  0.00  0.00    +0.000 HD
ENDBRANCH   2  11
ENDBRANCH   1   6
BRANCH   1  15
ATOM     15  C   UNL     1      45.049   5.125  12.504  0.00  0.00    +0.000 A 
ATOM     16  C   UNL     1      43.726   5.571  12.453  0.00  0.00    +0.000 A 
ATOM     17  C   UNL     1      42.912   5.232  11.377  0.00  0.00    +0.000 A 
ATOM     18  C   UNL     1      43.422   4.464  10.327  0.00  0.00    +0.000 A 
ATOM     19  C   UNL     1      44.761   4.038  10.313  0.00  0.00    +0.000 A 
ATOM     20  C   UNL     1      45.548   4.355  11.437  0.00  0.00    +0.000 A 
BRANCH  19  21
ATOM     21  C   UNL     1      45.360   3.385   9.123  0.00  0.00    +0.000 A 
ATOM     22  C   UNL     1      45.897   4.162   8.075  0.00  0.00    +0.000 A 
ATOM     23  C   UNL     1      46.579   3.582   7.000  0.00  0.00    +0.000 A 
ATOM     24  C   UNL     1      46.743   2.203   6.950  0.00  0.00    +0.000 A 
ATOM     25  C   UNL     1      46.201   1.420   7.960  0.00  0.00    +0.000 A 
ATOM     26  F   UNL     1      46.370   0.091   7.920  0.00  0.00    +0.000 F 
ATOM     27  C   UNL     1      45.506   1.988   9.028  0.00  0.00    +0.000 A 
ENDBRANCH  19  21
ENDBRANCH   1  15
TORSDOF 4
ENDMDL
MODEL 6
REMARK VINA RESULT:    -7.019      4.455      7.639
REMARK INTER + INTRA:          -9.314
REMARK INTER:                  -9.301
REMARK INTRA:                  -0.013
REMARK UNBOUND:                -0.654
REMARK  Name = 
REMARK  4 active torsions:
REMARK  status: ('A' for Active; 'I' for Inactive)
REMARK    1  A    between atoms: C_2  and  C_4
REMARK    2  A    between atoms: N_8  and  C_9
REMARK    3  A    between atoms: C_9  and  C_10
REMARK    4  A    between atoms: C_14  and  C_15
REMARK                            x       y       z     vdW  Elec       q    Type
REMARK                         _______ _______ _______ _____ _____    ______ ____
ROOT
ATOM      1  C   UNL     1      48.948   7.858  12.760  0.00  0.00    +0.000 C 
ENDROOT
BRANCH   1   6
ATOM      2  C   UNL     1      47.739   4.656  16.626  0.00  0.00    +0.000 A 
ATOM      3  C   UNL     1      47.422   4.598  15.275  0.00  0.00    +0.000 A 
ATOM      4  C   UNL     1      47.863   5.613  14.429  0.00  0.00    +0.000 A 
ATOM      5  C   UNL     1      48.608   6.672  14.942  0.00  0.00    +0.000 A 
ATOM      6  N   UNL     1      49.145   7.664  14.174  0.00  0.00    +0.000 N 
ATOM      7  N   UNL     1      48.888   6.753  16.258  0.00  0.00    +0.000 NA
ATOM      8  C   UNL     1      48.448   5.758  17.073  0.00  0.00    +0.000 A 
ATOM      9  H   UNL     1      49.563   8.405  14.720  0.00  0.00    +0.000 HD
BRANCH   2  11
ATOM     10  N   UNL     1      48.148   3.432  18.676  0.00  0.00    +0.000 N 
ATOM     11  C   UNL     1      47.350   3.601  17.581  0.00  0.00    +0.000 C 
ATOM     12  O   UNL     1      46.337   2.931  17.422  0.00  0.00    +0.000 OA
ATOM     13  H   UNL     1      47.813   2.783  19.376  0.00  0.00    +0.000 HD
ATOM     14  H   UNL     1      48.826   4.124  18.970  0.00  0.00    +0.000 HD
ENDBRANCH   2  11
ENDBRANCH   1   6
BRANCH   1  15
ATOM     15  C   UNL     1      47.493   7.759  12.371  0.00  0.00    +0.000 A 
ATOM     16  C   UNL     1      46.635   8.851  12.529  0.00  0.00    +0.000 A 
ATOM     17  C   UNL     1      45.306   8.764  12.127  0.00  0.00    +0.000 A 
ATOM     18  C   UNL     1      44.828   7.590  11.537  0.00  0.00    +0.000 A 
ATOM     19  C   UNL     1      45.669   6.487  11.312  0.00  0.00    +0.000 A 
ATOM     20  C   UNL     1      46.996   6.586  11.773  0.00  0.00    +0.000 A 
BRANCH  19  21
ATOM     21  C   UNL     1      45.222   5.313  10.523  0.00  0.00    +0.000 A 
ATOM     22  C   UNL     1      45.661   5.134   9.195  0.00  0.00    +0.000 A 
ATOM     23  C   UNL     1      45.360   3.978   8.466  0.00  0.00    +0.000 A 
ATOM     24  C   UNL     1      44.611   2.967   9.055  0.00  0.00    +0.000 A 
ATOM     25  C   UNL     1      44.150   3.135  10.354  0.00  0.00    +0.000 A 
ATOM     26  F   UNL     1      43.439   2.155  10.928  0.00  0.00    +0.000 F 
ATOM     27  C   UNL     1      44.432   4.290  11.082  0.00  0.00    +0.000 A 
ENDBRANCH  19  21
ENDBRANCH   1  15
TORSDOF 4
ENDMDL
MODEL 7
REMARK VINA RESULT:    -6.840      5.346      8.519
REMARK INTER + INTRA:          -9.094
REMARK INTER:                  -8.420
REMARK INTRA:                  -0.674
REMARK UNBOUND:                -0.654
REMARK  Name = 
REMARK  4 active torsions:
REMARK  status: ('A' for Active; 'I' for Inactive)
REMARK    1  A    between atoms: C_2  and  C_4
REMARK    2  A    between atoms: N_8  and  C_9
REMARK    3  A    between atoms: C_9  and  C_10
REMARK    4  A    between atoms: C_14  and  C_15
REMARK                            x       y       z     vdW  Elec       q    Type
REMARK                         _______ _______ _______ _____ _____    ______ ____
ROOT
ATOM      1  C   UNL     1      47.929   4.323  16.660  0.00  0.00    +0.000 C 
ENDROOT
BRANCH   1   6
ATOM      2  C   UNL     1      52.288   1.800  17.793  0.00  0.00    +0.000 A 
ATOM      3  C   UNL     1      51.093   1.338  17.255  0.00  0.00    +0.000 A 
ATOM      4  C   UNL     1      50.046   2.235  17.058  0.00  0.00    +0.000 A 
ATOM      5  C   UNL     1      50.201   3.575  17.406  0.00  0.00    +0.000 A 
ATOM      6  N   UNL     1      49.257   4.533  17.176  0.00  0.00    +0.000 N 
ATOM      7  N   UNL     1      51.345   4.021  17.963  0.00  0.00    +0.000 NA
ATOM      8  C   UNL     1      52.358   3.135  18.152  0.00  0.00    +0.000 A 
ATOM      9  H   UNL     1      49.492   5.427  17.586  0.00  0.00    +0.000 HD
BRANCH   2  11
ATOM     10  N   UNL     1      53.219  -0.351  18.407  0.00  0.00    +0.000 N 
ATOM     11  C   UNL     1      53.461   0.927  17.991  0.00  0.00    +0.000 C 
ATOM     12  O   UNL     1      54.599   1.315  17.756  0.00  0.00    +0.000 OA
ATOM     13  H   UNL     1      54.019  -0.970  18.434  0.00  0.00    +0.000 HD
ATOM     14  H   UNL     1      52.303  -0.777  18.358  0.00  0.00    +0.000 HD
ENDBRANCH   2  11
ENDBRANCH   1   6
BRANCH   1  15
ATOM     15  C   UNL     1      47.663   5.146  15.422  0.00  0.00    +0.000 A 
ATOM     16  C   UNL     1      48.436   6.275  15.136  0.00  0.00    +0.000 A 
ATOM     17  C   UNL     1      48.212   7.002  13.971  0.00  0.00    +0.000 A 
ATOM     18  C   UNL     1      47.229   6.590  13.066  0.00  0.00    +0.000 A 
ATOM     19  C   UNL     1      46.464   5.432  13.290  0.00  0.00    +0.000 A 
ATOM     20  C   UNL     1      46.680   4.744  14.500  0.00  0.00    +0.000 A 
BRANCH  19  21
ATOM     21  C   UNL     1      45.554   4.887  12.255  0.00  0.00    +0.000 A 
ATOM     22  C   UNL     1      45.625   5.348  10.923  0.00  0.00    +0.000 A 
ATOM     23  C   UNL     1      44.869   4.768   9.899  0.00  0.00    +0.000 A 
ATOM     24  C   UNL     1      44.023   3.704  10.184  0.00  0.00    +0.000 A 
ATOM     25  C   UNL     1      43.921   3.251  11.492  0.00  0.00    +0.000 A 
ATOM     26  F   UNL     1      43.114   2.216  11.766  0.00  0.00    +0.000 F 
ATOM     27  C   UNL     1      44.658   3.833  12.523  0.00  0.00    +0.000 A 
ENDBRANCH  19  21
ENDBRANCH   1  15
TORSDOF 4
ENDMDL
MODEL 8
REMARK VINA RESULT:    -6.448      3.586      5.389
REMARK INTER + INTRA:          -8.610
REMARK INTER:                  -7.887
REMARK INTRA:                  -0.723
REMARK UNBOUND:                -0.654
REMARK  Name = 
REMARK  4 active torsions:
REMARK  status: ('A' for Active; 'I' for Inactive)
REMARK    1  A    between atoms: C_2  and  C_4
REMARK    2  A    between atoms: N_8  and  C_9
REMARK    3  A    between atoms: C_9  and  C_10
REMARK    4  A    between atoms: C_14  and  C_15
REMARK                            x       y       z     vdW  Elec       q    Type
REMARK                         _______ _______ _______ _____ _____    ______ ____
ROOT
ATOM      1  C   UNL     1      48.092   8.537  13.008  0.00  0.00    +0.000 C 
ENDROOT
BRANCH   1   6
ATOM      2  C   UNL     1      44.610   4.858  12.011  0.00  0.00    +0.000 A 
ATOM      3  C   UNL     1      45.956   4.760  12.341  0.00  0.00    +0.000 A 
ATOM      4  C   UNL     1      46.691   5.924  12.548  0.00  0.00    +0.000 A 
ATOM      5  C   UNL     1      46.078   7.168  12.417  0.00  0.00    +0.000 A 
ATOM      6  N   UNL     1      46.702   8.354  12.678  0.00  0.00    +0.000 N 
ATOM      7  N   UNL     1      44.782   7.271  12.061  0.00  0.00    +0.000 NA
ATOM      8  C   UNL     1      44.077   6.127  11.858  0.00  0.00    +0.000 A 
ATOM      9  H   UNL     1      46.143   9.158  12.430  0.00  0.00    +0.000 HD
BRANCH   2  11
ATOM     10  N   UNL     1      43.931   2.632  12.680  0.00  0.00    +0.000 N 
ATOM     11  C   UNL     1      43.749   3.676  11.819  0.00  0.00    +0.000 C 
ATOM     12  O   UNL     1      42.883   3.644  10.954  0.00  0.00    +0.000 OA
ATOM     13  H   UNL     1      43.264   1.874  12.609  0.00  0.00    +0.000 HD
ATOM     14  H   UNL     1      44.439   2.723  13.550  0.00  0.00    +0.000 HD
ENDBRANCH   2  11
ENDBRANCH   1   6
BRANCH   1  15
ATOM     15  C   UNL     1      48.361   8.318  14.477  0.00  0.00    +0.000 A 
ATOM     16  C   UNL     1      48.254   9.373  15.389  0.00  0.00    +0.000 A 
ATOM     17  C   UNL     1      48.461   9.150  16.746  0.00  0.00    +0.000 A 
ATOM     18  C   UNL     1      48.751   7.864  17.210  0.00  0.00    +0.000 A 
ATOM     19  C   UNL     1      48.817   6.766  16.335  0.00  0.00    +0.000 A 
ATOM     20  C   UNL     1      48.650   7.029  14.961  0.00  0.00    +0.000 A 
BRANCH  19  21
ATOM     21  C   UNL     1      48.939   5.376  16.836  0.00  0.00    +0.000 A 
ATOM     22  C   UNL     1      50.172   4.897  17.327  0.00  0.00    +0.000 A 
ATOM     23  C   UNL     1      50.292   3.636  17.920  0.00  0.00    +0.000 A 
ATOM     24  C   UNL     1      49.173   2.821  18.041  0.00  0.00    +0.000 A 
ATOM     25  C   UNL     1      47.955   3.265  17.543  0.00  0.00    +0.000 A 
ATOM     26  F   UNL     1      46.872   2.486  17.671  0.00  0.00    +0.000 F 
ATOM     27  C   UNL     1      47.830   4.514  16.936  0.00  0.00    +0.000 A 
ENDBRANCH  19  21
ENDBRANCH   1  15
TORSDOF 4
ENDMDL
MODEL 9
REMARK VINA RESULT:    -6.372      3.892      6.373
REMARK INTER + INTRA:          -8.517
REMARK INTER:                  -7.941
REMARK INTRA:                  -0.576
REMARK UNBOUND:                -0.654
REMARK  Name = 
REMARK  4 active torsions:
REMARK  status: ('A' for Active; 'I' for Inactive)
REMARK    1  A    between atoms: C_2  and  C_4
REMARK    2  A    between atoms: N_8  and  C_9
REMARK    3  A    between atoms: C_9  and  C_10
REMARK    4  A    between atoms: C_14  and  C_15
REMARK                            x       y       z     vdW  Elec       q    Type
REMARK                         _______ _______ _______ _____ _____    ______ ____
ROOT
ATOM      1  C   UNL     1      47.134   4.187  16.089  0.00  0.00    +0.000 C 
ENDROOT
BRANCH   1   6
ATOM      2  C   UNL     1      45.664   4.925  11.196  0.00  0.00    +0.000 A 
ATOM      3  C   UNL     1      45.552   3.806  12.011  0.00  0.00    +0.000 A 
ATOM      4  C   UNL     1      46.051   3.860  13.311  0.00  0.00    +0.000 A 
ATOM      5  C   UNL     1      46.659   5.024  13.775  0.00  0.00    +0.000 A 
ATOM      6  N   UNL     1      47.103   5.189  15.056  0.00  0.00    +0.000 N 
ATOM      7  N   UNL     1      46.803   6.100  12.977  0.00  0.00    +0.000 NA
ATOM      8  C   UNL     1      46.314   6.033  11.710  0.00  0.00    +0.000 A 
ATOM      9  H   UNL     1      47.611   6.053  15.190  0.00  0.00    +0.000 HD
BRANCH   2  11
ATOM     10  N   UNL     1      43.783   4.739   9.680  0.00  0.00    +0.000 N 
ATOM     11  C   UNL     1      45.122   4.967   9.824  0.00  0.00    +0.000 C 
ATOM     12  O   UNL     1      45.830   5.233   8.860  0.00  0.00    +0.000 OA
ATOM     13  H   UNL     1      43.405   4.878   8.752  0.00  0.00    +0.000 HD
ATOM     14  H   UNL     1      43.135   4.778  10.456  0.00  0.00    +0.000 HD
ENDBRANCH   2  11
ENDBRANCH   1   6
BRANCH   1  15
ATOM     15  C   UNL     1      48.229   4.443  17.096  0.00  0.00    +0.000 A 
ATOM     16  C   UNL     1      48.045   5.361  18.134  0.00  0.00    +0.000 A 
ATOM     17  C   UNL     1      49.043   5.558  19.082  0.00  0.00    +0.000 A 
ATOM     18  C   UNL     1      50.227   4.817  19.018  0.00  0.00    +0.000 A 
ATOM     19  C   UNL     1      50.432   3.847  18.022  0.00  0.00    +0.000 A 
ATOM     20  C   UNL     1      49.425   3.703  17.048  0.00  0.00    +0.000 A 
BRANCH  19  21
ATOM     21  C   UNL     1      51.598   2.930  18.053  0.00  0.00    +0.000 A 
ATOM     22  C   UNL     1      51.512   1.642  17.484  0.00  0.00    +0.000 A 
ATOM     23  C   UNL     1      52.625   0.802  17.385  0.00  0.00    +0.000 A 
ATOM     24  C   UNL     1      53.860   1.235  17.854  0.00  0.00    +0.000 A 
ATOM     25  C   UNL     1      53.960   2.490  18.439  0.00  0.00    +0.000 A 
ATOM     26  F   UNL     1      55.153   2.914  18.879  0.00  0.00    +0.000 F 
ATOM     27  C   UNL     1      52.852   3.328  18.555  0.00  0.00    +0.000 A 
ENDBRANCH  19  21
ENDBRANCH   1  15
TORSDOF 4
ENDMDL
