MODEL 1
REMARK VINA RESULT:    -9.023      0.000      0.000
REMARK INTER + INTRA:         -13.824
REMARK INTER:                 -12.715
REMARK INTRA:                  -1.109
REMARK UNBOUND:                -1.109
REMARK  Name = 
REMARK  7 active torsions:
REMARK  status: ('A' for Active; 'I' for Inactive)
REMARK    1  A    between atoms: C_2  and  C_4
REMARK    2  A    between atoms: C_7  and  N_8
REMARK    3  A    between atoms: N_8  and  C_9
REMARK    4  A    between atoms: C_9  and  C_10
REMARK    5  A    between atoms: C_10  and  C_13
REMARK    6  A    between atoms: C_18  and  O_19
REMARK    7  A    between atoms: O_19  and  C_20
REMARK                            x       y       z     vdW  Elec       q    Type
REMARK                         _______ _______ _______ _____ _____    ______ ____
ROOT
ATOM      1  C   UNL     1      43.971   4.610  12.611  0.00  0.00    +0.000 C 
ATOM      2  F   UNL     1      43.069   5.173  13.469  0.00  0.00    +0.000 F 
ATOM      3  F   UNL     1      43.911   3.265  12.865  0.00  0.00    +0.000 F 
ENDROOT
BRANCH   1   4
ATOM      4  C   UNL     1      45.365   5.163  12.824  0.00  0.00    +0.000 A 
ATOM      5  C   UNL     1      45.918   6.086  11.928  0.00  0.00    +0.000 A 
ATOM      6  C   UNL     1      47.192   6.602  12.165  0.00  0.00    +0.000 A 
ATOM      7  F   UNL     1      47.699   7.500  11.308  0.00  0.00    +0.000 F 
ATOM      8  C   UNL     1      47.939   6.218  13.272  0.00  0.00    +0.000 A 
ATOM      9  C   UNL     1      47.406   5.288  14.157  0.00  0.00    +0.000 A 
ATOM     10  C   UNL     1      46.127   4.766  13.934  0.00  0.00    +0.000 A 
BRANCH   9  11
ATOM     11  O   UNL     1      48.012   4.844  15.303  0.00  0.00    +0.000 OA
BRANCH  11  12
ATOM     12  C   UNL     1      47.238   4.125  16.288  0.00  0.00    +0.000 C 
ATOM     13  C   UNL     1      47.200   4.683  17.725  0.00  0.00    +0.000 C 
ATOM     14  N   UNL     1      47.646   3.389  18.260  0.00  0.00    +0.000 NA
ATOM     15  C   UNL     1      47.969   2.914  16.907  0.00  0.00    +0.000 C 
ATOM     16  H   UNL     1      46.915   2.850  18.724  0.00  0.00    +0.000 HD
ENDBRANCH  11  12
ENDBRANCH   9  11
ENDBRANCH   1   4
BRANCH   1  17
ATOM     17  C   UNL     1      43.496   4.841  11.155  0.00  0.00    +0.000 C 
BRANCH  17  18
ATOM     18  N   UNL     1      43.525   3.614  10.341  0.00  0.00    +0.000 N 
ATOM     19  H   UNL     1      43.180   2.782  10.821  0.00  0.00    +0.000 HD
BRANCH  18  23
ATOM     20  C   UNL     1      46.517   2.685   7.524  0.00  0.00    +0.000 A 
ATOM     21  C   UNL     1      46.094   4.009   7.662  0.00  0.00    +0.000 A 
ATOM     22  C   UNL     1      45.113   4.332   8.607  0.00  0.00    +0.000 A 
ATOM     23  C   UNL     1      44.560   3.360   9.447  0.00  0.00    +0.000 A 
ATOM     24  C   UNL     1      44.979   2.033   9.274  0.00  0.00    +0.000 A 
ATOM     25  C   UNL     1      45.945   1.693   8.319  0.00  0.00    +0.000 A 
BRANCH  20  27
ATOM     26  N   UNL     1      47.578   3.018   5.360  0.00  0.00    +0.000 N 
ATOM     27  C   UNL     1      47.541   2.298   6.521  0.00  0.00    +0.000 C 
ATOM     28  O   UNL     1      48.345   1.399   6.733  0.00  0.00    +0.000 OA
ATOM     29  H   UNL     1      48.353   2.821   4.741  0.00  0.00    +0.000 HD
ATOM     30  H   UNL     1      47.120   3.914   5.266  0.00  0.00    +0.000 HD
ENDBRANCH  20  27
ENDBRANCH  18  23
ENDBRANCH  17  18
ENDBRANCH   1  17
TORSDOF 7
ENDMDL
MODEL 2
REMARK VINA RESULT:    -8.024      1.631      2.144
REMARK INTER + INTRA:         -12.417
REMARK INTER:                 -11.545
REMARK INTRA:                  -0.872
REMARK UNBOUND:                -1.109
REMARK  Name = 
REMARK  7 active torsions:
REMARK  status: ('A' for Active; 'I' for Inactive)
REMARK    1  A    between atoms: C_2  and  C_4
REMARK    2  A    between atoms: C_7  and  N_8
REMARK    3  A    between atoms: N_8  and  C_9
REMARK    4  A    between atoms: C_9  and  C_10
REMARK    5  A    between atoms: C_10  and  C_13
REMARK    6  A    between atoms: C_18  and  O_19
REMARK    7  A    between atoms: O_19  and  C_20
REMARK                            x       y       z     vdW  Elec       q    Type
REMARK                         _______ _______ _______ _____ _____    ______ ____
ROOT
ATOM      1  C   UNL     1      44.872   6.594  11.417  0.00  0.00    +0.000 C 
ATOM      2  F   UNL     1      45.346   6.957  10.188  0.00  0.00    +0.000 F 
ATOM      3  F   UNL     1      43.987   7.581  11.762  0.00  0.00    +0.000 F 
ENDROOT
BRANCH   1   4
ATOM      4  C   UNL     1      45.991   6.459  12.429  0.00  0.00    +0.000 A 
ATOM      5  C   UNL     1      46.982   7.442  12.542  0.00  0.00    +0.000 A 
ATOM      6  C   UNL     1      47.984   7.306  13.502  0.00  0.00    +0.000 A 
ATOM      7  F   UNL     1      48.914   8.265  13.611  0.00  0.00    +0.000 F 
ATOM      8  C   UNL     1      48.033   6.210  14.356  0.00  0.00    +0.000 A 
ATOM      9  C   UNL     1      47.064   5.219  14.238  0.00  0.00    +0.000 A 
ATOM     10  C   UNL     1      46.051   5.346  13.281  0.00  0.00    +0.000 A 
BRANCH   9  11
ATOM     11  O   UNL     1      46.968   4.105  15.029  0.00  0.00    +0.000 OA
BRANCH  11  12
ATOM     12  C   UNL     1      47.716   4.038  16.263  0.00  0.00    +0.000 C 
ATOM     13  C   UNL     1      47.839   2.668  16.960  0.00  0.00    +0.000 C 
ATOM     14  N   UNL     1      47.315   3.236  18.210  0.00  0.00    +0.000 NA
ATOM     15  C   UNL     1      46.918   4.467  17.512  0.00  0.00    +0.000 C 
ATOM     16  H   UNL     1      48.018   3.379  18.935  0.00  0.00    +0.000 HD
ENDBRANCH  11  12
ENDBRANCH   9  11
ENDBRANCH   1   4
BRANCH   1  17
ATOM     17  C   UNL     1      44.080   5.270  11.283  0.00  0.00    +0.000 C 
BRANCH  17  18
ATOM     18  N   UNL     1      43.805   4.906   9.883  0.00  0.00    +0.000 N 
ATOM     19  H   UNL     1      42.818   4.942   9.624  0.00  0.00    +0.000 HD
BRANCH  18  23
ATOM     20  C   UNL     1      46.170   1.972   7.999  0.00  0.00    +0.000 A 
ATOM     21  C   UNL     1      45.244   1.585   8.971  0.00  0.00    +0.000 A 
ATOM     22  C   UNL     1      44.441   2.550   9.592  0.00  0.00    +0.000 A 
ATOM     23  C   UNL     1      44.519   3.901   9.240  0.00  0.00    +0.000 A 
ATOM     24  C   UNL     1      45.474   4.271   8.280  0.00  0.00    +0.000 A 
ATOM     25  C   UNL     1      46.297   3.320   7.667  0.00  0.00    +0.000 A 
BRANCH  20  27
ATOM     26  N   UNL     1      46.772  -0.339   7.533  0.00  0.00    +0.000 N 
ATOM     27  C   UNL     1      47.054   0.983   7.332  0.00  0.00    +0.000 C 
ATOM     28  O   UNL     1      47.974   1.329   6.602  0.00  0.00    +0.000 OA
ATOM     29  H   UNL     1      47.305  -0.996   6.980  0.00  0.00    +0.000 HD
ATOM     30  H   UNL     1      45.883  -0.651   7.900  0.00  0.00    +0.000 HD
ENDBRANCH  20  27
ENDBRANCH  18  23
ENDBRANCH  17  18
ENDBRANCH   1  17
TORSDOF 7
ENDMDL
MODEL 3
REMARK VINA RESULT:    -7.736      2.514      2.936
REMARK INTER + INTRA:         -12.011
REMARK INTER:                 -11.096
REMARK INTRA:                  -0.916
REMARK UNBOUND:                -1.109
REMARK  Name = 
REMARK  7 active torsions:
REMARK  status: ('A' for Active; 'I' for Inactive)
REMARK    1  A    between atoms: C_2  and  C_4
REMARK    2  A    between atoms: C_7  and  N_8
REMARK    3  A    between atoms: N_8  and  C_9
REMARK    4  A    between atoms: C_9  and  C_10
REMARK    5  A    between atoms: C_10  and  C_13
REMARK    6  A    between atoms: C_18  and  O_19
REMARK    7  A    between atoms: O_19  and  C_20
REMARK                            x       y       z     vdW  Elec       q    Type
REMARK                         _______ _______ _______ _____ _____    ______ ____
ROOT
ATOM      1  C   UNL     1      44.238   4.732  12.418  0.00  0.00    +0.000 C 
ATOM      2  F   UNL     1      43.343   4.660  13.447  0.00  0.00    +0.000 F 
ATOM      3  F   UNL     1      45.088   3.675  12.611  0.00  0.00    +0.000 F 
ENDROOT
BRANCH   1   4
ATOM      4  C   UNL     1      44.975   6.056  12.412  0.00  0.00    +0.000 A 
ATOM      5  C   UNL     1      44.481   7.152  11.693  0.00  0.00    +0.000 A 
ATOM      6  C   UNL     1      45.165   8.367  11.728  0.00  0.00    +0.000 A 
ATOM      7  F   UNL     1      44.668   9.412  11.051  0.00  0.00    +0.000 F 
ATOM      8  C   UNL     1      46.337   8.523  12.460  0.00  0.00    +0.000 A 
ATOM      9  C   UNL     1      46.845   7.436  13.161  0.00  0.00    +0.000 A 
ATOM     10  C   UNL     1      46.166   6.212  13.137  0.00  0.00    +0.000 A 
BRANCH   9  11
ATOM     11  O   UNL     1      47.966   7.452  13.947  0.00  0.00    +0.000 OA
BRANCH  11  12
ATOM     12  C   UNL     1      49.108   8.242  13.547  0.00  0.00    +0.000 C 
ATOM     13  C   UNL     1      49.903   7.785  12.308  0.00  0.00    +0.000 C 
ATOM     14  N   UNL     1      51.150   7.786  13.085  0.00  0.00    +0.000 NA
ATOM     15  C   UNL     1      50.398   7.937  14.338  0.00  0.00    +0.000 C 
ATOM     16  H   UNL     1      51.775   8.565  12.880  0.00  0.00    +0.000 HD
ENDBRANCH  11  12
ENDBRANCH   9  11
ENDBRANCH   1   4
BRANCH   1  17
ATOM     17  C   UNL     1      43.491   4.504  11.081  0.00  0.00    +0.000 C 
BRANCH  17  18
ATOM     18  N   UNL     1      43.793   3.198  10.471  0.00  0.00    +0.000 N 
ATOM     19  H   UNL     1      43.755   2.412  11.121  0.00  0.00    +0.000 HD
BRANCH  18  23
ATOM     20  C   UNL     1      46.579   2.639   7.361  0.00  0.00    +0.000 A 
ATOM     21  C   UNL     1      46.119   3.926   7.645  0.00  0.00    +0.000 A 
ATOM     22  C   UNL     1      45.206   4.127   8.687  0.00  0.00    +0.000 A 
ATOM     23  C   UNL     1      44.760   3.065   9.481  0.00  0.00    +0.000 A 
ATOM     24  C   UNL     1      45.214   1.777   9.163  0.00  0.00    +0.000 A 
ATOM     25  C   UNL     1      46.111   1.560   8.110  0.00  0.00    +0.000 A 
BRANCH  20  27
ATOM     26  N   UNL     1      47.470   3.216   5.172  0.00  0.00    +0.000 N 
ATOM     27  C   UNL     1      47.533   2.381   6.252  0.00  0.00    +0.000 C 
ATOM     28  O   UNL     1      48.366   1.486   6.312  0.00  0.00    +0.000 OA
ATOM     29  H   UNL     1      48.200   3.103   4.481  0.00  0.00    +0.000 HD
ATOM     30  H   UNL     1      46.990   4.105   5.205  0.00  0.00    +0.000 HD
ENDBRANCH  20  27
ENDBRANCH  18  23
ENDBRANCH  17  18
ENDBRANCH   1  17
TORSDOF 7
ENDMDL
MODEL 4
REMARK VINA RESULT:    -7.526      2.025      7.999
REMARK INTER + INTRA:         -11.715
REMARK INTER:                 -10.897
REMARK INTRA:                  -0.817
REMARK UNBOUND:                -1.109
REMARK  Name = 
REMARK  7 active torsions:
REMARK  status: ('A' for Active; 'I' for Inactive)
REMARK    1  A    between atoms: C_2  and  C_4
REMARK    2  A    between atoms: C_7  and  N_8
REMARK    3  A    between atoms: N_8  and  C_9
REMARK    4  A    between atoms: C_9  and  C_10
REMARK    5  A    between atoms: C_10  and  C_13
REMARK    6  A    between atoms: C_18  and  O_19
REMARK    7  A    between atoms: O_19  and  C_20
REMARK                            x       y       z     vdW  Elec       q    Type
REMARK                         _______ _______ _______ _____ _____    ______ ____
ROOT
ATOM      1  C   UNL     1      45.752   6.264  11.298  0.00  0.00    +0.000 C 
ATOM      2  F   UNL     1      45.044   7.349  10.865  0.00  0.00    +0.000 F 
ATOM      3  F   UNL     1      47.061   6.559  11.022  0.00  0.00    +0.000 F 
ENDROOT
BRANCH   1   4
ATOM      4  C   UNL     1      45.302   4.993  10.608  0.00  0.00    +0.000 A 
ATOM      5  C   UNL     1      44.516   4.048  11.279  0.00  0.00    +0.000 A 
ATOM      6  C   UNL     1      44.092   2.900  10.610  0.00  0.00    +0.000 A 
ATOM      7  F   UNL     1      43.324   2.015  11.260  0.00  0.00    +0.000 F 
ATOM      8  C   UNL     1      44.434   2.661   9.283  0.00  0.00    +0.000 A 
ATOM      9  C   UNL     1      45.229   3.584   8.614  0.00  0.00    +0.000 A 
ATOM     10  C   UNL     1      45.658   4.742   9.273  0.00  0.00    +0.000 A 
BRANCH   9  11
ATOM     11  O   UNL     1      45.615   3.497   7.303  0.00  0.00    +0.000 OA
BRANCH  11  12
ATOM     12  C   UNL     1      47.003   3.257   6.980  0.00  0.00    +0.000 C 
ATOM     13  C   UNL     1      47.357   2.925   5.517  0.00  0.00    +0.000 C 
ATOM     14  N   UNL     1      48.046   1.699   5.942  0.00  0.00    +0.000 NA
ATOM     15  C   UNL     1      47.488   1.827   7.296  0.00  0.00    +0.000 C 
ATOM     16  H   UNL     1      49.063   1.753   5.906  0.00  0.00    +0.000 HD
ENDBRANCH  11  12
ENDBRANCH   9  11
ENDBRANCH   1   4
BRANCH   1  17
ATOM     17  C   UNL     1      45.605   6.145  12.835  0.00  0.00    +0.000 C 
BRANCH  17  18
ATOM     18  N   UNL     1      46.839   6.494  13.558  0.00  0.00    +0.000 N 
ATOM     19  H   UNL     1      47.539   6.972  12.989  0.00  0.00    +0.000 HD
BRANCH  18  23
ATOM     20  C   UNL     1      48.405   4.099  16.650  0.00  0.00    +0.000 A 
ATOM     21  C   UNL     1      47.463   3.556  15.773  0.00  0.00    +0.000 A 
ATOM     22  C   UNL     1      46.948   4.337  14.732  0.00  0.00    +0.000 A 
ATOM     23  C   UNL     1      47.379   5.652  14.524  0.00  0.00    +0.000 A 
ATOM     24  C   UNL     1      48.305   6.186  15.431  0.00  0.00    +0.000 A 
ATOM     25  C   UNL     1      48.812   5.423  16.489  0.00  0.00    +0.000 A 
BRANCH  20  27
ATOM     26  N   UNL     1      48.316   3.406  18.981  0.00  0.00    +0.000 N 
ATOM     27  C   UNL     1      48.960   3.310  17.779  0.00  0.00    +0.000 C 
ATOM     28  O   UNL     1      49.929   2.575  17.638  0.00  0.00    +0.000 OA
ATOM     29  H   UNL     1      48.632   2.776  19.705  0.00  0.00    +0.000 HD
ATOM     30  H   UNL     1      47.382   3.782  19.063  0.00  0.00    +0.000 HD
ENDBRANCH  20  27
ENDBRANCH  18  23
ENDBRANCH  17  18
ENDBRANCH   1  17
TORSDOF 7
ENDMDL
MODEL 5
REMARK VINA RESULT:    -7.424      1.604      1.945
REMARK INTER + INTRA:         -11.571
REMARK INTER:                 -10.655
REMARK INTRA:                  -0.916
REMARK UNBOUND:                -1.109
REMARK  Name = 
REMARK  7 active torsions:
REMARK  status: ('A' for Active; 'I' for Inactive)
REMARK    1  A    between atoms: C_2  and  C_4
REMARK    2  A    between atoms: C_7  and  N_8
REMARK    3  A    between atoms: N_8  and  C_9
REMARK    4  A    between atoms: C_9  and  C_10
REMARK    5  A    between atoms: C_10  and  C_13
REMARK    6  A    between atoms: C_18  and  O_19
REMARK    7  A    between atoms: O_19  and  C_20
REMARK                            x       y       z     vdW  Elec       q    Type
REMARK                         _______ _______ _______ _____ _____    ______ ____
ROOT
ATOM      1  C   UNL     1      45.063   4.424  12.632  0.00  0.00    +0.000 C 
ATOM      2  F   UNL     1      44.286   4.357  13.753  0.00  0.00    +0.000 F 
ATOM      3  F   UNL     1      45.448   3.132  12.387  0.00  0.00    +0.000 F 
ENDROOT
BRANCH   1   4
ATOM      4  C   UNL     1      46.254   5.340  12.832  0.00  0.00    +0.000 A 
ATOM      5  C   UNL     1      46.526   6.376  11.931  0.00  0.00    +0.000 A 
ATOM      6  C   UNL     1      47.611   7.222  12.157  0.00  0.00    +0.000 A 
ATOM      7  F   UNL     1      47.846   8.222  11.296  0.00  0.00    +0.000 F 
ATOM      8  C   UNL     1      48.445   7.061  13.258  0.00  0.00    +0.000 A 
ATOM      9  C   UNL     1      48.194   6.023  14.148  0.00  0.00    +0.000 A 
ATOM     10  C   UNL     1      47.105   5.170  13.936  0.00  0.00    +0.000 A 
BRANCH   9  11
ATOM     11  O   UNL     1      48.908   5.765  15.289  0.00  0.00    +0.000 OA
BRANCH  11  12
ATOM     12  C   UNL     1      48.628   6.516  16.491  0.00  0.00    +0.000 C 
ATOM     13  C   UNL     1      49.625   7.618  16.902  0.00  0.00    +0.000 C 
ATOM     14  N   UNL     1      49.767   7.018  18.236  0.00  0.00    +0.000 NA
ATOM     15  C   UNL     1      49.059   5.809  17.794  0.00  0.00    +0.000 C 
ATOM     16  H   UNL     1      49.292   7.527  18.981  0.00  0.00    +0.000 HD
ENDBRANCH  11  12
ENDBRANCH   9  11
ENDBRANCH   1   4
BRANCH   1  17
ATOM     17  C   UNL     1      44.193   4.895  11.440  0.00  0.00    +0.000 C 
BRANCH  17  18
ATOM     18  N   UNL     1      43.819   3.796  10.535  0.00  0.00    +0.000 N 
ATOM     19  H   UNL     1      43.361   3.009  10.995  0.00  0.00    +0.000 HD
BRANCH  18  23
ATOM     20  C   UNL     1      46.430   2.842   7.370  0.00  0.00    +0.000 A 
ATOM     21  C   UNL     1      45.966   1.824   8.206  0.00  0.00    +0.000 A 
ATOM     22  C   UNL     1      45.085   2.126   9.250  0.00  0.00    +0.000 A 
ATOM     23  C   UNL     1      44.626   3.430   9.464  0.00  0.00    +0.000 A 
ATOM     24  C   UNL     1      45.125   4.442   8.629  0.00  0.00    +0.000 A 
ATOM     25  C   UNL     1      46.023   4.156   7.594  0.00  0.00    +0.000 A 
BRANCH  20  27
ATOM     26  N   UNL     1      48.543   1.924   6.587  0.00  0.00    +0.000 N 
ATOM     27  C   UNL     1      47.381   2.565   6.263  0.00  0.00    +0.000 C 
ATOM     28  O   UNL     1      47.125   2.862   5.103  0.00  0.00    +0.000 OA
ATOM     29  H   UNL     1      49.124   1.638   5.811  0.00  0.00    +0.000 HD
ATOM     30  H   UNL     1      48.664   1.438   7.465  0.00  0.00    +0.000 HD
ENDBRANCH  20  27
ENDBRANCH  18  23
ENDBRANCH  17  18
ENDBRANCH   1  17
TORSDOF 7
ENDMDL
MODEL 6
REMARK VINA RESULT:    -7.004      2.775      3.895
REMARK INTER + INTRA:         -10.978
REMARK INTER:                 -10.131
REMARK INTRA:                  -0.848
REMARK UNBOUND:                -1.109
REMARK  Name = 
REMARK  7 active torsions:
REMARK  status: ('A' for Active; 'I' for Inactive)
REMARK    1  A    between atoms: C_2  and  C_4
REMARK    2  A    between atoms: C_7  and  N_8
REMARK    3  A    between atoms: N_8  and  C_9
REMARK    4  A    between atoms: C_9  and  C_10
REMARK    5  A    between atoms: C_10  and  C_13
REMARK    6  A    between atoms: C_18  and  O_19
REMARK    7  A    between atoms: O_19  and  C_20
REMARK                            x       y       z     vdW  Elec       q    Type
REMARK                         _______ _______ _______ _____ _____    ______ ____
ROOT
ATOM      1  C   UNL     1      45.125   5.317  12.611  0.00  0.00    +0.000 C 
ATOM      2  F   UNL     1      43.977   5.694  13.248  0.00  0.00    +0.000 F 
ATOM      3  F   UNL     1      45.063   3.950  12.545  0.00  0.00    +0.000 F 
ENDROOT
BRANCH   1   4
ATOM      4  C   UNL     1      46.357   5.792  13.354  0.00  0.00    +0.000 A 
ATOM      5  C   UNL     1      46.836   5.099  14.473  0.00  0.00    +0.000 A 
ATOM      6  C   UNL     1      47.989   5.542  15.119  0.00  0.00    +0.000 A 
ATOM      7  F   UNL     1      48.445   4.857  16.177  0.00  0.00    +0.000 F 
ATOM      8  C   UNL     1      48.682   6.666  14.685  0.00  0.00    +0.000 A 
ATOM      9  C   UNL     1      48.204   7.372  13.587  0.00  0.00    +0.000 A 
ATOM     10  C   UNL     1      47.050   6.935  12.926  0.00  0.00    +0.000 A 
BRANCH   9  11
ATOM     11  O   UNL     1      48.800   8.473  13.030  0.00  0.00    +0.000 OA
BRANCH  11  12
ATOM     12  C   UNL     1      50.209   8.440  12.715  0.00  0.00    +0.000 C 
ATOM     13  C   UNL     1      50.873   9.748  12.238  0.00  0.00    +0.000 C 
ATOM     14  N   UNL     1      51.377   9.075  11.033  0.00  0.00    +0.000 NA
ATOM     15  C   UNL     1      50.530   7.905  11.303  0.00  0.00    +0.000 C 
ATOM     16  H   UNL     1      52.377   8.875  11.049  0.00  0.00    +0.000 HD
ENDBRANCH  11  12
ENDBRANCH   9  11
ENDBRANCH   1   4
BRANCH   1  17
ATOM     17  C   UNL     1      45.103   5.864  11.162  0.00  0.00    +0.000 C 
BRANCH  17  18
ATOM     18  N   UNL     1      44.349   5.002  10.236  0.00  0.00    +0.000 N 
ATOM     19  H   UNL     1      43.496   4.605  10.631  0.00  0.00    +0.000 HD
BRANCH  18  23
ATOM     20  C   UNL     1      46.515   2.560   7.573  0.00  0.00    +0.000 A 
ATOM     21  C   UNL     1      45.670   1.966   8.514  0.00  0.00    +0.000 A 
ATOM     22  C   UNL     1      44.933   2.768   9.393  0.00  0.00    +0.000 A 
ATOM     23  C   UNL     1      44.995   4.165   9.334  0.00  0.00    +0.000 A 
ATOM     24  C   UNL     1      45.869   4.740   8.399  0.00  0.00    +0.000 A 
ATOM     25  C   UNL     1      46.628   3.949   7.528  0.00  0.00    +0.000 A 
BRANCH  20  27
ATOM     26  N   UNL     1      48.139   2.419   5.766  0.00  0.00    +0.000 N 
ATOM     27  C   UNL     1      47.329   1.744   6.636  0.00  0.00    +0.000 C 
ATOM     28  O   UNL     1      47.308   0.520   6.660  0.00  0.00    +0.000 OA
ATOM     29  H   UNL     1      48.772   1.853   5.219  0.00  0.00    +0.000 HD
ATOM     30  H   UNL     1      48.376   3.393   5.896  0.00  0.00    +0.000 HD
ENDBRANCH  20  27
ENDBRANCH  18  23
ENDBRANCH  17  18
ENDBRANCH   1  17
TORSDOF 7
ENDMDL
MODEL 7
REMARK VINA RESULT:    -6.673      3.242      4.729
REMARK INTER + INTRA:         -10.512
REMARK INTER:                  -9.318
REMARK INTRA:                  -1.194
REMARK UNBOUND:                -1.109
REMARK  Name = 
REMARK  7 active torsions:
REMARK  status: ('A' for Active; 'I' for Inactive)
REMARK    1  A    between atoms: C_2  and  C_4
REMARK    2  A    between atoms: C_7  and  N_8
REMARK    3  A    between atoms: N_8  and  C_9
REMARK    4  A    between atoms: C_9  and  C_10
REMARK    5  A    between atoms: C_10  and  C_13
REMARK    6  A    between atoms: C_18  and  O_19
REMARK    7  A    between atoms: O_19  and  C_20
REMARK                            x       y       z     vdW  Elec       q    Type
REMARK                         _______ _______ _______ _____ _____    ______ ____
ROOT
ATOM      1  C   UNL     1      47.775   8.206  12.430  0.00  0.00    +0.000 C 
ATOM      2  F   UNL     1      47.915   7.040  11.732  0.00  0.00    +0.000 F 
ATOM      3  F   UNL     1      48.591   9.102  11.791  0.00  0.00    +0.000 F 
ENDROOT
BRANCH   1   4
ATOM      4  C   UNL     1      48.156   8.033  13.886  0.00  0.00    +0.000 A 
ATOM      5  C   UNL     1      48.164   9.124  14.763  0.00  0.00    +0.000 A 
ATOM      6  C   UNL     1      48.490   8.931  16.105  0.00  0.00    +0.000 A 
ATOM      7  F   UNL     1      48.473   9.983  16.936  0.00  0.00    +0.000 F 
ATOM      8  C   UNL     1      48.817   7.675  16.602  0.00  0.00    +0.000 A 
ATOM      9  C   UNL     1      48.830   6.588  15.735  0.00  0.00    +0.000 A 
ATOM     10  C   UNL     1      48.501   6.768  14.387  0.00  0.00    +0.000 A 
BRANCH   9  11
ATOM     11  O   UNL     1      49.099   5.292  16.090  0.00  0.00    +0.000 OA
BRANCH  11  12
ATOM     12  C   UNL     1      48.613   4.781  17.351  0.00  0.00    +0.000 C 
ATOM     13  C   UNL     1      48.961   3.325  17.722  0.00  0.00    +0.000 C 
ATOM     14  N   UNL     1      47.539   3.020  17.933  0.00  0.00    +0.000 NA
ATOM     15  C   UNL     1      47.149   4.295  17.315  0.00  0.00    +0.000 C 
ATOM     16  H   UNL     1      47.267   2.934  18.912  0.00  0.00    +0.000 HD
ENDBRANCH  11  12
ENDBRANCH   9  11
ENDBRANCH   1   4
BRANCH   1  17
ATOM     17  C   UNL     1      46.316   8.707  12.291  0.00  0.00    +0.000 C 
BRANCH  17  18
ATOM     18  N   UNL     1      45.363   7.922  13.092  0.00  0.00    +0.000 N 
ATOM     19  H   UNL     1      45.477   8.023  14.102  0.00  0.00    +0.000 HD
BRANCH  18  23
ATOM     20  C   UNL     1      44.222   4.120  11.681  0.00  0.00    +0.000 A 
ATOM     21  C   UNL     1      44.980   4.218  12.849  0.00  0.00    +0.000 A 
ATOM     22  C   UNL     1      45.351   5.476  13.337  0.00  0.00    +0.000 A 
ATOM     23  C   UNL     1      44.952   6.654  12.697  0.00  0.00    +0.000 A 
ATOM     24  C   UNL     1      44.213   6.533  11.510  0.00  0.00    +0.000 A 
ATOM     25  C   UNL     1      43.853   5.280  11.000  0.00  0.00    +0.000 A 
BRANCH  20  27
ATOM     26  N   UNL     1      44.565   2.324  10.076  0.00  0.00    +0.000 N 
ATOM     27  C   UNL     1      43.824   2.804  11.120  0.00  0.00    +0.000 C 
ATOM     28  O   UNL     1      42.900   2.154  11.590  0.00  0.00    +0.000 OA
ATOM     29  H   UNL     1      44.359   1.379   9.783  0.00  0.00    +0.000 HD
ATOM     30  H   UNL     1      45.475   2.697   9.843  0.00  0.00    +0.000 HD
ENDBRANCH  20  27
ENDBRANCH  18  23
ENDBRANCH  17  18
ENDBRANCH   1  17
TORSDOF 7
ENDMDL
MODEL 8
REMARK VINA RESULT:    -6.390      3.081      7.831
REMARK INTER + INTRA:         -10.114
REMARK INTER:                  -9.484
REMARK INTRA:                  -0.631
REMARK UNBOUND:                -1.109
REMARK  Name = 
REMARK  7 active torsions:
REMARK  status: ('A' for Active; 'I' for Inactive)
REMARK    1  A    between atoms: C_2  and  C_4
REMARK    2  A    between atoms: C_7  and  N_8
REMARK    3  A    between atoms: N_8  and  C_9
REMARK    4  A    between atoms: C_9  and  C_10
REMARK    5  A    between atoms: C_10  and  C_13
REMARK    6  A    between atoms: C_18  and  O_19
REMARK    7  A    between atoms: O_19  and  C_20
REMARK                            x       y       z     vdW  Elec       q    Type
REMARK                         _______ _______ _______ _____ _____    ______ ____
ROOT
ATOM      1  C   UNL     1      45.354   6.156  11.275  0.00  0.00    +0.000 C 
ATOM      2  F   UNL     1      44.209   6.865  11.504  0.00  0.00    +0.000 F 
ATOM      3  F   UNL     1      46.163   7.004  10.566  0.00  0.00    +0.000 F 
ENDROOT
BRANCH   1   4
ATOM      4  C   UNL     1      45.075   4.875  10.515  0.00  0.00    +0.000 A 
ATOM      5  C   UNL     1      44.379   3.819  11.115  0.00  0.00    +0.000 A 
ATOM      6  C   UNL     1      44.110   2.663  10.383  0.00  0.00    +0.000 A 
ATOM      7  F   UNL     1      43.425   1.669  10.965  0.00  0.00    +0.000 F 
ATOM      8  C   UNL     1      44.522   2.524   9.062  0.00  0.00    +0.000 A 
ATOM      9  C   UNL     1      45.230   3.560   8.464  0.00  0.00    +0.000 A 
ATOM     10  C   UNL     1      45.503   4.727   9.187  0.00  0.00    +0.000 A 
BRANCH   9  11
ATOM     11  O   UNL     1      45.668   3.577   7.166  0.00  0.00    +0.000 OA
BRANCH  11  12
ATOM     12  C   UNL     1      47.060   3.321   6.878  0.00  0.00    +0.000 C 
ATOM     13  C   UNL     1      47.439   2.927   5.436  0.00  0.00    +0.000 C 
ATOM     14  N   UNL     1      48.118   1.719   5.925  0.00  0.00    +0.000 NA
ATOM     15  C   UNL     1      47.537   1.904   7.262  0.00  0.00    +0.000 C 
ATOM     16  H   UNL     1      49.136   1.769   5.904  0.00  0.00    +0.000 HD
ENDBRANCH  11  12
ENDBRANCH   9  11
ENDBRANCH   1   4
BRANCH   1  17
ATOM     17  C   UNL     1      46.045   5.860  12.630  0.00  0.00    +0.000 C 
BRANCH  17  18
ATOM     18  N   UNL     1      46.455   7.082  13.342  0.00  0.00    +0.000 N 
ATOM     19  H   UNL     1      45.834   7.880  13.202  0.00  0.00    +0.000 HD
BRANCH  18  23
ATOM     20  C   UNL     1      50.489   8.277  13.562  0.00  0.00    +0.000 A 
ATOM     21  C   UNL     1      49.663   8.447  14.675  0.00  0.00    +0.000 A 
ATOM     22  C   UNL     1      48.325   8.038  14.619  0.00  0.00    +0.000 A 
ATOM     23  C   UNL     1      47.795   7.429  13.477  0.00  0.00    +0.000 A 
ATOM     24  C   UNL     1      48.634   7.292  12.362  0.00  0.00    +0.000 A 
ATOM     25  C   UNL     1      49.968   7.715  12.397  0.00  0.00    +0.000 A 
BRANCH  20  27
ATOM     26  N   UNL     1      52.856   7.745  13.744  0.00  0.00    +0.000 N 
ATOM     27  C   UNL     1      51.908   8.715  13.574  0.00  0.00    +0.000 C 
ATOM     28  O   UNL     1      52.224   9.885  13.402  0.00  0.00    +0.000 OA
ATOM     29  H   UNL     1      53.817   8.040  13.631  0.00  0.00    +0.000 HD
ATOM     30  H   UNL     1      52.651   6.763  13.622  0.00  0.00    +0.000 HD
ENDBRANCH  20  27
ENDBRANCH  18  23
ENDBRANCH  17  18
ENDBRANCH   1  17
TORSDOF 7
ENDMDL
MODEL 9
REMARK VINA RESULT:    -6.073      4.196      5.748
REMARK INTER + INTRA:          -9.668
REMARK INTER:                  -8.588
REMARK INTRA:                  -1.080
REMARK UNBOUND:                -1.109
REMARK  Name = 
REMARK  7 active torsions:
REMARK  status: ('A' for Active; 'I' for Inactive)
REMARK    1  A    between atoms: C_2  and  C_4
REMARK    2  A    between atoms: C_7  and  N_8
REMARK    3  A    between atoms: N_8  and  C_9
REMARK    4  A    between atoms: C_9  and  C_10
REMARK    5  A    between atoms: C_10  and  C_13
REMARK    6  A    between atoms: C_18  and  O_19
REMARK    7  A    between atoms: O_19  and  C_20
REMARK                            x       y       z     vdW  Elec       q    Type
REMARK                         _______ _______ _______ _____ _____    ______ ____
ROOT
ATOM      1  C   UNL     1      48.942   8.615  14.379  0.00  0.00    +0.000 C 
ATOM      2  F   UNL     1      49.883   9.604  14.352  0.00  0.00    +0.000 F 
ATOM      3  F   UNL     1      47.760   9.239  14.081  0.00  0.00    +0.000 F 
ENDROOT
BRANCH   1   4
ATOM      4  C   UNL     1      48.894   7.929  15.730  0.00  0.00    +0.000 A 
ATOM      5  C   UNL     1      48.448   8.610  16.868  0.00  0.00    +0.000 A 
ATOM      6  C   UNL     1      48.386   7.945  18.092  0.00  0.00    +0.000 A 
ATOM      7  F   UNL     1      47.938   8.606  19.169  0.00  0.00    +0.000 F 
ATOM      8  C   UNL     1      48.763   6.613  18.219  0.00  0.00    +0.000 A 
ATOM      9  C   UNL     1      49.225   5.933  17.097  0.00  0.00    +0.000 A 
ATOM     10  C   UNL     1      49.288   6.588  15.862  0.00  0.00    +0.000 A 
BRANCH   9  11
ATOM     11  O   UNL     1      49.598   4.616  17.066  0.00  0.00    +0.000 OA
BRANCH  11  12
ATOM     12  C   UNL     1      48.603   3.598  16.818  0.00  0.00    +0.000 C 
ATOM     13  C   UNL     1      47.136   4.046  16.657  0.00  0.00    +0.000 C 
ATOM     14  N   UNL     1      46.715   3.107  17.707  0.00  0.00    +0.000 NA
ATOM     15  C   UNL     1      48.114   2.867  18.086  0.00  0.00    +0.000 C 
ATOM     16  H   UNL     1      46.231   2.279  17.362  0.00  0.00    +0.000 HD
ENDBRANCH  11  12
ENDBRANCH   9  11
ENDBRANCH   1   4
BRANCH   1  17
ATOM     17  C   UNL     1      49.243   7.599  13.249  0.00  0.00    +0.000 C 
BRANCH  17  18
ATOM     18  N   UNL     1      48.215   7.594  12.196  0.00  0.00    +0.000 N 
ATOM     19  H   UNL     1      48.005   8.514  11.807  0.00  0.00    +0.000 HD
BRANCH  18  23
ATOM     20  C   UNL     1      44.881   5.053  12.622  0.00  0.00    +0.000 A 
ATOM     21  C   UNL     1      44.793   6.163  11.780  0.00  0.00    +0.000 A 
ATOM     22  C   UNL     1      45.900   7.005  11.617  0.00  0.00    +0.000 A 
ATOM     23  C   UNL     1      47.115   6.745  12.258  0.00  0.00    +0.000 A 
ATOM     24  C   UNL     1      47.175   5.640  13.120  0.00  0.00    +0.000 A 
ATOM     25  C   UNL     1      46.069   4.802  13.308  0.00  0.00    +0.000 A 
BRANCH  20  27
ATOM     26  N   UNL     1      43.922   2.817  12.588  0.00  0.00    +0.000 N 
ATOM     27  C   UNL     1      43.725   4.146  12.837  0.00  0.00    +0.000 C 
ATOM     28  O   UNL     1      42.651   4.559  13.255  0.00  0.00    +0.000 OA
ATOM     29  H   UNL     1      43.166   2.200  12.851  0.00  0.00    +0.000 HD
ATOM     30  H   UNL     1      44.846   2.416  12.504  0.00  0.00    +0.000 HD
ENDBRANCH  20  27
ENDBRANCH  18  23
ENDBRANCH  17  18
ENDBRANCH   1  17
TORSDOF 7
ENDMDL
