MODEL 1
REMARK VINA RESULT:    -8.812      0.000      0.000
REMARK INTER + INTRA:         -13.486
REMARK INTER:                 -12.676
REMARK INTRA:                  -0.810
REMARK UNBOUND:                -0.810
REMARK  Name = 
REMARK  9 active torsions:
REMARK  status: ('A' for Active; 'I' for Inactive)
REMARK    1  A    between atoms: C_1  and  C_2
REMARK    2  A    between atoms: C_2  and  C_3
REMARK    3  A    between atoms: C_3  and  N_4
REMARK    4  A    between atoms: C_3  and  C_17
REMARK    5  A    between atoms: C_5  and  C_7
REMARK    6  A    between atoms: C_20  and  C_21
REMARK    7  A    between atoms: C_21  and  C_22
REMARK    8  A    between atoms: C_22  and  O_23
REMARK    9  A    between atoms: C_22  and  C_24
REMARK                            x       y       z     vdW  Elec       q    Type
REMARK                         _______ _______ _______ _____ _____    ______ ____
ROOT
ATOM      1  C   UNL     1      46.632   8.097  13.116  0.00  0.00    +0.000 C 
ENDROOT
BRANCH   1   2
ATOM      2  C   UNL     1      46.119   6.901  12.338  0.00  0.00    +0.000 A 
ATOM      3  C   UNL     1      45.093   6.115  12.859  0.00  0.00    +0.000 A 
ATOM      4  C   UNL     1      44.474   5.158  12.060  0.00  0.00    +0.000 A 
ATOM      5  C   UNL     1      44.902   4.995  10.744  0.00  0.00    +0.000 A 
ATOM      6  N   UNL     1      45.950   5.688  10.237  0.00  0.00    +0.000 NA
ATOM      7  C   UNL     1      46.529   6.616  11.036  0.00  0.00    +0.000 A 
BRANCH   5   8
ATOM      8  C   UNL     1      44.180   4.052   9.808  0.00  0.00    +0.000 C 
BRANCH   8   9
ATOM      9  C   UNL     1      44.827   2.653   9.754  0.00  0.00    +0.000 C 
BRANCH   9  10
ATOM     10  C   UNL     1      45.665   2.406   8.507  0.00  0.00    +0.000 A 
ATOM     11  C   UNL     1      45.782   3.422   7.556  0.00  0.00    +0.000 A 
ATOM     12  C   UNL     1      46.551   3.205   6.415  0.00  0.00    +0.000 A 
ATOM     13  C   UNL     1      47.186   1.980   6.252  0.00  0.00    +0.000 A 
ATOM     14  C   UNL     1      47.024   1.027   7.237  0.00  0.00    +0.000 A 
ATOM     15  N   UNL     1      46.282   1.207   8.356  0.00  0.00    +0.000 NA
ENDBRANCH   9  10
BRANCH   9  16
ATOM     16  O   UNL     1      43.831   1.622   9.834  0.00  0.00    +0.000 OA
ATOM     17  H   UNL     1      43.262   1.846  10.591  0.00  0.00    +0.000 HD
ENDBRANCH   9  16
ENDBRANCH   8   9
ENDBRANCH   5   8
ENDBRANCH   1   2
BRANCH   1  18
ATOM     18  N   UNL     1      47.275   7.667  14.343  0.00  0.00    +0.000 N 
ATOM     19  C   UNL     1      48.323   6.781  14.390  0.00  0.00    +0.000 C 
ATOM     20  O   UNL     1      48.907   6.382  13.388  0.00  0.00    +0.000 OA
ATOM     21  H   UNL     1      46.741   7.809  15.191  0.00  0.00    +0.000 HD
BRANCH  19  22
ATOM     22  C   UNL     1      48.725   6.359  15.739  0.00  0.00    +0.000 A 
ATOM     23  C   UNL     1      49.634   7.098  16.481  0.00  0.00    +0.000 A 
ATOM     24  S   UNL     1      49.958   6.422  18.019  0.00  0.00    +0.000 S 
ATOM     25  C   UNL     1      48.946   5.088  17.713  0.00  0.00    +0.000 A 
ATOM     26  N   UNL     1      48.817   4.078  18.610  0.00  0.00    +0.000 NA
ATOM     27  C   UNL     1      48.054   3.110  18.220  0.00  0.00    +0.000 A 
ATOM     28  N   UNL     1      47.391   3.074  17.022  0.00  0.00    +0.000 N 
ATOM     29  C   UNL     1      47.421   4.111  16.121  0.00  0.00    +0.000 A 
ATOM     30  O   UNL     1      46.702   4.109  15.129  0.00  0.00    +0.000 OA
ATOM     31  C   UNL     1      48.323   5.189  16.483  0.00  0.00    +0.000 A 
ATOM     32  H   UNL     1      46.772   2.310  16.796  0.00  0.00    +0.000 HD
ENDBRANCH  19  22
ENDBRANCH   1  18
BRANCH   1  34
ATOM     33  C   UNL     1      47.086  10.364  12.017  0.00  0.00    +0.000 C 
ATOM     34  C   UNL     1      47.589   8.940  12.245  0.00  0.00    +0.000 C 
ENDBRANCH   1  34
TORSDOF 8
ENDMDL
MODEL 2
REMARK VINA RESULT:    -8.343      1.361      1.526
REMARK INTER + INTRA:         -12.811
REMARK INTER:                 -11.241
REMARK INTRA:                  -1.570
REMARK UNBOUND:                -0.810
REMARK  Name = 
REMARK  9 active torsions:
REMARK  status: ('A' for Active; 'I' for Inactive)
REMARK    1  A    between atoms: C_1  and  C_2
REMARK    2  A    between atoms: C_2  and  C_3
REMARK    3  A    between atoms: C_3  and  N_4
REMARK    4  A    between atoms: C_3  and  C_17
REMARK    5  A    between atoms: C_5  and  C_7
REMARK    6  A    between atoms: C_20  and  C_21
REMARK    7  A    between atoms: C_21  and  C_22
REMARK    8  A    between atoms: C_22  and  O_23
REMARK    9  A    between atoms: C_22  and  C_24
REMARK                            x       y       z     vdW  Elec       q    Type
REMARK                         _______ _______ _______ _____ _____    ______ ____
ROOT
ATOM      1  C   UNL     1      47.387   7.766  13.630  0.00  0.00    +0.000 C 
ENDROOT
BRANCH   1   2
ATOM      2  C   UNL     1      46.386   6.902  12.886  0.00  0.00    +0.000 A 
ATOM      3  C   UNL     1      45.505   7.481  11.974  0.00  0.00    +0.000 A 
ATOM      4  C   UNL     1      44.743   6.675  11.134  0.00  0.00    +0.000 A 
ATOM      5  C   UNL     1      44.867   5.291  11.228  0.00  0.00    +0.000 A 
ATOM      6  N   UNL     1      45.654   4.700  12.160  0.00  0.00    +0.000 NA
ATOM      7  C   UNL     1      46.388   5.510  12.959  0.00  0.00    +0.000 A 
BRANCH   5   8
ATOM      8  C   UNL     1      44.147   4.383  10.257  0.00  0.00    +0.000 C 
BRANCH   8   9
ATOM      9  C   UNL     1      44.771   2.974  10.182  0.00  0.00    +0.000 C 
BRANCH   9  10
ATOM     10  C   UNL     1      45.536   2.703   8.893  0.00  0.00    +0.000 A 
ATOM     11  C   UNL     1      45.731   3.748   7.987  0.00  0.00    +0.000 A 
ATOM     12  C   UNL     1      46.433   3.509   6.809  0.00  0.00    +0.000 A 
ATOM     13  C   UNL     1      46.925   2.233   6.563  0.00  0.00    +0.000 A 
ATOM     14  C   UNL     1      46.692   1.253   7.507  0.00  0.00    +0.000 A 
ATOM     15  N   UNL     1      46.012   1.454   8.661  0.00  0.00    +0.000 NA
ENDBRANCH   9  10
BRANCH   9  16
ATOM     16  O   UNL     1      43.767   1.958  10.327  0.00  0.00    +0.000 OA
ATOM     17  H   UNL     1      43.004   2.384  10.755  0.00  0.00    +0.000 HD
ENDBRANCH   9  16
ENDBRANCH   8   9
ENDBRANCH   5   8
ENDBRANCH   1   2
BRANCH   1  18
ATOM     18  N   UNL     1      48.199   6.953  14.516  0.00  0.00    +0.000 N 
ATOM     19  C   UNL     1      48.659   7.377  15.738  0.00  0.00    +0.000 C 
ATOM     20  O   UNL     1      48.306   8.430  16.258  0.00  0.00    +0.000 OA
ATOM     21  H   UNL     1      48.668   6.168  14.083  0.00  0.00    +0.000 HD
BRANCH  19  22
ATOM     22  C   UNL     1      49.594   6.461  16.405  0.00  0.00    +0.000 A 
ATOM     23  C   UNL     1      50.888   6.854  16.714  0.00  0.00    +0.000 A 
ATOM     24  S   UNL     1      51.801   5.631  17.486  0.00  0.00    +0.000 S 
ATOM     25  C   UNL     1      50.518   4.518  17.371  0.00  0.00    +0.000 A 
ATOM     26  N   UNL     1      50.655   3.235  17.793  0.00  0.00    +0.000 NA
ATOM     27  C   UNL     1      49.614   2.493  17.597  0.00  0.00    +0.000 A 
ATOM     28  N   UNL     1      48.442   2.927  17.037  0.00  0.00    +0.000 N 
ATOM     29  C   UNL     1      48.227   4.234  16.675  0.00  0.00    +0.000 A 
ATOM     30  O   UNL     1      47.120   4.618  16.315  0.00  0.00    +0.000 OA
ATOM     31  C   UNL     1      49.392   5.090  16.809  0.00  0.00    +0.000 A 
ATOM     32  H   UNL     1      47.649   2.309  16.953  0.00  0.00    +0.000 HD
ENDBRANCH  19  22
ENDBRANCH   1  18
BRANCH   1  34
ATOM     33  C   UNL     1      49.232   7.673  11.858  0.00  0.00    +0.000 C 
ATOM     34  C   UNL     1      48.261   8.560  12.635  0.00  0.00    +0.000 C 
ENDBRANCH   1  34
TORSDOF 8
ENDMDL
MODEL 3
REMARK VINA RESULT:    -8.086      2.704      4.317
REMARK INTER + INTRA:         -12.440
REMARK INTER:                 -11.090
REMARK INTRA:                  -1.350
REMARK UNBOUND:                -0.810
REMARK  Name = 
REMARK  9 active torsions:
REMARK  status: ('A' for Active; 'I' for Inactive)
REMARK    1  A    between atoms: C_1  and  C_2
REMARK    2  A    between atoms: C_2  and  C_3
REMARK    3  A    between atoms: C_3  and  N_4
REMARK    4  A    between atoms: C_3  and  C_17
REMARK    5  A    between atoms: C_5  and  C_7
REMARK    6  A    between atoms: C_20  and  C_21
REMARK    7  A    between atoms: C_21  and  C_22
REMARK    8  A    between atoms: C_22  and  O_23
REMARK    9  A    between atoms: C_22  and  C_24
REMARK                            x       y       z     vdW  Elec       q    Type
REMARK                         _______ _______ _______ _____ _____    ______ ____
ROOT
ATOM      1  C   UNL     1      47.906   4.868  15.594  0.00  0.00    +0.000 C 
ENDROOT
BRANCH   1   2
ATOM      2  C   UNL     1      47.148   5.226  14.330  0.00  0.00    +0.000 A 
ATOM      3  C   UNL     1      47.521   6.344  13.584  0.00  0.00    +0.000 A 
ATOM      4  C   UNL     1      46.977   6.549  12.319  0.00  0.00    +0.000 A 
ATOM      5  C   UNL     1      46.055   5.632  11.821  0.00  0.00    +0.000 A 
ATOM      6  N   UNL     1      45.614   4.583  12.556  0.00  0.00    +0.000 NA
ATOM      7  C   UNL     1      46.165   4.404  13.781  0.00  0.00    +0.000 A 
BRANCH   5   8
ATOM      8  C   UNL     1      45.531   5.754  10.408  0.00  0.00    +0.000 C 
BRANCH   8   9
ATOM      9  C   UNL     1      44.765   4.497   9.945  0.00  0.00    +0.000 C 
BRANCH   9  10
ATOM     10  C   UNL     1      45.505   3.669   8.903  0.00  0.00    +0.000 A 
ATOM     11  C   UNL     1      45.535   2.280   9.038  0.00  0.00    +0.000 A 
ATOM     12  C   UNL     1      46.205   1.515   8.086  0.00  0.00    +0.000 A 
ATOM     13  C   UNL     1      46.828   2.156   7.022  0.00  0.00    +0.000 A 
ATOM     14  C   UNL     1      46.752   3.533   6.958  0.00  0.00    +0.000 A 
ATOM     15  N   UNL     1      46.110   4.303   7.868  0.00  0.00    +0.000 NA
ENDBRANCH   9  10
BRANCH   9  16
ATOM     16  O   UNL     1      43.480   4.847   9.407  0.00  0.00    +0.000 OA
ATOM     17  H   UNL     1      43.648   5.280   8.551  0.00  0.00    +0.000 HD
ENDBRANCH   9  16
ENDBRANCH   8   9
ENDBRANCH   5   8
ENDBRANCH   1   2
BRANCH   1  18
ATOM     18  N   UNL     1      47.852   5.962  16.546  0.00  0.00    +0.000 N 
ATOM     19  C   UNL     1      48.874   6.281  17.404  0.00  0.00    +0.000 C 
ATOM     20  O   UNL     1      49.984   5.763  17.347  0.00  0.00    +0.000 OA
ATOM     21  H   UNL     1      46.925   6.303  16.769  0.00  0.00    +0.000 HD
BRANCH  19  22
ATOM     22  C   UNL     1      48.557   7.321  18.393  0.00  0.00    +0.000 A 
ATOM     23  C   UNL     1      48.477   7.025  19.746  0.00  0.00    +0.000 A 
ATOM     24  S   UNL     1      48.095   8.383  20.714  0.00  0.00    +0.000 S 
ATOM     25  C   UNL     1      47.960   9.392  19.350  0.00  0.00    +0.000 A 
ATOM     26  N   UNL     1      47.588  10.693  19.466  0.00  0.00    +0.000 NA
ATOM     27  C   UNL     1      47.480  11.322  18.342  0.00  0.00    +0.000 A 
ATOM     28  N   UNL     1      47.733  10.771  17.113  0.00  0.00    +0.000 N 
ATOM     29  C   UNL     1      48.194   9.487  16.952  0.00  0.00    +0.000 A 
ATOM     30  O   UNL     1      48.549   9.075  15.853  0.00  0.00    +0.000 OA
ATOM     31  C   UNL     1      48.262   8.719  18.181  0.00  0.00    +0.000 A 
ATOM     32  H   UNL     1      47.675  11.329  16.275  0.00  0.00    +0.000 HD
ENDBRANCH  19  22
ENDBRANCH   1  18
BRANCH   1  34
ATOM     33  C   UNL     1      48.452   2.613  16.676  0.00  0.00    +0.000 C 
ATOM     34  C   UNL     1      47.352   3.562  16.205  0.00  0.00    +0.000 C 
ENDBRANCH   1  34
TORSDOF 8
ENDMDL
MODEL 4
REMARK VINA RESULT:    -8.001      1.536      1.827
REMARK INTER + INTRA:         -12.319
REMARK INTER:                 -11.155
REMARK INTRA:                  -1.163
REMARK UNBOUND:                -0.810
REMARK  Name = 
REMARK  9 active torsions:
REMARK  status: ('A' for Active; 'I' for Inactive)
REMARK    1  A    between atoms: C_1  and  C_2
REMARK    2  A    between atoms: C_2  and  C_3
REMARK    3  A    between atoms: C_3  and  N_4
REMARK    4  A    between atoms: C_3  and  C_17
REMARK    5  A    between atoms: C_5  and  C_7
REMARK    6  A    between atoms: C_20  and  C_21
REMARK    7  A    between atoms: C_21  and  C_22
REMARK    8  A    between atoms: C_22  and  O_23
REMARK    9  A    between atoms: C_22  and  C_24
REMARK                            x       y       z     vdW  Elec       q    Type
REMARK                         _______ _______ _______ _____ _____    ______ ____
ROOT
ATOM      1  C   UNL     1      47.943   7.628  13.555  0.00  0.00    +0.000 C 
ENDROOT
BRANCH   1   2
ATOM      2  C   UNL     1      46.826   6.857  12.877  0.00  0.00    +0.000 A 
ATOM      3  C   UNL     1      46.026   7.481  11.921  0.00  0.00    +0.000 A 
ATOM      4  C   UNL     1      45.153   6.726  11.144  0.00  0.00    +0.000 A 
ATOM      5  C   UNL     1      45.085   5.349  11.345  0.00  0.00    +0.000 A 
ATOM      6  N   UNL     1      45.790   4.728  12.322  0.00  0.00    +0.000 NA
ATOM      7  C   UNL     1      46.636   5.488  13.058  0.00  0.00    +0.000 A 
BRANCH   5   8
ATOM      8  C   UNL     1      44.238   4.478  10.445  0.00  0.00    +0.000 C 
BRANCH   8   9
ATOM      9  C   UNL     1      44.783   3.040  10.322  0.00  0.00    +0.000 C 
BRANCH   9  10
ATOM     10  C   UNL     1      45.500   2.759   9.008  0.00  0.00    +0.000 A 
ATOM     11  C   UNL     1      45.681   3.803   8.098  0.00  0.00    +0.000 A 
ATOM     12  C   UNL     1      46.341   3.556   6.897  0.00  0.00    +0.000 A 
ATOM     13  C   UNL     1      46.805   2.272   6.633  0.00  0.00    +0.000 A 
ATOM     14  C   UNL     1      46.589   1.295   7.584  0.00  0.00    +0.000 A 
ATOM     15  N   UNL     1      45.950   1.504   8.759  0.00  0.00    +0.000 NA
ENDBRANCH   9  10
BRANCH   9  16
ATOM     16  O   UNL     1      43.729   2.076  10.469  0.00  0.00    +0.000 OA
ATOM     17  H   UNL     1      44.160   1.216  10.619  0.00  0.00    +0.000 HD
ENDBRANCH   9  16
ENDBRANCH   8   9
ENDBRANCH   5   8
ENDBRANCH   1   2
BRANCH   1  18
ATOM     18  N   UNL     1      47.898   7.429  14.991  0.00  0.00    +0.000 N 
ATOM     19  C   UNL     1      48.732   8.064  15.879  0.00  0.00    +0.000 C 
ATOM     20  O   UNL     1      49.495   8.966  15.552  0.00  0.00    +0.000 OA
ATOM     21  H   UNL     1      47.432   6.587  15.303  0.00  0.00    +0.000 HD
BRANCH  19  22
ATOM     22  C   UNL     1      48.627   7.605  17.271  0.00  0.00    +0.000 A 
ATOM     23  C   UNL     1      48.533   8.509  18.319  0.00  0.00    +0.000 A 
ATOM     24  S   UNL     1      48.424   7.758  19.852  0.00  0.00    +0.000 S 
ATOM     25  C   UNL     1      48.566   6.205  19.168  0.00  0.00    +0.000 A 
ATOM     26  N   UNL     1      48.609   5.092  19.943  0.00  0.00    +0.000 NA
ATOM     27  C   UNL     1      48.768   3.989  19.288  0.00  0.00    +0.000 A 
ATOM     28  N   UNL     1      48.866   3.900  17.924  0.00  0.00    +0.000 N 
ATOM     29  C   UNL     1      48.741   4.987  17.094  0.00  0.00    +0.000 A 
ATOM     30  O   UNL     1      48.687   4.852  15.877  0.00  0.00    +0.000 OA
ATOM     31  C   UNL     1      48.633   6.257  17.788  0.00  0.00    +0.000 A 
ATOM     32  H   UNL     1      48.944   3.003  17.469  0.00  0.00    +0.000 HD
ENDBRANCH  19  22
ENDBRANCH   1  18
BRANCH   1  34
ATOM     33  C   UNL     1      49.559   7.784  11.576  0.00  0.00    +0.000 C 
ATOM     34  C   UNL     1      49.313   7.218  12.973  0.00  0.00    +0.000 C 
ENDBRANCH   1  34
TORSDOF 8
ENDMDL
MODEL 5
REMARK VINA RESULT:    -7.930      1.664      1.912
REMARK INTER + INTRA:         -12.216
REMARK INTER:                 -11.261
REMARK INTRA:                  -0.955
REMARK UNBOUND:                -0.810
REMARK  Name = 
REMARK  9 active torsions:
REMARK  status: ('A' for Active; 'I' for Inactive)
REMARK    1  A    between atoms: C_1  and  C_2
REMARK    2  A    between atoms: C_2  and  C_3
REMARK    3  A    between atoms: C_3  and  N_4
REMARK    4  A    between atoms: C_3  and  C_17
REMARK    5  A    between atoms: C_5  and  C_7
REMARK    6  A    between atoms: C_20  and  C_21
REMARK    7  A    between atoms: C_21  and  C_22
REMARK    8  A    between atoms: C_22  and  O_23
REMARK    9  A    between atoms: C_22  and  C_24
REMARK                            x       y       z     vdW  Elec       q    Type
REMARK                         _______ _______ _______ _____ _____    ______ ____
ROOT
ATOM      1  C   UNL     1      47.168   7.178  13.405  0.00  0.00    +0.000 C 
ENDROOT
BRANCH   1   2
ATOM      2  C   UNL     1      46.563   6.039  12.607  0.00  0.00    +0.000 A 
ATOM      3  C   UNL     1      46.469   4.765  13.167  0.00  0.00    +0.000 A 
ATOM      4  C   UNL     1      45.722   3.778  12.530  0.00  0.00    +0.000 A 
ATOM      5  C   UNL     1      45.085   4.080  11.329  0.00  0.00    +0.000 A 
ATOM      6  N   UNL     1      45.227   5.283  10.721  0.00  0.00    +0.000 NA
ATOM      7  C   UNL     1      45.954   6.225  11.367  0.00  0.00    +0.000 A 
BRANCH   5   8
ATOM      8  C   UNL     1      44.170   3.075  10.666  0.00  0.00    +0.000 C 
BRANCH   8   9
ATOM      9  C   UNL     1      44.043   3.296   9.145  0.00  0.00    +0.000 C 
BRANCH   9  10
ATOM     10  C   UNL     1      45.297   2.937   8.359  0.00  0.00    +0.000 A 
ATOM     11  C   UNL     1      45.786   1.630   8.422  0.00  0.00    +0.000 A 
ATOM     12  C   UNL     1      46.929   1.293   7.702  0.00  0.00    +0.000 A 
ATOM     13  C   UNL     1      47.557   2.268   6.936  0.00  0.00    +0.000 A 
ATOM     14  C   UNL     1      47.012   3.536   6.925  0.00  0.00    +0.000 A 
ATOM     15  N   UNL     1      45.904   3.895   7.614  0.00  0.00    +0.000 NA
ENDBRANCH   9  10
BRANCH   9  16
ATOM     16  O   UNL     1      43.708   4.661   8.850  0.00  0.00    +0.000 OA
ATOM     17  H   UNL     1      42.741   4.689   8.739  0.00  0.00    +0.000 HD
ENDBRANCH   9  16
ENDBRANCH   8   9
ENDBRANCH   5   8
ENDBRANCH   1   2
BRANCH   1  18
ATOM     18  N   UNL     1      48.152   6.674  14.344  0.00  0.00    +0.000 N 
ATOM     19  C   UNL     1      48.701   7.423  15.355  0.00  0.00    +0.000 C 
ATOM     20  O   UNL     1      48.303   8.546  15.648  0.00  0.00    +0.000 OA
ATOM     21  H   UNL     1      48.647   5.839  14.055  0.00  0.00    +0.000 HD
BRANCH  19  22
ATOM     22  C   UNL     1      49.792   6.773  16.094  0.00  0.00    +0.000 A 
ATOM     23  C   UNL     1      51.054   7.346  16.162  0.00  0.00    +0.000 A 
ATOM     24  S   UNL     1      52.169   6.419  17.070  0.00  0.00    +0.000 S 
ATOM     25  C   UNL     1      51.019   5.193  17.342  0.00  0.00    +0.000 A 
ATOM     26  N   UNL     1      51.342   4.056  18.011  0.00  0.00    +0.000 NA
ATOM     27  C   UNL     1      50.381   3.195  18.097  0.00  0.00    +0.000 A 
ATOM     28  N   UNL     1      49.121   3.380  17.594  0.00  0.00    +0.000 N 
ATOM     29  C   UNL     1      48.724   4.546  16.987  0.00  0.00    +0.000 A 
ATOM     30  O   UNL     1      47.552   4.733  16.680  0.00  0.00    +0.000 OA
ATOM     31  C   UNL     1      49.788   5.515  16.802  0.00  0.00    +0.000 A 
ATOM     32  H   UNL     1      48.401   2.687  17.734  0.00  0.00    +0.000 HD
ENDBRANCH  19  22
ENDBRANCH   1  18
BRANCH   1  34
ATOM     33  C   UNL     1      49.050   7.744  11.764  0.00  0.00    +0.000 C 
ATOM     34  C   UNL     1      47.782   8.234  12.460  0.00  0.00    +0.000 C 
ENDBRANCH   1  34
TORSDOF 8
ENDMDL
MODEL 6
REMARK VINA RESULT:    -7.749      2.346      2.824
REMARK INTER + INTRA:         -11.956
REMARK INTER:                 -10.482
REMARK INTRA:                  -1.475
REMARK UNBOUND:                -0.810
REMARK  Name = 
REMARK  9 active torsions:
REMARK  status: ('A' for Active; 'I' for Inactive)
REMARK    1  A    between atoms: C_1  and  C_2
REMARK    2  A    between atoms: C_2  and  C_3
REMARK    3  A    between atoms: C_3  and  N_4
REMARK    4  A    between atoms: C_3  and  C_17
REMARK    5  A    between atoms: C_5  and  C_7
REMARK    6  A    between atoms: C_20  and  C_21
REMARK    7  A    between atoms: C_21  and  C_22
REMARK    8  A    between atoms: C_22  and  O_23
REMARK    9  A    between atoms: C_22  and  C_24
REMARK                            x       y       z     vdW  Elec       q    Type
REMARK                         _______ _______ _______ _____ _____    ______ ____
ROOT
ATOM      1  C   UNL     1      48.305   7.178  14.093  0.00  0.00    +0.000 C 
ENDROOT
BRANCH   1   2
ATOM      2  C   UNL     1      47.141   6.421  13.483  0.00  0.00    +0.000 A 
ATOM      3  C   UNL     1      47.113   5.028  13.524  0.00  0.00    +0.000 A 
ATOM      4  C   UNL     1      45.955   4.343  13.167  0.00  0.00    +0.000 A 
ATOM      5  C   UNL     1      44.837   5.068  12.761  0.00  0.00    +0.000 A 
ATOM      6  N   UNL     1      44.862   6.417  12.634  0.00  0.00    +0.000 NA
ATOM      7  C   UNL     1      46.000   7.057  12.994  0.00  0.00    +0.000 A 
BRANCH   5   8
ATOM      8  C   UNL     1      43.526   4.372  12.478  0.00  0.00    +0.000 C 
BRANCH   8   9
ATOM      9  C   UNL     1      43.085   4.505  11.006  0.00  0.00    +0.000 C 
BRANCH   9  10
ATOM     10  C   UNL     1      44.025   3.833  10.015  0.00  0.00    +0.000 A 
ATOM     11  C   UNL     1      44.819   4.629   9.187  0.00  0.00    +0.000 A 
ATOM     12  C   UNL     1      45.686   4.022   8.281  0.00  0.00    +0.000 A 
ATOM     13  C   UNL     1      45.738   2.634   8.224  0.00  0.00    +0.000 A 
ATOM     14  C   UNL     1      44.922   1.917   9.075  0.00  0.00    +0.000 A 
ATOM     15  N   UNL     1      44.070   2.478   9.965  0.00  0.00    +0.000 NA
ENDBRANCH   9  10
BRANCH   9  16
ATOM     16  O   UNL     1      42.954   5.885  10.631  0.00  0.00    +0.000 OA
ATOM     17  H   UNL     1      42.276   6.267  11.217  0.00  0.00    +0.000 HD
ENDBRANCH   9  16
ENDBRANCH   8   9
ENDBRANCH   5   8
ENDBRANCH   1   2
BRANCH   1  18
ATOM     18  N   UNL     1      48.753   6.526  15.309  0.00  0.00    +0.000 N 
ATOM     19  C   UNL     1      49.216   7.198  16.413  0.00  0.00    +0.000 C 
ATOM     20  O   UNL     1      49.157   8.417  16.528  0.00  0.00    +0.000 OA
ATOM     21  H   UNL     1      48.995   5.547  15.218  0.00  0.00    +0.000 HD
BRANCH  19  22
ATOM     22  C   UNL     1      49.766   6.347  17.478  0.00  0.00    +0.000 A 
ATOM     23  C   UNL     1      51.005   5.737  17.340  0.00  0.00    +0.000 A 
ATOM     24  S   UNL     1      51.447   4.793  18.696  0.00  0.00    +0.000 S 
ATOM     25  C   UNL     1      49.970   5.117  19.479  0.00  0.00    +0.000 A 
ATOM     26  N   UNL     1      49.666   4.555  20.677  0.00  0.00    +0.000 NA
ATOM     27  C   UNL     1      48.491   4.854  21.125  0.00  0.00    +0.000 A 
ATOM     28  N   UNL     1      47.603   5.682  20.493  0.00  0.00    +0.000 N 
ATOM     29  C   UNL     1      47.899   6.341  19.325  0.00  0.00    +0.000 A 
ATOM     30  O   UNL     1      47.140   7.186  18.864  0.00  0.00    +0.000 OA
ATOM     31  C   UNL     1      49.180   5.981  18.745  0.00  0.00    +0.000 A 
ATOM     32  H   UNL     1      46.718   5.913  20.918  0.00  0.00    +0.000 HD
ENDBRANCH  19  22
ENDBRANCH   1  18
BRANCH   1  34
ATOM     33  C   UNL     1      49.158   8.337  11.976  0.00  0.00    +0.000 C 
ATOM     34  C   UNL     1      49.455   7.315  13.072  0.00  0.00    +0.000 C 
ENDBRANCH   1  34
TORSDOF 8
ENDMDL
MODEL 7
REMARK VINA RESULT:    -7.235      2.720      7.832
REMARK INTER + INTRA:         -11.217
REMARK INTER:                 -10.713
REMARK INTRA:                  -0.504
REMARK UNBOUND:                -0.810
REMARK  Name = 
REMARK  9 active torsions:
REMARK  status: ('A' for Active; 'I' for Inactive)
REMARK    1  A    between atoms: C_1  and  C_2
REMARK    2  A    between atoms: C_2  and  C_3
REMARK    3  A    between atoms: C_3  and  N_4
REMARK    4  A    between atoms: C_3  and  C_17
REMARK    5  A    between atoms: C_5  and  C_7
REMARK    6  A    between atoms: C_20  and  C_21
REMARK    7  A    between atoms: C_21  and  C_22
REMARK    8  A    between atoms: C_22  and  O_23
REMARK    9  A    between atoms: C_22  and  C_24
REMARK                            x       y       z     vdW  Elec       q    Type
REMARK                         _______ _______ _______ _____ _____    ______ ____
ROOT
ATOM      1  C   UNL     1      47.019   7.951  12.204  0.00  0.00    +0.000 C 
ENDROOT
BRANCH   1   2
ATOM      2  C   UNL     1      47.880   7.746  13.436  0.00  0.00    +0.000 A 
ATOM      3  C   UNL     1      47.966   8.746  14.403  0.00  0.00    +0.000 A 
ATOM      4  C   UNL     1      48.571   8.479  15.628  0.00  0.00    +0.000 A 
ATOM      5  C   UNL     1      49.094   7.210  15.863  0.00  0.00    +0.000 A 
ATOM      6  N   UNL     1      49.097   6.245  14.912  0.00  0.00    +0.000 NA
ATOM      7  C   UNL     1      48.496   6.531  13.732  0.00  0.00    +0.000 A 
BRANCH   5   8
ATOM      8  C   UNL     1      49.654   6.844  17.219  0.00  0.00    +0.000 C 
BRANCH   8   9
ATOM      9  C   UNL     1      48.933   5.637  17.856  0.00  0.00    +0.000 C 
BRANCH   9  10
ATOM     10  C   UNL     1      49.607   4.299  17.585  0.00  0.00    +0.000 A 
ATOM     11  C   UNL     1      50.942   4.125  17.957  0.00  0.00    +0.000 A 
ATOM     12  C   UNL     1      51.564   2.902  17.717  0.00  0.00    +0.000 A 
ATOM     13  C   UNL     1      50.837   1.882  17.112  0.00  0.00    +0.000 A 
ATOM     14  C   UNL     1      49.523   2.132  16.776  0.00  0.00    +0.000 A 
ATOM     15  N   UNL     1      48.891   3.310  16.994  0.00  0.00    +0.000 NA
ENDBRANCH   9  10
BRANCH   9  16
ATOM     16  O   UNL     1      47.573   5.552  17.402  0.00  0.00    +0.000 OA
ATOM     17  H   UNL     1      47.578   5.820  16.466  0.00  0.00    +0.000 HD
ENDBRANCH   9  16
ENDBRANCH   8   9
ENDBRANCH   5   8
ENDBRANCH   1   2
BRANCH   1  18
ATOM     18  N   UNL     1      46.401   6.702  11.802  0.00  0.00    +0.000 N 
ATOM     19  C   UNL     1      45.058   6.554  11.560  0.00  0.00    +0.000 C 
ATOM     20  O   UNL     1      44.277   7.499  11.521  0.00  0.00    +0.000 OA
ATOM     21  H   UNL     1      46.940   5.866  11.989  0.00  0.00    +0.000 HD
BRANCH  19  22
ATOM     22  C   UNL     1      44.614   5.174  11.318  0.00  0.00    +0.000 A 
ATOM     23  C   UNL     1      43.844   4.494  12.250  0.00  0.00    +0.000 A 
ATOM     24  S   UNL     1      43.444   2.903  11.764  0.00  0.00    +0.000 S 
ATOM     25  C   UNL     1      44.342   3.053  10.325  0.00  0.00    +0.000 A 
ATOM     26  N   UNL     1      44.473   2.013   9.462  0.00  0.00    +0.000 NA
ATOM     27  C   UNL     1      45.224   2.259   8.439  0.00  0.00    +0.000 A 
ATOM     28  N   UNL     1      45.836   3.459   8.191  0.00  0.00    +0.000 N 
ATOM     29  C   UNL     1      45.663   4.563   8.989  0.00  0.00    +0.000 A 
ATOM     30  O   UNL     1      46.105   5.658   8.659  0.00  0.00    +0.000 OA
ATOM     31  C   UNL     1      44.886   4.316  10.190  0.00  0.00    +0.000 A 
ATOM     32  H   UNL     1      46.373   3.601   7.349  0.00  0.00    +0.000 HD
ENDBRANCH  19  22
ENDBRANCH   1  18
BRANCH   1  34
ATOM     33  C   UNL     1      46.286  10.364  11.763  0.00  0.00    +0.000 C 
ATOM     34  C   UNL     1      45.960   9.046  12.461  0.00  0.00    +0.000 C 
ENDBRANCH   1  34
TORSDOF 8
ENDMDL
MODEL 8
REMARK VINA RESULT:    -6.894      4.299      7.470
REMARK INTER + INTRA:         -10.726
REMARK INTER:                  -9.107
REMARK INTRA:                  -1.619
REMARK UNBOUND:                -0.810
REMARK  Name = 
REMARK  9 active torsions:
REMARK  status: ('A' for Active; 'I' for Inactive)
REMARK    1  A    between atoms: C_1  and  C_2
REMARK    2  A    between atoms: C_2  and  C_3
REMARK    3  A    between atoms: C_3  and  N_4
REMARK    4  A    between atoms: C_3  and  C_17
REMARK    5  A    between atoms: C_5  and  C_7
REMARK    6  A    between atoms: C_20  and  C_21
REMARK    7  A    between atoms: C_21  and  C_22
REMARK    8  A    between atoms: C_22  and  O_23
REMARK    9  A    between atoms: C_22  and  C_24
REMARK                            x       y       z     vdW  Elec       q    Type
REMARK                         _______ _______ _______ _____ _____    ______ ____
ROOT
ATOM      1  C   UNL     1      47.636   6.554  14.169  0.00  0.00    +0.000 C 
ENDROOT
BRANCH   1   2
ATOM      2  C   UNL     1      48.807   7.116  13.386  0.00  0.00    +0.000 A 
ATOM      3  C   UNL     1      48.711   7.280  12.005  0.00  0.00    +0.000 A 
ATOM      4  C   UNL     1      49.690   7.993  11.319  0.00  0.00    +0.000 A 
ATOM      5  C   UNL     1      50.763   8.527  12.029  0.00  0.00    +0.000 A 
ATOM      6  N   UNL     1      50.924   8.313  13.358  0.00  0.00    +0.000 NA
ATOM      7  C   UNL     1      49.953   7.621  14.000  0.00  0.00    +0.000 A 
BRANCH   5   8
ATOM      8  C   UNL     1      51.783   9.406  11.343  0.00  0.00    +0.000 C 
BRANCH   8   9
ATOM      9  C   UNL     1      52.985   8.609  10.794  0.00  0.00    +0.000 C 
BRANCH   9  10
ATOM     10  C   UNL     1      52.882   8.274   9.312  0.00  0.00    +0.000 A 
ATOM     11  C   UNL     1      52.521   6.979   8.934  0.00  0.00    +0.000 A 
ATOM     12  C   UNL     1      52.419   6.666   7.580  0.00  0.00    +0.000 A 
ATOM     13  C   UNL     1      52.680   7.654   6.638  0.00  0.00    +0.000 A 
ATOM     14  C   UNL     1      53.029   8.909   7.092  0.00  0.00    +0.000 A 
ATOM     15  N   UNL     1      53.138   9.243   8.399  0.00  0.00    +0.000 NA
ENDBRANCH   9  10
BRANCH   9  16
ATOM     16  O   UNL     1      53.161   7.381  11.518  0.00  0.00    +0.000 OA
ATOM     17  H   UNL     1      52.891   7.561  12.436  0.00  0.00    +0.000 HD
ENDBRANCH   9  16
ENDBRANCH   8   9
ENDBRANCH   5   8
ENDBRANCH   1   2
BRANCH   1  18
ATOM     18  N   UNL     1      46.858   5.651  13.342  0.00  0.00    +0.000 N 
ATOM     19  C   UNL     1      45.620   5.953  12.833  0.00  0.00    +0.000 C 
ATOM     20  O   UNL     1      45.118   7.069  12.911  0.00  0.00    +0.000 OA
ATOM     21  H   UNL     1      47.122   4.675  13.390  0.00  0.00    +0.000 HD
BRANCH  19  22
ATOM     22  C   UNL     1      44.936   4.844  12.153  0.00  0.00    +0.000 A 
ATOM     23  C   UNL     1      44.124   3.964  12.854  0.00  0.00    +0.000 A 
ATOM     24  S   UNL     1      43.432   2.751  11.866  0.00  0.00    +0.000 S 
ATOM     25  C   UNL     1      44.248   3.325  10.486  0.00  0.00    +0.000 A 
ATOM     26  N   UNL     1      44.147   2.691   9.290  0.00  0.00    +0.000 NA
ATOM     27  C   UNL     1      44.861   3.211   8.347  0.00  0.00    +0.000 A 
ATOM     28  N   UNL     1      45.649   4.322   8.488  0.00  0.00    +0.000 N 
ATOM     29  C   UNL     1      45.716   5.047   9.653  0.00  0.00    +0.000 A 
ATOM     30  O   UNL     1      46.314   6.115   9.701  0.00  0.00    +0.000 OA
ATOM     31  C   UNL     1      44.987   4.460  10.763  0.00  0.00    +0.000 A 
ATOM     32  H   UNL     1      46.148   4.706   7.700  0.00  0.00    +0.000 HD
ENDBRANCH  19  22
ENDBRANCH   1  18
BRANCH   1  34
ATOM     33  C   UNL     1      47.458   4.503  15.691  0.00  0.00    +0.000 C 
ATOM     34  C   UNL     1      48.130   5.854  15.454  0.00  0.00    +0.000 C 
ENDBRANCH   1  34
TORSDOF 8
ENDMDL
MODEL 9
REMARK VINA RESULT:    -6.880      2.591      4.483
REMARK INTER + INTRA:         -10.705
REMARK INTER:                 -10.077
REMARK INTRA:                  -0.628
REMARK UNBOUND:                -0.810
REMARK  Name = 
REMARK  9 active torsions:
REMARK  status: ('A' for Active; 'I' for Inactive)
REMARK    1  A    between atoms: C_1  and  C_2
REMARK    2  A    between atoms: C_2  and  C_3
REMARK    3  A    between atoms: C_3  and  N_4
REMARK    4  A    between atoms: C_3  and  C_17
REMARK    5  A    between atoms: C_5  and  C_7
REMARK    6  A    between atoms: C_20  and  C_21
REMARK    7  A    between atoms: C_21  and  C_22
REMARK    8  A    between atoms: C_22  and  O_23
REMARK    9  A    between atoms: C_22  and  C_24
REMARK                            x       y       z     vdW  Elec       q    Type
REMARK                         _______ _______ _______ _____ _____    ______ ____
ROOT
ATOM      1  C   UNL     1      47.500   4.843  14.926  0.00  0.00    +0.000 C 
ENDROOT
BRANCH   1   2
ATOM      2  C   UNL     1      46.467   4.673  13.829  0.00  0.00    +0.000 A 
ATOM      3  C   UNL     1      45.849   5.791  13.271  0.00  0.00    +0.000 A 
ATOM      4  C   UNL     1      45.071   5.657  12.125  0.00  0.00    +0.000 A 
ATOM      5  C   UNL     1      44.914   4.395  11.555  0.00  0.00    +0.000 A 
ATOM      6  N   UNL     1      45.436   3.280  12.122  0.00  0.00    +0.000 NA
ATOM      7  C   UNL     1      46.193   3.442  13.234  0.00  0.00    +0.000 A 
BRANCH   5   8
ATOM      8  C   UNL     1      44.177   4.224  10.247  0.00  0.00    +0.000 C 
BRANCH   8   9
ATOM      9  C   UNL     1      44.993   4.716   9.033  0.00  0.00    +0.000 C 
BRANCH   9  10
ATOM     10  C   UNL     1      45.753   3.612   8.310  0.00  0.00    +0.000 A 
ATOM     11  C   UNL     1      45.530   2.283   8.676  0.00  0.00    +0.000 A 
ATOM     12  C   UNL     1      46.217   1.267   8.015  0.00  0.00    +0.000 A 
ATOM     13  C   UNL     1      47.109   1.604   7.003  0.00  0.00    +0.000 A 
ATOM     14  C   UNL     1      47.272   2.939   6.699  0.00  0.00    +0.000 A 
ATOM     15  N   UNL     1      46.621   3.948   7.323  0.00  0.00    +0.000 NA
ENDBRANCH   9  10
BRANCH   9  16
ATOM     16  O   UNL     1      45.937   5.725   9.423  0.00  0.00    +0.000 OA
ATOM     17  H   UNL     1      46.037   6.319   8.658  0.00  0.00    +0.000 HD
ENDBRANCH   9  16
ENDBRANCH   8   9
ENDBRANCH   5   8
ENDBRANCH   1   2
BRANCH   1  18
ATOM     18  N   UNL     1      47.851   6.242  15.082  0.00  0.00    +0.000 N 
ATOM     19  C   UNL     1      49.038   6.679  15.615  0.00  0.00    +0.000 C 
ATOM     20  O   UNL     1      49.971   5.929  15.876  0.00  0.00    +0.000 OA
ATOM     21  H   UNL     1      47.076   6.893  15.059  0.00  0.00    +0.000 HD
BRANCH  19  22
ATOM     22  C   UNL     1      49.129   8.131  15.828  0.00  0.00    +0.000 A 
ATOM     23  C   UNL     1      48.302   8.777  16.735  0.00  0.00    +0.000 A 
ATOM     24  S   UNL     1      48.579  10.463  16.821  0.00  0.00    +0.000 S 
ATOM     25  C   UNL     1      49.765  10.390  15.601  0.00  0.00    +0.000 A 
ATOM     26  N   UNL     1      50.373  11.512  15.139  0.00  0.00    +0.000 NA
ATOM     27  C   UNL     1      51.214  11.308  14.179  0.00  0.00    +0.000 A 
ATOM     28  N   UNL     1      51.518  10.079  13.657  0.00  0.00    +0.000 N 
ATOM     29  C   UNL     1      50.995   8.909  14.150  0.00  0.00    +0.000 A 
ATOM     30  O   UNL     1      51.398   7.820  13.759  0.00  0.00    +0.000 OA
ATOM     31  C   UNL     1      49.989   9.093  15.181  0.00  0.00    +0.000 A 
ATOM     32  H   UNL     1      52.220   9.981  12.939  0.00  0.00    +0.000 HD
ENDBRANCH  19  22
ENDBRANCH   1  18
BRANCH   1  34
ATOM     33  C   UNL     1      48.045   3.418  16.982  0.00  0.00    +0.000 C 
ATOM     34  C   UNL     1      46.985   4.241  16.252  0.00  0.00    +0.000 C 
ENDBRANCH   1  34
TORSDOF 8
ENDMDL
