MODEL 1
REMARK VINA RESULT:    -8.836      0.000      0.000
REMARK INTER + INTRA:         -12.558
REMARK INTER:                 -11.419
REMARK INTRA:                  -1.139
REMARK UNBOUND:                -1.139
REMARK  Name = 
REMARK  8 active torsions:
REMARK  status: ('A' for Active; 'I' for Inactive)
REMARK    1  A    between atoms: C_1  and  C_2
REMARK    2  A    between atoms: C_4  and  C_5
REMARK    3  A    between atoms: C_9  and  C_10
REMARK    4  A    between atoms: C_10  and  C_11
REMARK    5  A    between atoms: C_10  and  C_12
REMARK    6  A    between atoms: C_10  and  C_13
REMARK    7  A    between atoms: C_13  and  N_14
REMARK    8  A    between atoms: C_18  and  C_19
REMARK                            x       y       z     vdW  Elec       q    Type
REMARK                         _______ _______ _______ _____ _____    ______ ____
ROOT
ATOM      1  C   UNL     1      43.667   5.499  11.929  0.00  0.00    +0.000 C 
ATOM      2  C   UNL     1      42.709   5.258  13.124  0.00  0.00    +0.000 C 
ATOM      3  C   UNL     1      43.370   6.878  11.305  0.00  0.00    +0.000 C 
ENDROOT
BRANCH   1   8
ATOM      4  C   UNL     1      47.337   6.578  12.584  0.00  0.00    +0.000 A 
ATOM      5  C   UNL     1      47.705   5.668  13.586  0.00  0.00    +0.000 A 
ATOM      6  C   UNL     1      46.838   4.657  13.994  0.00  0.00    +0.000 A 
ATOM      7  C   UNL     1      45.562   4.559  13.444  0.00  0.00    +0.000 A 
ATOM      8  C   UNL     1      45.122   5.466  12.466  0.00  0.00    +0.000 A 
ATOM      9  C   UNL     1      46.052   6.429  12.021  0.00  0.00    +0.000 A 
BRANCH   4  13
ATOM     10  C   UNL     1      51.871   8.247  11.185  0.00  0.00    +0.000 C 
ATOM     11  C   UNL     1      50.418   8.487  11.469  0.00  0.00    +0.000 A 
ATOM     12  C   UNL     1      49.591   7.439  11.861  0.00  0.00    +0.000 A 
ATOM     13  C   UNL     1      48.238   7.677  12.158  0.00  0.00    +0.000 A 
ATOM     14  C   UNL     1      47.786   8.993  12.018  0.00  0.00    +0.000 A 
ATOM     15  C   UNL     1      48.669   9.976  11.602  0.00  0.00    +0.000 A 
ATOM     16  N   UNL     1      49.972   9.752  11.330  0.00  0.00    +0.000 NA
ENDBRANCH   4  13
ENDBRANCH   1   8
BRANCH   1  17
ATOM     17  C   UNL     1      43.432   4.379  10.870  0.00  0.00    +0.000 C 
BRANCH  17  18
ATOM     18  N   UNL     1      43.836   4.734   9.516  0.00  0.00    +0.000 N 
ATOM     19  C   UNL     1      44.829   3.972   8.914  0.00  0.00    +0.000 A 
ATOM     20  C   UNL     1      44.997   2.594   9.104  0.00  0.00    +0.000 A 
ATOM     21  N   UNL     1      45.946   1.842   8.489  0.00  0.00    +0.000 NA
ATOM     22  C   UNL     1      46.726   2.537   7.620  0.00  0.00    +0.000 A 
ATOM     23  C   UNL     1      46.568   3.897   7.404  0.00  0.00    +0.000 A 
ATOM     24  N   UNL     1      45.627   4.636   8.053  0.00  0.00    +0.000 NA
ATOM     25  H   UNL     1      44.072   5.710   9.347  0.00  0.00    +0.000 HD
BRANCH  22  26
ATOM     26  C   UNL     1      47.773   1.779   6.888  0.00  0.00    +0.000 C 
ATOM     27  N   UNL     1      48.638   2.527   6.133  0.00  0.00    +0.000 N 
ATOM     28  O   UNL     1      47.861   0.558   6.954  0.00  0.00    +0.000 OA
ATOM     29  H   UNL     1      48.541   3.535   6.109  0.00  0.00    +0.000 HD
ATOM     30  H   UNL     1      49.379   2.069   5.623  0.00  0.00    +0.000 HD
ENDBRANCH  22  26
ENDBRANCH  17  18
ENDBRANCH   1  17
TORSDOF 5
ENDMDL
MODEL 2
REMARK VINA RESULT:    -8.654      2.387      3.713
REMARK INTER + INTRA:         -12.322
REMARK INTER:                 -11.330
REMARK INTRA:                  -0.993
REMARK UNBOUND:                -1.139
REMARK  Name = 
REMARK  8 active torsions:
REMARK  status: ('A' for Active; 'I' for Inactive)
REMARK    1  A    between atoms: C_1  and  C_2
REMARK    2  A    between atoms: C_4  and  C_5
REMARK    3  A    between atoms: C_9  and  C_10
REMARK    4  A    between atoms: C_10  and  C_11
REMARK    5  A    between atoms: C_10  and  C_12
REMARK    6  A    between atoms: C_10  and  C_13
REMARK    7  A    between atoms: C_13  and  N_14
REMARK    8  A    between atoms: C_18  and  C_19
REMARK                            x       y       z     vdW  Elec       q    Type
REMARK                         _______ _______ _______ _____ _____    ______ ____
ROOT
ATOM      1  C   UNL     1      43.416   4.824  11.906  0.00  0.00    +0.000 C 
ATOM      2  C   UNL     1      43.150   3.898  13.120  0.00  0.00    +0.000 C 
ATOM      3  C   UNL     1      42.304   5.891  11.824  0.00  0.00    +0.000 C 
ENDROOT
BRANCH   1   8
ATOM      4  C   UNL     1      46.801   5.778  13.546  0.00  0.00    +0.000 A 
ATOM      5  C   UNL     1      47.413   6.481  12.498  0.00  0.00    +0.000 A 
ATOM      6  C   UNL     1      46.734   6.738  11.310  0.00  0.00    +0.000 A 
ATOM      7  C   UNL     1      45.440   6.256  11.120  0.00  0.00    +0.000 A 
ATOM      8  C   UNL     1      44.790   5.511  12.117  0.00  0.00    +0.000 A 
ATOM      9  C   UNL     1      45.478   5.336  13.336  0.00  0.00    +0.000 A 
BRANCH   4  13
ATOM     10  C   UNL     1      47.530   2.888  17.597  0.00  0.00    +0.000 C 
ATOM     11  C   UNL     1      47.888   4.076  16.756  0.00  0.00    +0.000 A 
ATOM     12  C   UNL     1      47.203   4.339  15.573  0.00  0.00    +0.000 A 
ATOM     13  C   UNL     1      47.520   5.473  14.806  0.00  0.00    +0.000 A 
ATOM     14  C   UNL     1      48.553   6.286  15.285  0.00  0.00    +0.000 A 
ATOM     15  C   UNL     1      49.200   5.943  16.462  0.00  0.00    +0.000 A 
ATOM     16  N   UNL     1      48.887   4.863  17.206  0.00  0.00    +0.000 NA
ENDBRANCH   4  13
ENDBRANCH   1   8
BRANCH   1  17
ATOM     17  C   UNL     1      43.412   3.958  10.610  0.00  0.00    +0.000 C 
BRANCH  17  18
ATOM     18  N   UNL     1      44.470   2.957  10.549  0.00  0.00    +0.000 N 
ATOM     19  C   UNL     1      45.201   2.857   9.372  0.00  0.00    +0.000 A 
ATOM     20  C   UNL     1      45.538   3.943   8.553  0.00  0.00    +0.000 A 
ATOM     21  N   UNL     1      46.283   3.850   7.421  0.00  0.00    +0.000 NA
ATOM     22  C   UNL     1      46.722   2.593   7.149  0.00  0.00    +0.000 A 
ATOM     23  C   UNL     1      46.415   1.508   7.953  0.00  0.00    +0.000 A 
ATOM     24  N   UNL     1      45.643   1.620   9.069  0.00  0.00    +0.000 NA
ATOM     25  H   UNL     1      44.222   2.008  10.822  0.00  0.00    +0.000 HD
BRANCH  22  26
ATOM     26  C   UNL     1      47.565   2.414   5.938  0.00  0.00    +0.000 C 
ATOM     27  N   UNL     1      47.425   3.366   4.963  0.00  0.00    +0.000 N 
ATOM     28  O   UNL     1      48.340   1.471   5.816  0.00  0.00    +0.000 OA
ATOM     29  H   UNL     1      46.782   4.136   5.101  0.00  0.00    +0.000 HD
ATOM     30  H   UNL     1      47.981   3.304   4.123  0.00  0.00    +0.000 HD
ENDBRANCH  22  26
ENDBRANCH  17  18
ENDBRANCH   1  17
TORSDOF 5
ENDMDL
MODEL 3
REMARK VINA RESULT:    -7.802      3.856      7.401
REMARK INTER + INTRA:         -11.221
REMARK INTER:                 -10.350
REMARK INTRA:                  -0.871
REMARK UNBOUND:                -1.139
REMARK  Name = 
REMARK  8 active torsions:
REMARK  status: ('A' for Active; 'I' for Inactive)
REMARK    1  A    between atoms: C_1  and  C_2
REMARK    2  A    between atoms: C_4  and  C_5
REMARK    3  A    between atoms: C_9  and  C_10
REMARK    4  A    between atoms: C_10  and  C_11
REMARK    5  A    between atoms: C_10  and  C_12
REMARK    6  A    between atoms: C_10  and  C_13
REMARK    7  A    between atoms: C_13  and  N_14
REMARK    8  A    between atoms: C_18  and  C_19
REMARK                            x       y       z     vdW  Elec       q    Type
REMARK                         _______ _______ _______ _____ _____    ______ ____
ROOT
ATOM      1  C   UNL     1      45.908   7.129  11.875  0.00  0.00    +0.000 C 
ATOM      2  C   UNL     1      47.345   7.111  11.294  0.00  0.00    +0.000 C 
ATOM      3  C   UNL     1      45.265   8.505  11.605  0.00  0.00    +0.000 C 
ENDROOT
BRANCH   1   8
ATOM      4  C   UNL     1      45.060   4.170   9.512  0.00  0.00    +0.000 A 
ATOM      5  C   UNL     1      43.800   3.796  10.000  0.00  0.00    +0.000 A 
ATOM      6  C   UNL     1      43.172   4.524  11.007  0.00  0.00    +0.000 A 
ATOM      7  C   UNL     1      43.810   5.619  11.587  0.00  0.00    +0.000 A 
ATOM      8  C   UNL     1      45.090   6.017  11.168  0.00  0.00    +0.000 A 
ATOM      9  C   UNL     1      45.663   5.305  10.094  0.00  0.00    +0.000 A 
BRANCH   4  13
ATOM     10  C   UNL     1      46.726  -0.202   7.667  0.00  0.00    +0.000 C 
ATOM     11  C   UNL     1      46.547   1.282   7.555  0.00  0.00    +0.000 A 
ATOM     12  C   UNL     1      45.888   1.994   8.553  0.00  0.00    +0.000 A 
ATOM     13  C   UNL     1      45.753   3.389   8.459  0.00  0.00    +0.000 A 
ATOM     14  C   UNL     1      46.292   3.997   7.319  0.00  0.00    +0.000 A 
ATOM     15  C   UNL     1      46.915   3.215   6.361  0.00  0.00    +0.000 A 
ATOM     16  N   UNL     1      47.058   1.876   6.457  0.00  0.00    +0.000 NA
ENDBRANCH   4  13
ENDBRANCH   1   8
BRANCH   1  17
ATOM     17  C   UNL     1      45.990   6.878  13.412  0.00  0.00    +0.000 C 
BRANCH  17  18
ATOM     18  N   UNL     1      47.346   6.845  13.947  0.00  0.00    +0.000 N 
ATOM     19  C   UNL     1      47.658   5.848  14.862  0.00  0.00    +0.000 A 
ATOM     20  C   UNL     1      47.139   4.547  14.826  0.00  0.00    +0.000 A 
ATOM     21  N   UNL     1      47.471   3.563  15.700  0.00  0.00    +0.000 NA
ATOM     22  C   UNL     1      48.399   3.930  16.623  0.00  0.00    +0.000 A 
ATOM     23  C   UNL     1      48.937   5.206  16.667  0.00  0.00    +0.000 A 
ATOM     24  N   UNL     1      48.569   6.186  15.797  0.00  0.00    +0.000 NA
ATOM     25  H   UNL     1      47.713   7.716  14.325  0.00  0.00    +0.000 HD
BRANCH  22  26
ATOM     26  C   UNL     1      48.833   2.899  17.601  0.00  0.00    +0.000 C 
ATOM     27  N   UNL     1      48.369   3.054  18.880  0.00  0.00    +0.000 N 
ATOM     28  O   UNL     1      49.562   1.965  17.285  0.00  0.00    +0.000 OA
ATOM     29  H   UNL     1      47.760   3.832  19.105  0.00  0.00    +0.000 HD
ATOM     30  H   UNL     1      48.619   2.378  19.587  0.00  0.00    +0.000 HD
ENDBRANCH  22  26
ENDBRANCH  17  18
ENDBRANCH   1  17
TORSDOF 5
ENDMDL
MODEL 4
REMARK VINA RESULT:    -7.683      4.467      7.952
REMARK INTER + INTRA:         -11.068
REMARK INTER:                 -10.159
REMARK INTRA:                  -0.909
REMARK UNBOUND:                -1.139
REMARK  Name = 
REMARK  8 active torsions:
REMARK  status: ('A' for Active; 'I' for Inactive)
REMARK    1  A    between atoms: C_1  and  C_2
REMARK    2  A    between atoms: C_4  and  C_5
REMARK    3  A    between atoms: C_9  and  C_10
REMARK    4  A    between atoms: C_10  and  C_11
REMARK    5  A    between atoms: C_10  and  C_12
REMARK    6  A    between atoms: C_10  and  C_13
REMARK    7  A    between atoms: C_13  and  N_14
REMARK    8  A    between atoms: C_18  and  C_19
REMARK                            x       y       z     vdW  Elec       q    Type
REMARK                         _______ _______ _______ _____ _____    ______ ____
ROOT
ATOM      1  C   UNL     1      46.903   7.179  12.407  0.00  0.00    +0.000 C 
ATOM      2  C   UNL     1      47.875   7.794  11.367  0.00  0.00    +0.000 C 
ATOM      3  C   UNL     1      46.339   8.300  13.305  0.00  0.00    +0.000 C 
ENDROOT
BRANCH   1   8
ATOM      4  C   UNL     1      45.058   4.723  10.036  0.00  0.00    +0.000 A 
ATOM      5  C   UNL     1      43.723   4.977  10.380  0.00  0.00    +0.000 A 
ATOM      6  C   UNL     1      43.392   5.980  11.288  0.00  0.00    +0.000 A 
ATOM      7  C   UNL     1      44.391   6.724  11.911  0.00  0.00    +0.000 A 
ATOM      8  C   UNL     1      45.748   6.489  11.637  0.00  0.00    +0.000 A 
ATOM      9  C   UNL     1      46.044   5.519  10.656  0.00  0.00    +0.000 A 
BRANCH   4  13
ATOM     10  C   UNL     1      47.020   3.188   5.667  0.00  0.00    +0.000 C 
ATOM     11  C   UNL     1      46.387   2.891   6.993  0.00  0.00    +0.000 A 
ATOM     12  C   UNL     1      46.053   3.923   7.865  0.00  0.00    +0.000 A 
ATOM     13  C   UNL     1      45.429   3.641   9.092  0.00  0.00    +0.000 A 
ATOM     14  C   UNL     1      45.191   2.293   9.380  0.00  0.00    +0.000 A 
ATOM     15  C   UNL     1      45.573   1.323   8.468  0.00  0.00    +0.000 A 
ATOM     16  N   UNL     1      46.159   1.593   7.282  0.00  0.00    +0.000 NA
ENDBRANCH   4  13
ENDBRANCH   1   8
BRANCH   1  17
ATOM     17  C   UNL     1      47.692   6.154  13.277  0.00  0.00    +0.000 C 
BRANCH  17  18
ATOM     18  N   UNL     1      46.883   5.448  14.263  0.00  0.00    +0.000 N 
ATOM     19  C   UNL     1      47.474   5.125  15.477  0.00  0.00    +0.000 A 
ATOM     20  C   UNL     1      48.420   5.922  16.136  0.00  0.00    +0.000 A 
ATOM     21  N   UNL     1      48.972   5.624  17.340  0.00  0.00    +0.000 NA
ATOM     22  C   UNL     1      48.501   4.477  17.896  0.00  0.00    +0.000 A 
ATOM     23  C   UNL     1      47.554   3.682  17.271  0.00  0.00    +0.000 A 
ATOM     24  N   UNL     1      47.034   3.987  16.050  0.00  0.00    +0.000 NA
ATOM     25  H   UNL     1      46.393   4.614  13.944  0.00  0.00    +0.000 HD
BRANCH  22  26
ATOM     26  C   UNL     1      49.039   4.094  19.228  0.00  0.00    +0.000 C 
ATOM     27  N   UNL     1      48.316   3.161  19.921  0.00  0.00    +0.000 N 
ATOM     28  O   UNL     1      50.069   4.583  19.680  0.00  0.00    +0.000 OA
ATOM     29  H   UNL     1      47.474   2.771  19.513  0.00  0.00    +0.000 HD
ATOM     30  H   UNL     1      48.639   2.851  20.826  0.00  0.00    +0.000 HD
ENDBRANCH  22  26
ENDBRANCH  17  18
ENDBRANCH   1  17
TORSDOF 5
ENDMDL
MODEL 5
REMARK VINA RESULT:    -7.328      3.925      7.681
REMARK INTER + INTRA:         -10.609
REMARK INTER:                  -9.501
REMARK INTRA:                  -1.108
REMARK UNBOUND:                -1.139
REMARK  Name = 
REMARK  8 active torsions:
REMARK  status: ('A' for Active; 'I' for Inactive)
REMARK    1  A    between atoms: C_1  and  C_2
REMARK    2  A    between atoms: C_4  and  C_5
REMARK    3  A    between atoms: C_9  and  C_10
REMARK    4  A    between atoms: C_10  and  C_11
REMARK    5  A    between atoms: C_10  and  C_12
REMARK    6  A    between atoms: C_10  and  C_13
REMARK    7  A    between atoms: C_13  and  N_14
REMARK    8  A    between atoms: C_18  and  C_19
REMARK                            x       y       z     vdW  Elec       q    Type
REMARK                         _______ _______ _______ _____ _____    ______ ____
ROOT
ATOM      1  C   UNL     1      49.067   8.515  12.568  0.00  0.00    +0.000 C 
ATOM      2  C   UNL     1      49.868   7.318  11.994  0.00  0.00    +0.000 C 
ATOM      3  C   UNL     1      49.557   9.821  11.909  0.00  0.00    +0.000 C 
ENDROOT
BRANCH   1   8
ATOM      4  C   UNL     1      45.802   6.727  11.470  0.00  0.00    +0.000 A 
ATOM      5  C   UNL     1      44.841   7.669  11.862  0.00  0.00    +0.000 A 
ATOM      6  C   UNL     1      45.215   8.904  12.386  0.00  0.00    +0.000 A 
ATOM      7  C   UNL     1      46.560   9.210  12.577  0.00  0.00    +0.000 A 
ATOM      8  C   UNL     1      47.568   8.291  12.241  0.00  0.00    +0.000 A 
ATOM      9  C   UNL     1      47.157   7.082  11.641  0.00  0.00    +0.000 A 
BRANCH   4  13
ATOM     10  C   UNL     1      45.353   3.497   7.641  0.00  0.00    +0.000 C 
ATOM     11  C   UNL     1      45.214   3.828   9.097  0.00  0.00    +0.000 A 
ATOM     12  C   UNL     1      45.584   5.081   9.577  0.00  0.00    +0.000 A 
ATOM     13  C   UNL     1      45.421   5.397  10.936  0.00  0.00    +0.000 A 
ATOM     14  C   UNL     1      44.895   4.392  11.755  0.00  0.00    +0.000 A 
ATOM     15  C   UNL     1      44.570   3.164  11.204  0.00  0.00    +0.000 A 
ATOM     16  N   UNL     1      44.713   2.863   9.896  0.00  0.00    +0.000 NA
ENDBRANCH   4  13
ENDBRANCH   1   8
BRANCH   1  17
ATOM     17  C   UNL     1      49.305   8.580  14.107  0.00  0.00    +0.000 C 
BRANCH  17  18
ATOM     18  N   UNL     1      50.093   7.477  14.643  0.00  0.00    +0.000 N 
ATOM     19  C   UNL     1      49.439   6.529  15.420  0.00  0.00    +0.000 A 
ATOM     20  C   UNL     1      48.123   6.100  15.206  0.00  0.00    +0.000 A 
ATOM     21  N   UNL     1      47.495   5.148  15.943  0.00  0.00    +0.000 NA
ATOM     22  C   UNL     1      48.271   4.597  16.914  0.00  0.00    +0.000 A 
ATOM     23  C   UNL     1      49.581   4.995  17.133  0.00  0.00    +0.000 A 
ATOM     24  N   UNL     1      50.181   5.971  16.398  0.00  0.00    +0.000 NA
ATOM     25  H   UNL     1      50.949   7.722  15.138  0.00  0.00    +0.000 HD
BRANCH  22  26
ATOM     26  C   UNL     1      47.663   3.529  17.749  0.00  0.00    +0.000 C 
ATOM     27  N   UNL     1      48.350   3.192  18.884  0.00  0.00    +0.000 N 
ATOM     28  O   UNL     1      46.610   2.981  17.442  0.00  0.00    +0.000 OA
ATOM     29  H   UNL     1      49.213   3.671  19.112  0.00  0.00    +0.000 HD
ATOM     30  H   UNL     1      47.980   2.481  19.499  0.00  0.00    +0.000 HD
ENDBRANCH  22  26
ENDBRANCH  17  18
ENDBRANCH   1  17
TORSDOF 5
ENDMDL
MODEL 6
REMARK VINA RESULT:    -6.981      4.564      8.094
REMARK INTER + INTRA:         -10.161
REMARK INTER:                  -9.485
REMARK INTRA:                  -0.676
REMARK UNBOUND:                -1.139
REMARK  Name = 
REMARK  8 active torsions:
REMARK  status: ('A' for Active; 'I' for Inactive)
REMARK    1  A    between atoms: C_1  and  C_2
REMARK    2  A    between atoms: C_4  and  C_5
REMARK    3  A    between atoms: C_9  and  C_10
REMARK    4  A    between atoms: C_10  and  C_11
REMARK    5  A    between atoms: C_10  and  C_12
REMARK    6  A    between atoms: C_10  and  C_13
REMARK    7  A    between atoms: C_13  and  N_14
REMARK    8  A    between atoms: C_18  and  C_19
REMARK                            x       y       z     vdW  Elec       q    Type
REMARK                         _______ _______ _______ _____ _____    ______ ____
ROOT
ATOM      1  C   UNL     1      48.793   8.114  12.508  0.00  0.00    +0.000 C 
ATOM      2  C   UNL     1      49.668   7.441  11.420  0.00  0.00    +0.000 C 
ATOM      3  C   UNL     1      49.100   9.625  12.548  0.00  0.00    +0.000 C 
ENDROOT
BRANCH   1   8
ATOM      4  C   UNL     1      45.588   6.366  11.192  0.00  0.00    +0.000 A 
ATOM      5  C   UNL     1      44.599   7.246  11.653  0.00  0.00    +0.000 A 
ATOM      6  C   UNL     1      44.936   8.435  12.296  0.00  0.00    +0.000 A 
ATOM      7  C   UNL     1      46.271   8.751  12.537  0.00  0.00    +0.000 A 
ATOM      8  C   UNL     1      47.304   7.889  12.136  0.00  0.00    +0.000 A 
ATOM      9  C   UNL     1      46.931   6.733  11.419  0.00  0.00    +0.000 A 
BRANCH   4  13
ATOM     10  C   UNL     1      45.779   3.285   7.222  0.00  0.00    +0.000 C 
ATOM     11  C   UNL     1      45.344   3.586   8.625  0.00  0.00    +0.000 A 
ATOM     12  C   UNL     1      45.683   4.793   9.228  0.00  0.00    +0.000 A 
ATOM     13  C   UNL     1      45.245   5.084  10.531  0.00  0.00    +0.000 A 
ATOM     14  C   UNL     1      44.484   4.099  11.171  0.00  0.00    +0.000 A 
ATOM     15  C   UNL     1      44.208   2.914  10.510  0.00  0.00    +0.000 A 
ATOM     16  N   UNL     1      44.616   2.640   9.253  0.00  0.00    +0.000 NA
ENDBRANCH   4  13
ENDBRANCH   1   8
BRANCH   1  17
ATOM     17  C   UNL     1      49.132   7.470  13.887  0.00  0.00    +0.000 C 
BRANCH  17  18
ATOM     18  N   UNL     1      48.122   6.545  14.386  0.00  0.00    +0.000 N 
ATOM     19  C   UNL     1      48.312   5.998  15.648  0.00  0.00    +0.000 A 
ATOM     20  C   UNL     1      48.899   6.674  16.726  0.00  0.00    +0.000 A 
ATOM     21  N   UNL     1      49.052   6.152  17.970  0.00  0.00    +0.000 NA
ATOM     22  C   UNL     1      48.548   4.898  18.111  0.00  0.00    +0.000 A 
ATOM     23  C   UNL     1      47.949   4.216  17.063  0.00  0.00    +0.000 A 
ATOM     24  N   UNL     1      47.831   4.750  15.816  0.00  0.00    +0.000 NA
ATOM     25  H   UNL     1      47.856   5.779  13.771  0.00  0.00    +0.000 HD
BRANCH  22  26
ATOM     26  C   UNL     1      48.656   4.266  19.451  0.00  0.00    +0.000 C 
ATOM     27  N   UNL     1      48.271   2.953  19.528  0.00  0.00    +0.000 N 
ATOM     28  O   UNL     1      49.064   4.880  20.431  0.00  0.00    +0.000 OA
ATOM     29  H   UNL     1      47.948   2.474  18.696  0.00  0.00    +0.000 HD
ATOM     30  H   UNL     1      48.334   2.466  20.410  0.00  0.00    +0.000 HD
ENDBRANCH  22  26
ENDBRANCH  17  18
ENDBRANCH   1  17
TORSDOF 5
ENDMDL
MODEL 7
REMARK VINA RESULT:    -6.683      5.983      7.705
REMARK INTER + INTRA:          -9.775
REMARK INTER:                  -8.970
REMARK INTRA:                  -0.805
REMARK UNBOUND:                -1.139
REMARK  Name = 
REMARK  8 active torsions:
REMARK  status: ('A' for Active; 'I' for Inactive)
REMARK    1  A    between atoms: C_1  and  C_2
REMARK    2  A    between atoms: C_4  and  C_5
REMARK    3  A    between atoms: C_9  and  C_10
REMARK    4  A    between atoms: C_10  and  C_11
REMARK    5  A    between atoms: C_10  and  C_12
REMARK    6  A    between atoms: C_10  and  C_13
REMARK    7  A    between atoms: C_13  and  N_14
REMARK    8  A    between atoms: C_18  and  C_19
REMARK                            x       y       z     vdW  Elec       q    Type
REMARK                         _______ _______ _______ _____ _____    ______ ____
ROOT
ATOM      1  C   UNL     1      48.098   4.458  17.165  0.00  0.00    +0.000 C 
ATOM      2  C   UNL     1      48.020   2.912  17.241  0.00  0.00    +0.000 C 
ATOM      3  C   UNL     1      47.316   5.068  18.348  0.00  0.00    +0.000 C 
ENDROOT
BRANCH   1   8
ATOM      4  C   UNL     1      51.910   4.224  17.852  0.00  0.00    +0.000 A 
ATOM      5  C   UNL     1      52.364   5.390  17.220  0.00  0.00    +0.000 A 
ATOM      6  C   UNL     1      51.471   6.299  16.657  0.00  0.00    +0.000 A 
ATOM      7  C   UNL     1      50.102   6.041  16.670  0.00  0.00    +0.000 A 
ATOM      8  C   UNL     1      49.590   4.870  17.253  0.00  0.00    +0.000 A 
ATOM      9  C   UNL     1      50.516   4.011  17.881  0.00  0.00    +0.000 A 
BRANCH   4  13
ATOM     10  C   UNL     1      54.117  -0.295  17.788  0.00  0.00    +0.000 C 
ATOM     11  C   UNL     1      53.929   1.061  18.400  0.00  0.00    +0.000 A 
ATOM     12  C   UNL     1      53.046   1.977  17.835  0.00  0.00    +0.000 A 
ATOM     13  C   UNL     1      52.849   3.234  18.432  0.00  0.00    +0.000 A 
ATOM     14  C   UNL     1      53.592   3.504  19.586  0.00  0.00    +0.000 A 
ATOM     15  C   UNL     1      54.466   2.546  20.074  0.00  0.00    +0.000 A 
ATOM     16  N   UNL     1      54.646   1.333  19.510  0.00  0.00    +0.000 NA
ENDBRANCH   4  13
ENDBRANCH   1   8
BRANCH   1  17
ATOM     17  C   UNL     1      47.463   4.922  15.819  0.00  0.00    +0.000 C 
BRANCH  17  18
ATOM     18  N   UNL     1      47.306   3.863  14.829  0.00  0.00    +0.000 N 
ATOM     19  C   UNL     1      46.558   4.143  13.694  0.00  0.00    +0.000 A 
ATOM     20  C   UNL     1      46.524   5.389  13.053  0.00  0.00    +0.000 A 
ATOM     21  N   UNL     1      45.821   5.653  11.922  0.00  0.00    +0.000 NA
ATOM     22  C   UNL     1      45.156   4.580  11.419  0.00  0.00    +0.000 A 
ATOM     23  C   UNL     1      45.188   3.335  12.027  0.00  0.00    +0.000 A 
ATOM     24  N   UNL     1      45.878   3.100  13.176  0.00  0.00    +0.000 NA
ATOM     25  H   UNL     1      46.992   2.957  15.172  0.00  0.00    +0.000 HD
BRANCH  22  26
ATOM     26  C   UNL     1      44.382   4.783  10.167  0.00  0.00    +0.000 C 
ATOM     27  N   UNL     1      45.083   4.643   8.999  0.00  0.00    +0.000 N 
ATOM     28  O   UNL     1      43.187   5.059  10.176  0.00  0.00    +0.000 OA
ATOM     29  H   UNL     1      46.067   4.405   9.027  0.00  0.00    +0.000 HD
ATOM     30  H   UNL     1      44.607   4.756   8.115  0.00  0.00    +0.000 HD
ENDBRANCH  22  26
ENDBRANCH  17  18
ENDBRANCH   1  17
TORSDOF 5
ENDMDL
MODEL 8
REMARK VINA RESULT:    -6.453      3.854      6.257
REMARK INTER + INTRA:          -9.478
REMARK INTER:                  -8.534
REMARK INTRA:                  -0.944
REMARK UNBOUND:                -1.139
REMARK  Name = 
REMARK  8 active torsions:
REMARK  status: ('A' for Active; 'I' for Inactive)
REMARK    1  A    between atoms: C_1  and  C_2
REMARK    2  A    between atoms: C_4  and  C_5
REMARK    3  A    between atoms: C_9  and  C_10
REMARK    4  A    between atoms: C_10  and  C_11
REMARK    5  A    between atoms: C_10  and  C_12
REMARK    6  A    between atoms: C_10  and  C_13
REMARK    7  A    between atoms: C_13  and  N_14
REMARK    8  A    between atoms: C_18  and  C_19
REMARK                            x       y       z     vdW  Elec       q    Type
REMARK                         _______ _______ _______ _____ _____    ______ ____
ROOT
ATOM      1  C   UNL     1      48.832   8.285  12.932  0.00  0.00    +0.000 C 
ATOM      2  C   UNL     1      48.864   9.822  12.736  0.00  0.00    +0.000 C 
ATOM      3  C   UNL     1      49.299   7.594  11.635  0.00  0.00    +0.000 C 
ENDROOT
BRANCH   1   8
ATOM      4  C   UNL     1      50.187   6.614  16.163  0.00  0.00    +0.000 A 
ATOM      5  C   UNL     1      51.535   6.993  16.110  0.00  0.00    +0.000 A 
ATOM      6  C   UNL     1      52.005   7.848  15.115  0.00  0.00    +0.000 A 
ATOM      7  C   UNL     1      51.147   8.307  14.118  0.00  0.00    +0.000 A 
ATOM      8  C   UNL     1      49.795   7.929  14.095  0.00  0.00    +0.000 A 
ATOM      9  C   UNL     1      49.336   7.126  15.160  0.00  0.00    +0.000 A 
BRANCH   4  13
ATOM     10  C   UNL     1      47.168   2.850  17.583  0.00  0.00    +0.000 C 
ATOM     11  C   UNL     1      48.234   3.859  17.889  0.00  0.00    +0.000 A 
ATOM     12  C   UNL     1      48.702   4.718  16.898  0.00  0.00    +0.000 A 
ATOM     13  C   UNL     1      49.677   5.684  17.199  0.00  0.00    +0.000 A 
ATOM     14  C   UNL     1      50.148   5.712  18.516  0.00  0.00    +0.000 A 
ATOM     15  C   UNL     1      49.646   4.808  19.439  0.00  0.00    +0.000 A 
ATOM     16  N   UNL     1      48.699   3.890  19.155  0.00  0.00    +0.000 NA
ENDBRANCH   4  13
ENDBRANCH   1   8
BRANCH   1  17
ATOM     17  C   UNL     1      47.369   7.856  13.261  0.00  0.00    +0.000 C 
BRANCH  17  18
ATOM     18  N   UNL     1      46.505   7.715  12.095  0.00  0.00    +0.000 N 
ATOM     19  C   UNL     1      45.907   6.481  11.877  0.00  0.00    +0.000 A 
ATOM     20  C   UNL     1      45.464   5.623  12.892  0.00  0.00    +0.000 A 
ATOM     21  N   UNL     1      44.848   4.432  12.678  0.00  0.00    +0.000 NA
ATOM     22  C   UNL     1      44.653   4.137  11.366  0.00  0.00    +0.000 A 
ATOM     23  C   UNL     1      45.068   4.978  10.346  0.00  0.00    +0.000 A 
ATOM     24  N   UNL     1      45.709   6.155  10.583  0.00  0.00    +0.000 NA
ATOM     25  H   UNL     1      46.885   8.020  11.201  0.00  0.00    +0.000 HD
BRANCH  22  26
ATOM     26  C   UNL     1      43.962   2.860  11.050  0.00  0.00    +0.000 C 
ATOM     27  N   UNL     1      44.461   2.156   9.987  0.00  0.00    +0.000 N 
ATOM     28  O   UNL     1      43.002   2.459  11.700  0.00  0.00    +0.000 OA
ATOM     29  H   UNL     1      45.260   2.512   9.477  0.00  0.00    +0.000 HD
ATOM     30  H   UNL     1      44.040   1.274   9.732  0.00  0.00    +0.000 HD
ENDBRANCH  22  26
ENDBRANCH  17  18
ENDBRANCH   1  17
TORSDOF 5
ENDMDL
MODEL 9
REMARK VINA RESULT:    -6.166      4.432      6.907
REMARK INTER + INTRA:          -9.107
REMARK INTER:                  -8.033
REMARK INTRA:                  -1.074
REMARK UNBOUND:                -1.139
REMARK  Name = 
REMARK  8 active torsions:
REMARK  status: ('A' for Active; 'I' for Inactive)
REMARK    1  A    between atoms: C_1  and  C_2
REMARK    2  A    between atoms: C_4  and  C_5
REMARK    3  A    between atoms: C_9  and  C_10
REMARK    4  A    between atoms: C_10  and  C_11
REMARK    5  A    between atoms: C_10  and  C_12
REMARK    6  A    between atoms: C_10  and  C_13
REMARK    7  A    between atoms: C_13  and  N_14
REMARK    8  A    between atoms: C_18  and  C_19
REMARK                            x       y       z     vdW  Elec       q    Type
REMARK                         _______ _______ _______ _____ _____    ______ ____
ROOT
ATOM      1  C   UNL     1      49.208   9.207  15.373  0.00  0.00    +0.000 C 
ATOM      2  C   UNL     1      48.667  10.610  15.753  0.00  0.00    +0.000 C 
ATOM      3  C   UNL     1      50.745   9.267  15.252  0.00  0.00    +0.000 C 
ENDROOT
BRANCH   1   8
ATOM      4  C   UNL     1      48.887   5.897  17.373  0.00  0.00    +0.000 A 
ATOM      5  C   UNL     1      48.373   6.371  18.588  0.00  0.00    +0.000 A 
ATOM      6  C   UNL     1      48.039   7.713  18.753  0.00  0.00    +0.000 A 
ATOM      7  C   UNL     1      48.256   8.626  17.723  0.00  0.00    +0.000 A 
ATOM      8  C   UNL     1      48.806   8.217  16.497  0.00  0.00    +0.000 A 
ATOM      9  C   UNL     1      49.060   6.839  16.337  0.00  0.00    +0.000 A 
BRANCH   4  13
ATOM     10  C   UNL     1      52.245   2.173  17.766  0.00  0.00    +0.000 C 
ATOM     11  C   UNL     1      50.882   2.672  17.389  0.00  0.00    +0.000 A 
ATOM     12  C   UNL     1      50.540   4.008  17.576  0.00  0.00    +0.000 A 
ATOM     13  C   UNL     1      49.273   4.477  17.190  0.00  0.00    +0.000 A 
ATOM     14  C   UNL     1      48.396   3.535  16.639  0.00  0.00    +0.000 A 
ATOM     15  C   UNL     1      48.806   2.219  16.506  0.00  0.00    +0.000 A 
ATOM     16  N   UNL     1      50.027   1.770  16.863  0.00  0.00    +0.000 NA
ENDBRANCH   4  13
ENDBRANCH   1   8
BRANCH   1  17
ATOM     17  C   UNL     1      48.587   8.790  14.006  0.00  0.00    +0.000 C 
BRANCH  17  18
ATOM     18  N   UNL     1      47.145   8.582  14.035  0.00  0.00    +0.000 N 
ATOM     19  C   UNL     1      46.643   7.430  13.443  0.00  0.00    +0.000 A 
ATOM     20  C   UNL     1      47.293   6.189  13.447  0.00  0.00    +0.000 A 
ATOM     21  N   UNL     1      46.786   5.054  12.899  0.00  0.00    +0.000 NA
ATOM     22  C   UNL     1      45.548   5.204  12.360  0.00  0.00    +0.000 A 
ATOM     23  C   UNL     1      44.880   6.418  12.359  0.00  0.00    +0.000 A 
ATOM     24  N   UNL     1      45.419   7.549  12.890  0.00  0.00    +0.000 NA
ATOM     25  H   UNL     1      46.562   9.354  13.716  0.00  0.00    +0.000 HD
BRANCH  22  26
ATOM     26  C   UNL     1      44.915   4.000  11.761  0.00  0.00    +0.000 C 
ATOM     27  N   UNL     1      44.908   2.875  12.543  0.00  0.00    +0.000 N 
ATOM     28  O   UNL     1      44.428   4.010  10.636  0.00  0.00    +0.000 OA
ATOM     29  H   UNL     1      45.311   2.905  13.472  0.00  0.00    +0.000 HD
ATOM     30  H   UNL     1      44.480   2.030  12.196  0.00  0.00    +0.000 HD
ENDBRANCH  22  26
ENDBRANCH  17  18
ENDBRANCH   1  17
TORSDOF 5
ENDMDL
