MODEL 1
REMARK VINA RESULT:    -7.789      0.000      0.000
REMARK INTER + INTRA:         -10.014
REMARK INTER:                  -9.838
REMARK INTRA:                  -0.176
REMARK UNBOUND:                -0.176
REMARK  Name = 
REMARK  5 active torsions:
REMARK  status: ('A' for Active; 'I' for Inactive)
REMARK    1  A    between atoms: N_1  and  C_2
REMARK    2  A    between atoms: C_2  and  C_3
REMARK    3  A    between atoms: C_5  and  C_6
REMARK    4  A    between atoms: C_6  and  N_7
REMARK    5  A    between atoms: C_12  and  C_13
REMARK                            x       y       z     vdW  Elec       q    Type
REMARK                         _______ _______ _______ _____ _____    ______ ____
ROOT
ATOM      1  N   UNL     1      44.092   4.675  10.793  0.00  0.00    +0.000 N 
ATOM      2  C   UNL     1      43.468   3.619  11.411  0.00  0.00    +0.000 A 
ATOM      3  C   UNL     1      43.843   2.464  10.755  0.00  0.00    +0.000 A 
ATOM      4  C   UNL     1      44.724   2.831   9.703  0.00  0.00    +0.000 A 
ATOM      5  C   UNL     1      45.397   2.147   8.678  0.00  0.00    +0.000 A 
ATOM      6  C   UNL     1      46.181   2.897   7.790  0.00  0.00    +0.000 A 
ATOM      7  C   UNL     1      46.285   4.268   7.999  0.00  0.00    +0.000 A 
ATOM      8  N   UNL     1      45.668   4.971   8.977  0.00  0.00    +0.000 NA
ATOM      9  C   UNL     1      44.895   4.211   9.779  0.00  0.00    +0.000 A 
ENDROOT
BRANCH   6  10
ATOM     10  C   UNL     1      46.876   2.278   6.619  0.00  0.00    +0.000 C 
ATOM     11  F   UNL     1      46.809   0.918   6.598  0.00  0.00    +0.000 F 
ATOM     12  F   UNL     1      46.362   2.694   5.430  0.00  0.00    +0.000 F 
ATOM     13  F   UNL     1      48.202   2.584   6.575  0.00  0.00    +0.000 F 
ENDBRANCH   6  10
BRANCH   1  14
ATOM     14  C   UNL     1      43.939   6.070  11.165  0.00  0.00    +0.000 C 
BRANCH  14  17
ATOM     15  C   UNL     1      46.829   6.713  11.932  0.00  0.00    +0.000 C 
ATOM     16  C   UNL     1      45.645   7.502  12.468  0.00  0.00    +0.000 C 
ATOM     17  C   UNL     1      44.567   6.433  12.526  0.00  0.00    +0.000 C 
ATOM     18  C   UNL     1      45.389   5.261  13.058  0.00  0.00    +0.000 C 
ATOM     19  O   UNL     1      46.733   5.414  12.559  0.00  0.00    +0.000 OA
BRANCH  15  20
ATOM     20  C   UNL     1      48.204   7.357  12.148  0.00  0.00    +0.000 C 
BRANCH  20  21
ATOM     21  N   UNL     1      49.141   6.507  12.887  0.00  0.00    +0.000 NA
ATOM     22  H   UNL     1      49.425   5.732  12.290  0.00  0.00    +0.000 HD
ATOM     23  H   UNL     1      48.627   6.093  13.669  0.00  0.00    +0.000 HD
ENDBRANCH  20  21
ENDBRANCH  15  20
ENDBRANCH  14  17
ENDBRANCH   1  14
TORSDOF 5
ENDMDL
MODEL 2
REMARK VINA RESULT:    -7.007      4.057      6.300
REMARK INTER + INTRA:          -9.026
REMARK INTER:                  -8.491
REMARK INTRA:                  -0.534
REMARK UNBOUND:                -0.176
REMARK  Name = 
REMARK  5 active torsions:
REMARK  status: ('A' for Active; 'I' for Inactive)
REMARK    1  A    between atoms: N_1  and  C_2
REMARK    2  A    between atoms: C_2  and  C_3
REMARK    3  A    between atoms: C_5  and  C_6
REMARK    4  A    between atoms: C_6  and  N_7
REMARK    5  A    between atoms: C_12  and  C_13
REMARK                            x       y       z     vdW  Elec       q    Type
REMARK                         _______ _______ _______ _____ _____    ______ ____
ROOT
ATOM      1  N   UNL     1      44.380   4.037  11.098  0.00  0.00    +0.000 N 
ATOM      2  C   UNL     1      43.041   4.113  11.393  0.00  0.00    +0.000 A 
ATOM      3  C   UNL     1      42.792   5.367  11.912  0.00  0.00    +0.000 A 
ATOM      4  C   UNL     1      44.021   6.077  11.933  0.00  0.00    +0.000 A 
ATOM      5  C   UNL     1      44.436   7.346  12.371  0.00  0.00    +0.000 A 
ATOM      6  C   UNL     1      45.792   7.677  12.238  0.00  0.00    +0.000 A 
ATOM      7  C   UNL     1      46.642   6.753  11.640  0.00  0.00    +0.000 A 
ATOM      8  N   UNL     1      46.290   5.526  11.191  0.00  0.00    +0.000 NA
ATOM      9  C   UNL     1      44.985   5.239  11.378  0.00  0.00    +0.000 A 
ENDROOT
BRANCH   6  10
ATOM     10  C   UNL     1      46.351   8.970  12.742  0.00  0.00    +0.000 C 
ATOM     11  F   UNL     1      47.481   9.367  12.094  0.00  0.00    +0.000 F 
ATOM     12  F   UNL     1      45.471  10.001  12.618  0.00  0.00    +0.000 F 
ATOM     13  F   UNL     1      46.678   8.921  14.062  0.00  0.00    +0.000 F 
ENDBRANCH   6  10
BRANCH   1  14
ATOM     14  C   UNL     1      45.053   2.870  10.555  0.00  0.00    +0.000 C 
BRANCH  14  17
ATOM     15  C   UNL     1      46.606   2.238   7.998  0.00  0.00    +0.000 C 
ATOM     16  C   UNL     1      45.420   1.408   8.461  0.00  0.00    +0.000 C 
ATOM     17  C   UNL     1      44.565   2.456   9.152  0.00  0.00    +0.000 C 
ATOM     18  C   UNL     1      44.730   3.615   8.172  0.00  0.00    +0.000 C 
ATOM     19  O   UNL     1      46.045   3.505   7.590  0.00  0.00    +0.000 OA
BRANCH  15  20
ATOM     20  C   UNL     1      47.464   1.606   6.895  0.00  0.00    +0.000 C 
BRANCH  20  21
ATOM     21  N   UNL     1      48.527   2.486   6.401  0.00  0.00    +0.000 NA
ATOM     22  H   UNL     1      48.203   3.451   6.447  0.00  0.00    +0.000 HD
ATOM     23  H   UNL     1      48.662   2.275   5.409  0.00  0.00    +0.000 HD
ENDBRANCH  20  21
ENDBRANCH  15  20
ENDBRANCH  14  17
ENDBRANCH   1  14
TORSDOF 5
ENDMDL
MODEL 3
REMARK VINA RESULT:    -6.506      4.559      5.828
REMARK INTER + INTRA:          -8.393
REMARK INTER:                  -7.865
REMARK INTRA:                  -0.528
REMARK UNBOUND:                -0.176
REMARK  Name = 
REMARK  5 active torsions:
REMARK  status: ('A' for Active; 'I' for Inactive)
REMARK    1  A    between atoms: N_1  and  C_2
REMARK    2  A    between atoms: C_2  and  C_3
REMARK    3  A    between atoms: C_5  and  C_6
REMARK    4  A    between atoms: C_6  and  N_7
REMARK    5  A    between atoms: C_12  and  C_13
REMARK                            x       y       z     vdW  Elec       q    Type
REMARK                         _______ _______ _______ _____ _____    ______ ____
ROOT
ATOM      1  N   UNL     1      47.558   5.196  14.568  0.00  0.00    +0.000 N 
ATOM      2  C   UNL     1      47.937   6.508  14.417  0.00  0.00    +0.000 A 
ATOM      3  C   UNL     1      47.298   7.007  13.300  0.00  0.00    +0.000 A 
ATOM      4  C   UNL     1      46.503   5.964  12.756  0.00  0.00    +0.000 A 
ATOM      5  C   UNL     1      45.673   5.823  11.631  0.00  0.00    +0.000 A 
ATOM      6  C   UNL     1      45.063   4.579  11.416  0.00  0.00    +0.000 A 
ATOM      7  C   UNL     1      45.277   3.569  12.348  0.00  0.00    +0.000 A 
ATOM      8  N   UNL     1      46.055   3.659  13.451  0.00  0.00    +0.000 NA
ATOM      9  C   UNL     1      46.651   4.861  13.592  0.00  0.00    +0.000 A 
ENDROOT
BRANCH   6  10
ATOM     10  C   UNL     1      44.223   4.299  10.210  0.00  0.00    +0.000 C 
ATOM     11  F   UNL     1      43.833   2.999  10.105  0.00  0.00    +0.000 F 
ATOM     12  F   UNL     1      43.077   5.034  10.193  0.00  0.00    +0.000 F 
ATOM     13  F   UNL     1      44.864   4.589   9.045  0.00  0.00    +0.000 F 
ENDBRANCH   6  10
BRANCH   1  14
ATOM     14  C   UNL     1      48.030   4.305  15.612  0.00  0.00    +0.000 C 
BRANCH  14  17
ATOM     15  C   UNL     1      48.733   4.371  18.588  0.00  0.00    +0.000 C 
ATOM     16  C   UNL     1      47.580   5.168  18.002  0.00  0.00    +0.000 C 
ATOM     17  C   UNL     1      47.132   4.266  16.865  0.00  0.00    +0.000 C 
ATOM     18  C   UNL     1      47.241   2.906  17.551  0.00  0.00    +0.000 C 
ATOM     19  O   UNL     1      48.320   2.989  18.505  0.00  0.00    +0.000 OA
BRANCH  15  20
ATOM     20  C   UNL     1      49.152   4.763  20.010  0.00  0.00    +0.000 C 
BRANCH  20  21
ATOM     21  N   UNL     1      48.380   4.087  21.057  0.00  0.00    +0.000 NA
ATOM     22  H   UNL     1      47.647   4.714  21.383  0.00  0.00    +0.000 HD
ATOM     23  H   UNL     1      49.006   3.939  21.852  0.00  0.00    +0.000 HD
ENDBRANCH  20  21
ENDBRANCH  15  20
ENDBRANCH  14  17
ENDBRANCH   1  14
TORSDOF 5
ENDMDL
MODEL 4
REMARK VINA RESULT:    -6.325      4.280      6.518
REMARK INTER + INTRA:          -8.164
REMARK INTER:                  -7.797
REMARK INTRA:                  -0.368
REMARK UNBOUND:                -0.176
REMARK  Name = 
REMARK  5 active torsions:
REMARK  status: ('A' for Active; 'I' for Inactive)
REMARK    1  A    between atoms: N_1  and  C_2
REMARK    2  A    between atoms: C_2  and  C_3
REMARK    3  A    between atoms: C_5  and  C_6
REMARK    4  A    between atoms: C_6  and  N_7
REMARK    5  A    between atoms: C_12  and  C_13
REMARK                            x       y       z     vdW  Elec       q    Type
REMARK                         _______ _______ _______ _____ _____    ______ ____
ROOT
ATOM      1  N   UNL     1      45.302   4.387  10.857  0.00  0.00    +0.000 N 
ATOM      2  C   UNL     1      44.705   3.424  11.633  0.00  0.00    +0.000 A 
ATOM      3  C   UNL     1      45.107   3.623  12.938  0.00  0.00    +0.000 A 
ATOM      4  C   UNL     1      45.976   4.745  12.956  0.00  0.00    +0.000 A 
ATOM      5  C   UNL     1      46.730   5.411  13.937  0.00  0.00    +0.000 A 
ATOM      6  C   UNL     1      47.513   6.503  13.536  0.00  0.00    +0.000 A 
ATOM      7  C   UNL     1      47.467   6.895  12.202  0.00  0.00    +0.000 A 
ATOM      8  N   UNL     1      46.749   6.296  11.224  0.00  0.00    +0.000 NA
ATOM      9  C   UNL     1      46.045   5.228  11.651  0.00  0.00    +0.000 A 
ENDROOT
BRANCH   6  10
ATOM     10  C   UNL     1      48.411   7.233  14.484  0.00  0.00    +0.000 C 
ATOM     11  F   UNL     1      49.730   7.164  14.152  0.00  0.00    +0.000 F 
ATOM     12  F   UNL     1      48.116   8.559  14.562  0.00  0.00    +0.000 F 
ATOM     13  F   UNL     1      48.324   6.760  15.758  0.00  0.00    +0.000 F 
ENDBRANCH   6  10
BRANCH   1  14
ATOM     14  C   UNL     1      45.157   4.510   9.417  0.00  0.00    +0.000 C 
BRANCH  14  17
ATOM     15  C   UNL     1      46.697   2.543   7.654  0.00  0.00    +0.000 C 
ATOM     16  C   UNL     1      45.726   2.088   8.731  0.00  0.00    +0.000 C 
ATOM     17  C   UNL     1      44.706   3.213   8.716  0.00  0.00    +0.000 C 
ATOM     18  C   UNL     1      44.589   3.440   7.210  0.00  0.00    +0.000 C 
ATOM     19  O   UNL     1      45.873   3.138   6.627  0.00  0.00    +0.000 OA
BRANCH  15  20
ATOM     20  C   UNL     1      47.619   1.453   7.092  0.00  0.00    +0.000 C 
BRANCH  20  21
ATOM     21  N   UNL     1      48.372   1.873   5.907  0.00  0.00    +0.000 NA
ATOM     22  H   UNL     1      48.888   1.073   5.544  0.00  0.00    +0.000 HD
ATOM     23  H   UNL     1      49.072   2.552   6.214  0.00  0.00    +0.000 HD
ENDBRANCH  20  21
ENDBRANCH  15  20
ENDBRANCH  14  17
ENDBRANCH   1  14
TORSDOF 5
ENDMDL
MODEL 5
REMARK VINA RESULT:    -6.080      4.464      5.723
REMARK INTER + INTRA:          -7.855
REMARK INTER:                  -7.443
REMARK INTRA:                  -0.412
REMARK UNBOUND:                -0.176
REMARK  Name = 
REMARK  5 active torsions:
REMARK  status: ('A' for Active; 'I' for Inactive)
REMARK    1  A    between atoms: N_1  and  C_2
REMARK    2  A    between atoms: C_2  and  C_3
REMARK    3  A    between atoms: C_5  and  C_6
REMARK    4  A    between atoms: C_6  and  N_7
REMARK    5  A    between atoms: C_12  and  C_13
REMARK                            x       y       z     vdW  Elec       q    Type
REMARK                         _______ _______ _______ _____ _____    ______ ____
ROOT
ATOM      1  N   UNL     1      47.439   5.459  14.563  0.00  0.00    +0.000 N 
ATOM      2  C   UNL     1      48.051   6.645  14.236  0.00  0.00    +0.000 A 
ATOM      3  C   UNL     1      47.592   7.029  12.993  0.00  0.00    +0.000 A 
ATOM      4  C   UNL     1      46.670   6.045  12.550  0.00  0.00    +0.000 A 
ATOM      5  C   UNL     1      45.912   5.836  11.385  0.00  0.00    +0.000 A 
ATOM      6  C   UNL     1      45.113   4.687  11.317  0.00  0.00    +0.000 A 
ATOM      7  C   UNL     1      45.078   3.841  12.421  0.00  0.00    +0.000 A 
ATOM      8  N   UNL     1      45.777   4.003  13.568  0.00  0.00    +0.000 NA
ATOM      9  C   UNL     1      46.561   5.101  13.568  0.00  0.00    +0.000 A 
ENDROOT
BRANCH   6  10
ATOM     10  C   UNL     1      44.327   4.331  10.095  0.00  0.00    +0.000 C 
ATOM     11  F   UNL     1      44.015   3.009  10.010  0.00  0.00    +0.000 F 
ATOM     12  F   UNL     1      43.142   4.998  10.027  0.00  0.00    +0.000 F 
ATOM     13  F   UNL     1      44.986   4.631   8.942  0.00  0.00    +0.000 F 
ENDBRANCH   6  10
BRANCH   1  14
ATOM     14  C   UNL     1      47.671   4.707  15.783  0.00  0.00    +0.000 C 
BRANCH  14  17
ATOM     15  C   UNL     1      49.973   4.121  17.709  0.00  0.00    +0.000 C 
ATOM     16  C   UNL     1      49.774   5.482  17.063  0.00  0.00    +0.000 C 
ATOM     17  C   UNL     1      48.261   5.542  16.937  0.00  0.00    +0.000 C 
ATOM     18  C   UNL     1      47.863   4.938  18.283  0.00  0.00    +0.000 C 
ATOM     19  O   UNL     1      48.881   3.983  18.645  0.00  0.00    +0.000 OA
BRANCH  15  20
ATOM     20  C   UNL     1      51.336   3.900  18.377  0.00  0.00    +0.000 C 
BRANCH  20  21
ATOM     21  N   UNL     1      51.354   4.243  19.802  0.00  0.00    +0.000 NA
ATOM     22  H   UNL     1      52.026   4.993  19.952  0.00  0.00    +0.000 HD
ATOM     23  H   UNL     1      51.713   3.430  20.308  0.00  0.00    +0.000 HD
ENDBRANCH  20  21
ENDBRANCH  15  20
ENDBRANCH  14  17
ENDBRANCH   1  14
TORSDOF 5
ENDMDL
MODEL 6
REMARK VINA RESULT:    -6.048      5.617      8.023
REMARK INTER + INTRA:          -7.815
REMARK INTER:                  -7.290
REMARK INTRA:                  -0.526
REMARK UNBOUND:                -0.176
REMARK  Name = 
REMARK  5 active torsions:
REMARK  status: ('A' for Active; 'I' for Inactive)
REMARK    1  A    between atoms: N_1  and  C_2
REMARK    2  A    between atoms: C_2  and  C_3
REMARK    3  A    between atoms: C_5  and  C_6
REMARK    4  A    between atoms: C_6  and  N_7
REMARK    5  A    between atoms: C_12  and  C_13
REMARK                            x       y       z     vdW  Elec       q    Type
REMARK                         _______ _______ _______ _____ _____    ______ ____
ROOT
ATOM      1  N   UNL     1      47.639   6.429  13.641  0.00  0.00    +0.000 N 
ATOM      2  C   UNL     1      48.266   7.648  13.721  0.00  0.00    +0.000 A 
ATOM      3  C   UNL     1      48.895   7.721  14.948  0.00  0.00    +0.000 A 
ATOM      4  C   UNL     1      48.642   6.504  15.635  0.00  0.00    +0.000 A 
ATOM      5  C   UNL     1      48.957   5.988  16.903  0.00  0.00    +0.000 A 
ATOM      6  C   UNL     1      48.483   4.709  17.229  0.00  0.00    +0.000 A 
ATOM      7  C   UNL     1      47.768   4.005  16.266  0.00  0.00    +0.000 A 
ATOM      8  N   UNL     1      47.451   4.452  15.029  0.00  0.00    +0.000 NA
ATOM      9  C   UNL     1      47.894   5.701  14.778  0.00  0.00    +0.000 A 
ENDROOT
BRANCH   6  10
ATOM     10  C   UNL     1      48.696   4.098  18.577  0.00  0.00    +0.000 C 
ATOM     11  F   UNL     1      48.080   4.772  19.587  0.00  0.00    +0.000 F 
ATOM     12  F   UNL     1      48.234   2.820  18.647  0.00  0.00    +0.000 F 
ATOM     13  F   UNL     1      50.011   4.034  18.923  0.00  0.00    +0.000 F 
ENDBRANCH   6  10
BRANCH   1  14
ATOM     14  C   UNL     1      46.842   5.972  12.517  0.00  0.00    +0.000 C 
BRANCH  14  17
ATOM     15  C   UNL     1      44.506   4.227  11.594  0.00  0.00    +0.000 C 
ATOM     16  C   UNL     1      44.572   4.836  12.985  0.00  0.00    +0.000 C 
ATOM     17  C   UNL     1      45.320   6.130  12.716  0.00  0.00    +0.000 C 
ATOM     18  C   UNL     1      44.657   6.548  11.405  0.00  0.00    +0.000 C 
ATOM     19  O   UNL     1      44.294   5.343  10.701  0.00  0.00    +0.000 OA
BRANCH  15  20
ATOM     20  C   UNL     1      43.452   3.128  11.403  0.00  0.00    +0.000 C 
BRANCH  20  21
ATOM     21  N   UNL     1      43.485   2.097  12.443  0.00  0.00    +0.000 NA
ATOM     22  H   UNL     1      44.020   1.300  12.101  0.00  0.00    +0.000 HD
ATOM     23  H   UNL     1      42.526   1.763  12.574  0.00  0.00    +0.000 HD
ENDBRANCH  20  21
ENDBRANCH  15  20
ENDBRANCH  14  17
ENDBRANCH   1  14
TORSDOF 5
ENDMDL
MODEL 7
REMARK VINA RESULT:    -5.965      3.390      5.150
REMARK INTER + INTRA:          -7.710
REMARK INTER:                  -7.060
REMARK INTRA:                  -0.649
REMARK UNBOUND:                -0.176
REMARK  Name = 
REMARK  5 active torsions:
REMARK  status: ('A' for Active; 'I' for Inactive)
REMARK    1  A    between atoms: N_1  and  C_2
REMARK    2  A    between atoms: C_2  and  C_3
REMARK    3  A    between atoms: C_5  and  C_6
REMARK    4  A    between atoms: C_6  and  N_7
REMARK    5  A    between atoms: C_12  and  C_13
REMARK                            x       y       z     vdW  Elec       q    Type
REMARK                         _______ _______ _______ _____ _____    ______ ____
ROOT
ATOM      1  N   UNL     1      47.343   7.208  12.627  0.00  0.00    +0.000 N 
ATOM      2  C   UNL     1      47.974   6.775  13.768  0.00  0.00    +0.000 A 
ATOM      3  C   UNL     1      47.477   5.525  14.077  0.00  0.00    +0.000 A 
ATOM      4  C   UNL     1      46.513   5.187  13.091  0.00  0.00    +0.000 A 
ATOM      5  C   UNL     1      45.645   4.105  12.870  0.00  0.00    +0.000 A 
ATOM      6  C   UNL     1      44.796   4.159  11.756  0.00  0.00    +0.000 A 
ATOM      7  C   UNL     1      44.889   5.257  10.908  0.00  0.00    +0.000 A 
ATOM      8  N   UNL     1      45.715   6.317  11.069  0.00  0.00    +0.000 NA
ATOM      9  C   UNL     1      46.483   6.236  12.176  0.00  0.00    +0.000 A 
ENDROOT
BRANCH   6  10
ATOM     10  C   UNL     1      43.781   3.097  11.473  0.00  0.00    +0.000 C 
ATOM     11  F   UNL     1      44.062   2.354  10.367  0.00  0.00    +0.000 F 
ATOM     12  F   UNL     1      43.659   2.208  12.496  0.00  0.00    +0.000 F 
ATOM     13  F   UNL     1      42.534   3.603  11.273  0.00  0.00    +0.000 F 
ENDBRANCH   6  10
BRANCH   1  14
ATOM     14  C   UNL     1      47.564   8.492  11.986  0.00  0.00    +0.000 C 
BRANCH  14  17
ATOM     15  C   UNL     1      44.867   9.728  11.245  0.00  0.00    +0.000 C 
ATOM     16  C   UNL     1      45.274   9.455  12.683  0.00  0.00    +0.000 C 
ATOM     17  C   UNL     1      46.778   9.658  12.618  0.00  0.00    +0.000 C 
ATOM     18  C   UNL     1      46.837  10.887  11.714  0.00  0.00    +0.000 C 
ATOM     19  O   UNL     1      45.717  10.812  10.809  0.00  0.00    +0.000 OA
BRANCH  15  20
ATOM     20  C   UNL     1      43.380  10.038  11.026  0.00  0.00    +0.000 C 
BRANCH  20  21
ATOM     21  N   UNL     1      42.563   8.847  10.776  0.00  0.00    +0.000 NA
ATOM     22  H   UNL     1      41.587   9.128  10.697  0.00  0.00    +0.000 HD
ATOM     23  H   UNL     1      42.625   8.253  11.607  0.00  0.00    +0.000 HD
ENDBRANCH  20  21
ENDBRANCH  15  20
ENDBRANCH  14  17
ENDBRANCH   1  14
TORSDOF 5
ENDMDL
MODEL 8
REMARK VINA RESULT:    -5.465      3.508      5.293
REMARK INTER + INTRA:          -7.079
REMARK INTER:                  -6.577
REMARK INTRA:                  -0.501
REMARK UNBOUND:                -0.176
REMARK  Name = 
REMARK  5 active torsions:
REMARK  status: ('A' for Active; 'I' for Inactive)
REMARK    1  A    between atoms: N_1  and  C_2
REMARK    2  A    between atoms: C_2  and  C_3
REMARK    3  A    between atoms: C_5  and  C_6
REMARK    4  A    between atoms: C_6  and  N_7
REMARK    5  A    between atoms: C_12  and  C_13
REMARK                            x       y       z     vdW  Elec       q    Type
REMARK                         _______ _______ _______ _____ _____    ______ ____
ROOT
ATOM      1  N   UNL     1      47.509   7.129  13.307  0.00  0.00    +0.000 N 
ATOM      2  C   UNL     1      48.057   6.434  14.357  0.00  0.00    +0.000 A 
ATOM      3  C   UNL     1      47.410   5.219  14.445  0.00  0.00    +0.000 A 
ATOM      4  C   UNL     1      46.436   5.173  13.413  0.00  0.00    +0.000 A 
ATOM      5  C   UNL     1      45.451   4.257  13.006  0.00  0.00    +0.000 A 
ATOM      6  C   UNL     1      44.640   4.603  11.916  0.00  0.00    +0.000 A 
ATOM      7  C   UNL     1      44.882   5.811  11.270  0.00  0.00    +0.000 A 
ATOM      8  N   UNL     1      45.824   6.720  11.615  0.00  0.00    +0.000 NA
ATOM      9  C   UNL     1      46.550   6.359  12.692  0.00  0.00    +0.000 A 
ENDROOT
BRANCH   6  10
ATOM     10  C   UNL     1      43.514   3.735  11.451  0.00  0.00    +0.000 C 
ATOM     11  F   UNL     1      43.724   3.176  10.227  0.00  0.00    +0.000 F 
ATOM     12  F   UNL     1      43.275   2.697  12.298  0.00  0.00    +0.000 F 
ATOM     13  F   UNL     1      42.337   4.411  11.353  0.00  0.00    +0.000 F 
ENDBRANCH   6  10
BRANCH   1  14
ATOM     14  C   UNL     1      47.895   8.468  12.898  0.00  0.00    +0.000 C 
BRANCH  14  17
ATOM     15  C   UNL     1      50.915   8.831  12.580  0.00  0.00    +0.000 C 
ATOM     16  C   UNL     1      50.124   7.815  11.773  0.00  0.00    +0.000 C 
ATOM     17  C   UNL     1      48.781   8.511  11.636  0.00  0.00    +0.000 C 
ATOM     18  C   UNL     1      49.253   9.940  11.372  0.00  0.00    +0.000 C 
ATOM     19  O   UNL     1      50.498  10.120  12.077  0.00  0.00    +0.000 OA
BRANCH  15  20
ATOM     20  C   UNL     1      52.439   8.663  12.542  0.00  0.00    +0.000 C 
BRANCH  20  21
ATOM     21  N   UNL     1      52.964   7.824  13.621  0.00  0.00    +0.000 NA
ATOM     22  H   UNL     1      53.873   8.184  13.907  0.00  0.00    +0.000 HD
ATOM     23  H   UNL     1      53.134   6.893  13.231  0.00  0.00    +0.000 HD
ENDBRANCH  20  21
ENDBRANCH  15  20
ENDBRANCH  14  17
ENDBRANCH   1  14
TORSDOF 5
ENDMDL
MODEL 9
REMARK VINA RESULT:    -5.402      5.791      8.402
REMARK INTER + INTRA:          -6.998
REMARK INTER:                  -6.506
REMARK INTRA:                  -0.492
REMARK UNBOUND:                -0.176
REMARK  Name = 
REMARK  5 active torsions:
REMARK  status: ('A' for Active; 'I' for Inactive)
REMARK    1  A    between atoms: N_1  and  C_2
REMARK    2  A    between atoms: C_2  and  C_3
REMARK    3  A    between atoms: C_5  and  C_6
REMARK    4  A    between atoms: C_6  and  N_7
REMARK    5  A    between atoms: C_12  and  C_13
REMARK                            x       y       z     vdW  Elec       q    Type
REMARK                         _______ _______ _______ _____ _____    ______ ____
ROOT
ATOM      1  N   UNL     1      47.440   4.667  15.327  0.00  0.00    +0.000 N 
ATOM      2  C   UNL     1      47.083   4.037  16.494  0.00  0.00    +0.000 A 
ATOM      3  C   UNL     1      47.793   4.619  17.524  0.00  0.00    +0.000 A 
ATOM      4  C   UNL     1      48.608   5.638  16.964  0.00  0.00    +0.000 A 
ATOM      5  C   UNL     1      49.565   6.539  17.461  0.00  0.00    +0.000 A 
ATOM      6  C   UNL     1      50.192   7.401  16.550  0.00  0.00    +0.000 A 
ATOM      7  C   UNL     1      49.801   7.349  15.216  0.00  0.00    +0.000 A 
ATOM      8  N   UNL     1      48.878   6.511  14.692  0.00  0.00    +0.000 NA
ATOM      9  C   UNL     1      48.334   5.675  15.600  0.00  0.00    +0.000 A 
ENDROOT
BRANCH   6  10
ATOM     10  C   UNL     1      51.278   8.344  16.961  0.00  0.00    +0.000 C 
ATOM     11  F   UNL     1      50.905   9.217  17.937  0.00  0.00    +0.000 F 
ATOM     12  F   UNL     1      52.375   7.697  17.440  0.00  0.00    +0.000 F 
ATOM     13  F   UNL     1      51.724   9.112  15.928  0.00  0.00    +0.000 F 
ENDBRANCH   6  10
BRANCH   1  14
ATOM     14  C   UNL     1      46.935   4.332  14.008  0.00  0.00    +0.000 C 
BRANCH  14  17
ATOM     15  C   UNL     1      44.757   3.846  11.917  0.00  0.00    +0.000 C 
ATOM     16  C   UNL     1      44.472   4.500  13.259  0.00  0.00    +0.000 C 
ATOM     17  C   UNL     1      45.777   5.229  13.527  0.00  0.00    +0.000 C 
ATOM     18  C   UNL     1      46.069   5.765  12.128  0.00  0.00    +0.000 C 
ATOM     19  O   UNL     1      45.536   4.816  11.182  0.00  0.00    +0.000 OA
BRANCH  15  20
ATOM     20  C   UNL     1      43.523   3.383  11.132  0.00  0.00    +0.000 C 
BRANCH  20  21
ATOM     21  N   UNL     1      42.980   2.103  11.593  0.00  0.00    +0.000 NA
ATOM     22  H   UNL     1      43.685   1.630  12.157  0.00  0.00    +0.000 HD
ATOM     23  H   UNL     1      42.833   1.517  10.767  0.00  0.00    +0.000 HD
ENDBRANCH  20  21
ENDBRANCH  15  20
ENDBRANCH  14  17
ENDBRANCH   1  14
TORSDOF 5
ENDMDL
