MODEL 1
REMARK VINA RESULT:    -8.797      0.000      0.000
REMARK INTER + INTRA:         -11.375
REMARK INTER:                 -10.854
REMARK INTRA:                  -0.521
REMARK UNBOUND:                -0.521
REMARK  Name = 
REMARK  4 active torsions:
REMARK  status: ('A' for Active; 'I' for Inactive)
REMARK    1  A    between atoms: C_2  and  C_4
REMARK    2  A    between atoms: N_8  and  C_9
REMARK    3  A    between atoms: C_9  and  C_10
REMARK    4  A    between atoms: C_14  and  C_15
REMARK                            x       y       z     vdW  Elec       q    Type
REMARK                         _______ _______ _______ _____ _____    ______ ____
ROOT
ATOM      1  C   UNL     1      44.235   5.274  11.298  0.00  0.00    +0.000 C 
ATOM      2  C   UNL     1      43.067   4.318  11.380  0.00  0.00    +0.000 C 
ATOM      3  C   UNL     1      42.807   5.783  11.349  0.00  0.00    +0.000 C 
ENDROOT
BRANCH   1   8
ATOM      4  C   UNL     1      46.270   2.184   7.864  0.00  0.00    +0.000 A 
ATOM      5  C   UNL     1      46.247   3.434   7.255  0.00  0.00    +0.000 A 
ATOM      6  C   UNL     1      45.726   4.518   7.953  0.00  0.00    +0.000 A 
ATOM      7  C   UNL     1      45.252   4.318   9.246  0.00  0.00    +0.000 A 
ATOM      8  N   UNL     1      45.000   5.460  10.046  0.00  0.00    +0.000 N 
ATOM      9  N   UNL     1      45.119   3.080   9.769  0.00  0.00    +0.000 NA
ATOM     10  C   UNL     1      45.626   2.035   9.080  0.00  0.00    +0.000 A 
ATOM     11  H   UNL     1      45.833   6.028  10.107  0.00  0.00    +0.000 HD
BRANCH   4  13
ATOM     12  N   UNL     1      46.661  -0.186   7.753  0.00  0.00    +0.000 N 
ATOM     13  C   UNL     1      47.070   1.059   7.348  0.00  0.00    +0.000 C 
ATOM     14  O   UNL     1      47.959   1.214   6.535  0.00  0.00    +0.000 OA
ATOM     15  H   UNL     1      47.065  -0.969   7.248  0.00  0.00    +0.000 HD
ATOM     16  H   UNL     1      45.770  -0.343   8.197  0.00  0.00    +0.000 HD
ENDBRANCH   4  13
ENDBRANCH   1   8
BRANCH   1  17
ATOM     17  C   UNL     1      45.194   5.368  12.470  0.00  0.00    +0.000 A 
ATOM     18  C   UNL     1      45.321   4.285  13.358  0.00  0.00    +0.000 A 
ATOM     19  C   UNL     1      46.471   4.118  14.126  0.00  0.00    +0.000 A 
ATOM     20  C   UNL     1      47.510   5.046  14.026  0.00  0.00    +0.000 A 
ATOM     21  C   UNL     1      47.388   6.181  13.208  0.00  0.00    +0.000 A 
ATOM     22  C   UNL     1      46.198   6.346  12.483  0.00  0.00    +0.000 A 
BRANCH  21  23
ATOM     23  C   UNL     1      48.516   7.091  12.954  0.00  0.00    +0.000 A 
ATOM     24  C   UNL     1      48.763   7.639  11.689  0.00  0.00    +0.000 A 
ATOM     25  C   UNL     1      49.914   8.389  11.459  0.00  0.00    +0.000 A 
ATOM     26  C   UNL     1      50.788   8.587  12.514  0.00  0.00    +0.000 A 
ATOM     27  N   UNL     1      50.592   8.102  13.756  0.00  0.00    +0.000 NA
ATOM     28  C   UNL     1      49.469   7.357  13.938  0.00  0.00    +0.000 A 
ENDBRANCH  21  23
ENDBRANCH   1  17
TORSDOF 4
ENDMDL
MODEL 2
REMARK VINA RESULT:    -7.323      3.352      7.426
REMARK INTER + INTRA:          -9.557
REMARK INTER:                  -9.342
REMARK INTRA:                  -0.214
REMARK UNBOUND:                -0.521
REMARK  Name = 
REMARK  4 active torsions:
REMARK  status: ('A' for Active; 'I' for Inactive)
REMARK    1  A    between atoms: C_2  and  C_4
REMARK    2  A    between atoms: N_8  and  C_9
REMARK    3  A    between atoms: C_9  and  C_10
REMARK    4  A    between atoms: C_14  and  C_15
REMARK                            x       y       z     vdW  Elec       q    Type
REMARK                         _______ _______ _______ _____ _____    ______ ____
ROOT
ATOM      1  C   UNL     1      48.457   7.812  13.072  0.00  0.00    +0.000 C 
ATOM      2  C   UNL     1      49.507   7.175  12.190  0.00  0.00    +0.000 C 
ATOM      3  C   UNL     1      49.361   8.656  12.194  0.00  0.00    +0.000 C 
ENDROOT
BRANCH   1   8
ATOM      4  C   UNL     1      48.091   4.559  16.913  0.00  0.00    +0.000 A 
ATOM      5  C   UNL     1      48.763   5.659  17.436  0.00  0.00    +0.000 A 
ATOM      6  C   UNL     1      49.032   6.744  16.608  0.00  0.00    +0.000 A 
ATOM      7  C   UNL     1      48.610   6.697  15.283  0.00  0.00    +0.000 A 
ATOM      8  N   UNL     1      48.624   7.902  14.539  0.00  0.00    +0.000 N 
ATOM      9  N   UNL     1      48.113   5.566  14.736  0.00  0.00    +0.000 NA
ATOM     10  C   UNL     1      47.859   4.519  15.549  0.00  0.00    +0.000 A 
ATOM     11  H   UNL     1      48.076   8.606  15.011  0.00  0.00    +0.000 HD
BRANCH   4  13
ATOM     12  N   UNL     1      48.088   3.336  18.984  0.00  0.00    +0.000 N 
ATOM     13  C   UNL     1      47.490   3.514  17.762  0.00  0.00    +0.000 C 
ATOM     14  O   UNL     1      46.472   2.930  17.450  0.00  0.00    +0.000 OA
ATOM     15  H   UNL     1      47.567   2.776  19.652  0.00  0.00    +0.000 HD
ATOM     16  H   UNL     1      48.750   3.994  19.361  0.00  0.00    +0.000 HD
ENDBRANCH   4  13
ENDBRANCH   1   8
BRANCH   1  17
ATOM     17  C   UNL     1      46.991   7.568  12.765  0.00  0.00    +0.000 A 
ATOM     18  C   UNL     1      46.088   8.646  12.759  0.00  0.00    +0.000 A 
ATOM     19  C   UNL     1      44.894   8.578  12.046  0.00  0.00    +0.000 A 
ATOM     20  C   UNL     1      44.577   7.418  11.337  0.00  0.00    +0.000 A 
ATOM     21  C   UNL     1      45.416   6.293  11.381  0.00  0.00    +0.000 A 
ATOM     22  C   UNL     1      46.590   6.376  12.147  0.00  0.00    +0.000 A 
BRANCH  21  23
ATOM     23  C   UNL     1      45.199   5.117  10.525  0.00  0.00    +0.000 A 
ATOM     24  C   UNL     1      45.698   5.042   9.219  0.00  0.00    +0.000 A 
ATOM     25  C   UNL     1      45.359   3.969   8.396  0.00  0.00    +0.000 A 
ATOM     26  C   UNL     1      44.537   2.983   8.911  0.00  0.00    +0.000 A 
ATOM     27  N   UNL     1      44.045   2.992  10.166  0.00  0.00    +0.000 NA
ATOM     28  C   UNL     1      44.379   4.063  10.933  0.00  0.00    +0.000 A 
ENDBRANCH  21  23
ENDBRANCH   1  17
TORSDOF 4
ENDMDL
MODEL 3
REMARK VINA RESULT:    -6.508      3.197      6.991
REMARK INTER + INTRA:          -8.552
REMARK INTER:                  -8.032
REMARK INTRA:                  -0.520
REMARK UNBOUND:                -0.521
REMARK  Name = 
REMARK  4 active torsions:
REMARK  status: ('A' for Active; 'I' for Inactive)
REMARK    1  A    between atoms: C_2  and  C_4
REMARK    2  A    between atoms: N_8  and  C_9
REMARK    3  A    between atoms: C_9  and  C_10
REMARK    4  A    between atoms: C_14  and  C_15
REMARK                            x       y       z     vdW  Elec       q    Type
REMARK                         _______ _______ _______ _____ _____    ______ ____
ROOT
ATOM      1  C   UNL     1      46.510   4.460  13.395  0.00  0.00    +0.000 C 
ATOM      2  C   UNL     1      46.158   4.620  14.857  0.00  0.00    +0.000 C 
ATOM      3  C   UNL     1      47.200   3.633  14.463  0.00  0.00    +0.000 C 
ENDROOT
BRANCH   1   8
ATOM      4  C   UNL     1      45.863   9.321  12.200  0.00  0.00    +0.000 A 
ATOM      5  C   UNL     1      47.219   9.078  12.000  0.00  0.00    +0.000 A 
ATOM      6  C   UNL     1      47.723   7.808  12.256  0.00  0.00    +0.000 A 
ATOM      7  C   UNL     1      46.852   6.815  12.695  0.00  0.00    +0.000 A 
ATOM      8  N   UNL     1      47.307   5.474  12.672  0.00  0.00    +0.000 N 
ATOM      9  N   UNL     1      45.579   7.095  13.050  0.00  0.00    +0.000 NA
ATOM     10  C   UNL     1      45.101   8.333  12.799  0.00  0.00    +0.000 A 
ATOM     11  H   UNL     1      47.608   5.228  11.740  0.00  0.00    +0.000 HD
BRANCH   4  13
ATOM     12  N   UNL     1      43.866  10.652  12.043  0.00  0.00    +0.000 N 
ATOM     13  C   UNL     1      45.180  10.514  11.670  0.00  0.00    +0.000 C 
ATOM     14  O   UNL     1      45.765  11.372  11.040  0.00  0.00    +0.000 OA
ATOM     15  H   UNL     1      43.450  11.560  11.861  0.00  0.00    +0.000 HD
ATOM     16  H   UNL     1      43.456  10.102  12.779  0.00  0.00    +0.000 HD
ENDBRANCH   4  13
ENDBRANCH   1   8
BRANCH   1  17
ATOM     17  C   UNL     1      45.470   3.892  12.446  0.00  0.00    +0.000 A 
ATOM     18  C   UNL     1      44.116   4.230  12.609  0.00  0.00    +0.000 A 
ATOM     19  C   UNL     1      43.223   4.147  11.544  0.00  0.00    +0.000 A 
ATOM     20  C   UNL     1      43.671   3.706  10.297  0.00  0.00    +0.000 A 
ATOM     21  C   UNL     1      44.999   3.287  10.115  0.00  0.00    +0.000 A 
ATOM     22  C   UNL     1      45.864   3.339  11.220  0.00  0.00    +0.000 A 
BRANCH  21  23
ATOM     23  C   UNL     1      45.548   2.971   8.788  0.00  0.00    +0.000 A 
ATOM     24  C   UNL     1      45.985   1.684   8.447  0.00  0.00    +0.000 A 
ATOM     25  C   UNL     1      46.619   1.455   7.228  0.00  0.00    +0.000 A 
ATOM     26  C   UNL     1      46.787   2.525   6.366  0.00  0.00    +0.000 A 
ATOM     27  N   UNL     1      46.369   3.779   6.631  0.00  0.00    +0.000 NA
ATOM     28  C   UNL     1      45.773   3.969   7.838  0.00  0.00    +0.000 A 
ENDBRANCH  21  23
ENDBRANCH   1  17
TORSDOF 4
ENDMDL
MODEL 4
REMARK VINA RESULT:    -6.306      2.785      6.834
REMARK INTER + INTRA:          -8.302
REMARK INTER:                  -8.552
REMARK INTRA:                   0.250
REMARK UNBOUND:                -0.521
REMARK  Name = 
REMARK  4 active torsions:
REMARK  status: ('A' for Active; 'I' for Inactive)
REMARK    1  A    between atoms: C_2  and  C_4
REMARK    2  A    between atoms: N_8  and  C_9
REMARK    3  A    between atoms: C_9  and  C_10
REMARK    4  A    between atoms: C_14  and  C_15
REMARK                            x       y       z     vdW  Elec       q    Type
REMARK                         _______ _______ _______ _____ _____    ______ ____
ROOT
ATOM      1  C   UNL     1      46.097   5.189  13.560  0.00  0.00    +0.000 C 
ATOM      2  C   UNL     1      46.433   4.320  14.751  0.00  0.00    +0.000 C 
ATOM      3  C   UNL     1      47.472   4.567  13.714  0.00  0.00    +0.000 C 
ENDROOT
BRANCH   1   8
ATOM      4  C   UNL     1      48.553   9.144  11.609  0.00  0.00    +0.000 A 
ATOM      5  C   UNL     1      47.372   9.671  12.123  0.00  0.00    +0.000 A 
ATOM      6  C   UNL     1      46.458   8.817  12.731  0.00  0.00    +0.000 A 
ATOM      7  C   UNL     1      46.760   7.461  12.815  0.00  0.00    +0.000 A 
ATOM      8  N   UNL     1      45.976   6.658  13.680  0.00  0.00    +0.000 N 
ATOM      9  N   UNL     1      47.819   6.929  12.168  0.00  0.00    +0.000 NA
ATOM     10  C   UNL     1      48.698   7.768  11.579  0.00  0.00    +0.000 A 
ATOM     11  H   UNL     1      45.999   7.037  14.616  0.00  0.00    +0.000 HD
BRANCH   4  13
ATOM     12  N   UNL     1      50.937   9.425  11.472  0.00  0.00    +0.000 N 
ATOM     13  C   UNL     1      49.706   9.983  11.237  0.00  0.00    +0.000 C 
ATOM     14  O   UNL     1      49.577  11.045  10.662  0.00  0.00    +0.000 OA
ATOM     15  H   UNL     1      51.724   9.895  11.036  0.00  0.00    +0.000 HD
ATOM     16  H   UNL     1      51.053   8.448  11.687  0.00  0.00    +0.000 HD
ENDBRANCH   4  13
ENDBRANCH   1   8
BRANCH   1  17
ATOM     17  C   UNL     1      45.070   4.698  12.557  0.00  0.00    +0.000 A 
ATOM     18  C   UNL     1      43.785   5.270  12.534  0.00  0.00    +0.000 A 
ATOM     19  C   UNL     1      42.997   5.216  11.387  0.00  0.00    +0.000 A 
ATOM     20  C   UNL     1      43.479   4.573  10.245  0.00  0.00    +0.000 A 
ATOM     21  C   UNL     1      44.725   3.925  10.254  0.00  0.00    +0.000 A 
ATOM     22  C   UNL     1      45.476   3.956  11.440  0.00  0.00    +0.000 A 
BRANCH  21  23
ATOM     23  C   UNL     1      45.334   3.378   9.032  0.00  0.00    +0.000 A 
ATOM     24  C   UNL     1      45.664   2.023   8.904  0.00  0.00    +0.000 A 
ATOM     25  C   UNL     1      46.358   1.569   7.784  0.00  0.00    +0.000 A 
ATOM     26  C   UNL     1      46.695   2.488   6.806  0.00  0.00    +0.000 A 
ATOM     27  N   UNL     1      46.386   3.799   6.866  0.00  0.00    +0.000 NA
ATOM     28  C   UNL     1      45.726   4.209   7.982  0.00  0.00    +0.000 A 
ENDBRANCH  21  23
ENDBRANCH   1  17
TORSDOF 4
ENDMDL
MODEL 5
REMARK VINA RESULT:    -6.141      3.944      7.965
REMARK INTER + INTRA:          -8.098
REMARK INTER:                  -7.396
REMARK INTRA:                  -0.701
REMARK UNBOUND:                -0.521
REMARK  Name = 
REMARK  4 active torsions:
REMARK  status: ('A' for Active; 'I' for Inactive)
REMARK    1  A    between atoms: C_2  and  C_4
REMARK    2  A    between atoms: N_8  and  C_9
REMARK    3  A    between atoms: C_9  and  C_10
REMARK    4  A    between atoms: C_14  and  C_15
REMARK                            x       y       z     vdW  Elec       q    Type
REMARK                         _______ _______ _______ _____ _____    ______ ____
ROOT
ATOM      1  C   UNL     1      48.840   8.522  16.550  0.00  0.00    +0.000 C 
ATOM      2  C   UNL     1      50.007   9.220  17.210  0.00  0.00    +0.000 C 
ATOM      3  C   UNL     1      48.662   9.859  17.244  0.00  0.00    +0.000 C 
ENDROOT
BRANCH   1   8
ATOM      4  C   UNL     1      50.350   3.827  17.622  0.00  0.00    +0.000 A 
ATOM      5  C   UNL     1      49.171   3.998  18.340  0.00  0.00    +0.000 A 
ATOM      6  C   UNL     1      48.502   5.215  18.261  0.00  0.00    +0.000 A 
ATOM      7  C   UNL     1      49.030   6.220  17.456  0.00  0.00    +0.000 A 
ATOM      8  N   UNL     1      48.204   7.331  17.153  0.00  0.00    +0.000 N 
ATOM      9  N   UNL     1      50.256   6.112  16.899  0.00  0.00    +0.000 NA
ATOM     10  C   UNL     1      50.897   4.927  16.985  0.00  0.00    +0.000 A 
ATOM     11  H   UNL     1      47.344   7.015  16.728  0.00  0.00    +0.000 HD
BRANCH   4  13
ATOM     12  N   UNL     1      52.009   2.188  18.211  0.00  0.00    +0.000 N 
ATOM     13  C   UNL     1      50.957   2.504  17.388  0.00  0.00    +0.000 C 
ATOM     14  O   UNL     1      50.491   1.705  16.601  0.00  0.00    +0.000 OA
ATOM     15  H   UNL     1      52.297   1.215  18.203  0.00  0.00    +0.000 HD
ATOM     16  H   UNL     1      52.223   2.719  19.039  0.00  0.00    +0.000 HD
ENDBRANCH   4  13
ENDBRANCH   1   8
BRANCH   1  17
ATOM     17  C   UNL     1      48.836   8.361  15.040  0.00  0.00    +0.000 A 
ATOM     18  C   UNL     1      50.012   8.604  14.309  0.00  0.00    +0.000 A 
ATOM     19  C   UNL     1      50.205   8.035  13.053  0.00  0.00    +0.000 A 
ATOM     20  C   UNL     1      49.212   7.223  12.500  0.00  0.00    +0.000 A 
ATOM     21  C   UNL     1      47.993   7.020  13.167  0.00  0.00    +0.000 A 
ATOM     22  C   UNL     1      47.810   7.645  14.411  0.00  0.00    +0.000 A 
BRANCH  21  23
ATOM     23  C   UNL     1      46.993   6.049  12.697  0.00  0.00    +0.000 A 
ATOM     24  C   UNL     1      46.369   6.166  11.448  0.00  0.00    +0.000 A 
ATOM     25  C   UNL     1      45.334   5.303  11.095  0.00  0.00    +0.000 A 
ATOM     26  C   UNL     1      44.956   4.328  12.000  0.00  0.00    +0.000 A 
ATOM     27  N   UNL     1      45.534   4.155  13.206  0.00  0.00    +0.000 NA
ATOM     28  C   UNL     1      46.526   5.028  13.526  0.00  0.00    +0.000 A 
ENDBRANCH  21  23
ENDBRANCH   1  17
TORSDOF 4
ENDMDL
MODEL 6
REMARK VINA RESULT:    -6.108      3.769      6.152
REMARK INTER + INTRA:          -8.058
REMARK INTER:                  -7.547
REMARK INTRA:                  -0.511
REMARK UNBOUND:                -0.521
REMARK  Name = 
REMARK  4 active torsions:
REMARK  status: ('A' for Active; 'I' for Inactive)
REMARK    1  A    between atoms: C_2  and  C_4
REMARK    2  A    between atoms: N_8  and  C_9
REMARK    3  A    between atoms: C_9  and  C_10
REMARK    4  A    between atoms: C_14  and  C_15
REMARK                            x       y       z     vdW  Elec       q    Type
REMARK                         _______ _______ _______ _____ _____    ______ ____
ROOT
ATOM      1  C   UNL     1      48.712   8.681  12.965  0.00  0.00    +0.000 C 
ATOM      2  C   UNL     1      48.065   9.983  12.549  0.00  0.00    +0.000 C 
ATOM      3  C   UNL     1      49.474   9.712  12.154  0.00  0.00    +0.000 C 
ENDROOT
BRANCH   1   8
ATOM      4  C   UNL     1      44.423   6.158  12.118  0.00  0.00    +0.000 A 
ATOM      5  C   UNL     1      45.362   5.563  11.281  0.00  0.00    +0.000 A 
ATOM      6  C   UNL     1      46.666   6.048  11.274  0.00  0.00    +0.000 A 
ATOM      7  C   UNL     1      46.992   7.108  12.114  0.00  0.00    +0.000 A 
ATOM      8  N   UNL     1      48.363   7.399  12.316  0.00  0.00    +0.000 N 
ATOM      9  N   UNL     1      46.045   7.791  12.795  0.00  0.00    +0.000 NA
ATOM     10  C   UNL     1      44.783   7.312  12.792  0.00  0.00    +0.000 A 
ATOM     11  H   UNL     1      48.843   6.578  12.656  0.00  0.00    +0.000 HD
BRANCH   4  13
ATOM     12  N   UNL     1      42.048   6.052  11.755  0.00  0.00    +0.000 N 
ATOM     13  C   UNL     1      43.125   5.534  12.430  0.00  0.00    +0.000 C 
ATOM     14  O   UNL     1      43.028   4.560  13.149  0.00  0.00    +0.000 OA
ATOM     15  H   UNL     1      41.195   5.504  11.801  0.00  0.00    +0.000 HD
ATOM     16  H   UNL     1      42.154   6.664  10.962  0.00  0.00    +0.000 HD
ENDBRANCH   4  13
ENDBRANCH   1   8
BRANCH   1  17
ATOM     17  C   UNL     1      48.970   8.426  14.438  0.00  0.00    +0.000 A 
ATOM     18  C   UNL     1      48.731   9.444  15.377  0.00  0.00    +0.000 A 
ATOM     19  C   UNL     1      48.490   9.143  16.715  0.00  0.00    +0.000 A 
ATOM     20  C   UNL     1      48.502   7.813  17.139  0.00  0.00    +0.000 A 
ATOM     21  C   UNL     1      48.813   6.775  16.246  0.00  0.00    +0.000 A 
ATOM     22  C   UNL     1      49.096   7.113  14.914  0.00  0.00    +0.000 A 
BRANCH  21  23
ATOM     23  C   UNL     1      48.678   5.356  16.613  0.00  0.00    +0.000 A 
ATOM     24  C   UNL     1      49.682   4.666  17.305  0.00  0.00    +0.000 A 
ATOM     25  C   UNL     1      49.574   3.293  17.518  0.00  0.00    +0.000 A 
ATOM     26  C   UNL     1      48.448   2.644  17.044  0.00  0.00    +0.000 A 
ATOM     27  N   UNL     1      47.442   3.259  16.391  0.00  0.00    +0.000 NA
ATOM     28  C   UNL     1      47.591   4.595  16.183  0.00  0.00    +0.000 A 
ENDBRANCH  21  23
ENDBRANCH   1  17
TORSDOF 4
ENDMDL
MODEL 7
REMARK VINA RESULT:    -5.987      2.948      7.456
REMARK INTER + INTRA:          -7.908
REMARK INTER:                  -7.504
REMARK INTRA:                  -0.404
REMARK UNBOUND:                -0.521
REMARK  Name = 
REMARK  4 active torsions:
REMARK  status: ('A' for Active; 'I' for Inactive)
REMARK    1  A    between atoms: C_2  and  C_4
REMARK    2  A    between atoms: N_8  and  C_9
REMARK    3  A    between atoms: C_9  and  C_10
REMARK    4  A    between atoms: C_14  and  C_15
REMARK                            x       y       z     vdW  Elec       q    Type
REMARK                         _______ _______ _______ _____ _____    ______ ____
ROOT
ATOM      1  C   UNL     1      48.281   7.038  13.666  0.00  0.00    +0.000 C 
ATOM      2  C   UNL     1      48.590   7.986  14.803  0.00  0.00    +0.000 C 
ATOM      3  C   UNL     1      48.619   6.518  15.050  0.00  0.00    +0.000 C 
ENDROOT
BRANCH   1   8
ATOM      4  C   UNL     1      51.231   9.958  10.795  0.00  0.00    +0.000 A 
ATOM      5  C   UNL     1      51.722   8.669  10.620  0.00  0.00    +0.000 A 
ATOM      6  C   UNL     1      51.116   7.616  11.299  0.00  0.00    +0.000 A 
ATOM      7  C   UNL     1      50.030   7.887  12.124  0.00  0.00    +0.000 A 
ATOM      8  N   UNL     1      49.247   6.795  12.573  0.00  0.00    +0.000 N 
ATOM      9  N   UNL     1      49.665   9.153  12.424  0.00  0.00    +0.000 NA
ATOM     10  C   UNL     1      50.262  10.166  11.761  0.00  0.00    +0.000 A 
ATOM     11  H   UNL     1      48.908   6.266  11.782  0.00  0.00    +0.000 HD
BRANCH   4  13
ATOM     12  N   UNL     1      52.889  11.499   9.984  0.00  0.00    +0.000 N 
ATOM     13  C   UNL     1      51.587  11.075   9.901  0.00  0.00    +0.000 C 
ATOM     14  O   UNL     1      50.815  11.516   9.073  0.00  0.00    +0.000 OA
ATOM     15  H   UNL     1      53.199  12.117   9.239  0.00  0.00    +0.000 HD
ATOM     16  H   UNL     1      53.600  10.967  10.459  0.00  0.00    +0.000 HD
ENDBRANCH   4  13
ENDBRANCH   1   8
BRANCH   1  17
ATOM     17  C   UNL     1      46.878   7.013  13.088  0.00  0.00    +0.000 A 
ATOM     18  C   UNL     1      46.159   8.213  12.947  0.00  0.00    +0.000 A 
ATOM     19  C   UNL     1      45.121   8.322  12.025  0.00  0.00    +0.000 A 
ATOM     20  C   UNL     1      44.775   7.222  11.238  0.00  0.00    +0.000 A 
ATOM     21  C   UNL     1      45.420   5.985  11.404  0.00  0.00    +0.000 A 
ATOM     22  C   UNL     1      46.430   5.894  12.374  0.00  0.00    +0.000 A 
BRANCH  21  23
ATOM     23  C   UNL     1      45.196   4.854  10.490  0.00  0.00    +0.000 A 
ATOM     24  C   UNL     1      45.614   4.881   9.154  0.00  0.00    +0.000 A 
ATOM     25  C   UNL     1      45.268   3.846   8.287  0.00  0.00    +0.000 A 
ATOM     26  C   UNL     1      44.521   2.795   8.788  0.00  0.00    +0.000 A 
ATOM     27  N   UNL     1      44.109   2.706  10.068  0.00  0.00    +0.000 NA
ATOM     28  C   UNL     1      44.448   3.743  10.880  0.00  0.00    +0.000 A 
ENDBRANCH  21  23
ENDBRANCH   1  17
TORSDOF 4
ENDMDL
MODEL 8
REMARK VINA RESULT:    -5.941      3.395      5.895
REMARK INTER + INTRA:          -7.852
REMARK INTER:                  -7.865
REMARK INTRA:                   0.013
REMARK UNBOUND:                -0.521
REMARK  Name = 
REMARK  4 active torsions:
REMARK  status: ('A' for Active; 'I' for Inactive)
REMARK    1  A    between atoms: C_2  and  C_4
REMARK    2  A    between atoms: N_8  and  C_9
REMARK    3  A    between atoms: C_9  and  C_10
REMARK    4  A    between atoms: C_14  and  C_15
REMARK                            x       y       z     vdW  Elec       q    Type
REMARK                         _______ _______ _______ _____ _____    ______ ____
ROOT
ATOM      1  C   UNL     1      48.897   8.224  12.751  0.00  0.00    +0.000 C 
ATOM      2  C   UNL     1      49.901   8.929  11.867  0.00  0.00    +0.000 C 
ATOM      3  C   UNL     1      49.789   7.446  11.802  0.00  0.00    +0.000 C 
ENDROOT
BRANCH   1   8
ATOM      4  C   UNL     1      45.145   4.849  12.787  0.00  0.00    +0.000 A 
ATOM      5  C   UNL     1      44.514   6.088  12.767  0.00  0.00    +0.000 A 
ATOM      6  C   UNL     1      45.290   7.242  12.761  0.00  0.00    +0.000 A 
ATOM      7  C   UNL     1      46.676   7.119  12.767  0.00  0.00    +0.000 A 
ATOM      8  N   UNL     1      47.447   8.270  12.469  0.00  0.00    +0.000 N 
ATOM      9  N   UNL     1      47.281   5.927  12.959  0.00  0.00    +0.000 NA
ATOM     10  C   UNL     1      46.517   4.814  12.965  0.00  0.00    +0.000 A 
ATOM     11  H   UNL     1      47.175   8.644  11.571  0.00  0.00    +0.000 HD
BRANCH   4  13
ATOM     12  N   UNL     1      45.002   2.832  11.484  0.00  0.00    +0.000 N 
ATOM     13  C   UNL     1      44.441   3.590  12.482  0.00  0.00    +0.000 C 
ATOM     14  O   UNL     1      43.498   3.197  13.138  0.00  0.00    +0.000 OA
ATOM     15  H   UNL     1      44.656   1.881  11.407  0.00  0.00    +0.000 HD
ATOM     16  H   UNL     1      45.927   3.010  11.128  0.00  0.00    +0.000 HD
ENDBRANCH   4  13
ENDBRANCH   1   8
BRANCH   1  17
ATOM     17  C   UNL     1      49.100   8.242  14.255  0.00  0.00    +0.000 A 
ATOM     18  C   UNL     1      48.623   9.327  15.012  0.00  0.00    +0.000 A 
ATOM     19  C   UNL     1      48.353   9.189  16.371  0.00  0.00    +0.000 A 
ATOM     20  C   UNL     1      48.572   7.962  16.999  0.00  0.00    +0.000 A 
ATOM     21  C   UNL     1      49.119   6.878  16.294  0.00  0.00    +0.000 A 
ATOM     22  C   UNL     1      49.425   7.061  14.936  0.00  0.00    +0.000 A 
BRANCH  21  23
ATOM     23  C   UNL     1      49.214   5.530  16.875  0.00  0.00    +0.000 A 
ATOM     24  C   UNL     1      50.409   5.027  17.404  0.00  0.00    +0.000 A 
ATOM     25  C   UNL     1      50.491   3.701  17.825  0.00  0.00    +0.000 A 
ATOM     26  C   UNL     1      49.361   2.910  17.720  0.00  0.00    +0.000 A 
ATOM     27  N   UNL     1      48.179   3.345  17.239  0.00  0.00    +0.000 NA
ATOM     28  C   UNL     1      48.142   4.638  16.819  0.00  0.00    +0.000 A 
ENDBRANCH  21  23
ENDBRANCH   1  17
TORSDOF 4
ENDMDL
