MODEL 1
REMARK VINA RESULT:    -8.618      0.000      0.000
REMARK INTER + INTRA:         -10.584
REMARK INTER:                 -10.130
REMARK INTRA:                  -0.455
REMARK UNBOUND:                -0.455
REMARK  Name = 
REMARK  3 active torsions:
REMARK  status: ('A' for Active; 'I' for Inactive)
REMARK    1  A    between atoms: C_2  and  C_4
REMARK    2  A    between atoms: N_8  and  C_9
REMARK    3  A    between atoms: C_9  and  C_10
REMARK                            x       y       z     vdW  Elec       q    Type
REMARK                         _______ _______ _______ _____ _____    ______ ____
ROOT
ATOM      1  C   UNL     1      46.611   2.741   7.506  0.00  0.00    +0.000 A 
ATOM      2  C   UNL     1      46.338   4.104   7.625  0.00  0.00    +0.000 A 
ATOM      3  C   UNL     1      45.474   4.544   8.638  0.00  0.00    +0.000 A 
ATOM      4  C   UNL     1      44.896   3.613   9.489  0.00  0.00    +0.000 A 
ATOM      5  N   UNL     1      43.883   3.920  10.398  0.00  0.00    +0.000 N 
ATOM      6  N   UNL     1      45.178   2.295   9.401  0.00  0.00    +0.000 NA
ATOM      7  C   UNL     1      46.022   1.887   8.422  0.00  0.00    +0.000 A 
ATOM      8  H   UNL     1      43.708   3.033  10.876  0.00  0.00    +0.000 HD
ENDROOT
BRANCH   1  10
ATOM      9  N   UNL     1      47.693   2.920   5.330  0.00  0.00    +0.000 N 
ATOM     10  C   UNL     1      47.437   2.153   6.429  0.00  0.00    +0.000 C 
ATOM     11  O   UNL     1      47.897   1.021   6.524  0.00  0.00    +0.000 OA
ATOM     12  H   UNL     1      48.340   2.529   4.655  0.00  0.00    +0.000 HD
ATOM     13  H   UNL     1      47.543   3.917   5.309  0.00  0.00    +0.000 HD
ENDBRANCH   1  10
BRANCH   5  14
ATOM     14  C   UNL     1      43.883   5.087  11.300  0.00  0.00    +0.000 C 
ATOM     15  C   UNL     1      42.618   5.180  12.146  0.00  0.00    +0.000 C 
ATOM     16  C   UNL     1      42.940   6.262  11.168  0.00  0.00    +0.000 C 
BRANCH  14  17
ATOM     17  C   UNL     1      45.245   5.315  11.951  0.00  0.00    +0.000 A 
ATOM     18  C   UNL     1      46.078   6.383  11.568  0.00  0.00    +0.000 A 
ATOM     19  C   UNL     1      47.227   6.712  12.294  0.00  0.00    +0.000 A 
ATOM     20  C   UNL     1      47.570   5.973  13.423  0.00  0.00    +0.000 A 
ATOM     21  C   UNL     1      46.788   4.884  13.793  0.00  0.00    +0.000 A 
ATOM     22 CL   UNL     1      47.194   3.975  15.197  0.00  0.00    +0.000 Cl
ATOM     23  C   UNL     1      45.649   4.547  13.058  0.00  0.00    +0.000 A 
ENDBRANCH  14  17
ENDBRANCH   5  14
TORSDOF 3
ENDMDL
MODEL 2
REMARK VINA RESULT:    -6.980      3.885      6.181
REMARK INTER + INTRA:          -8.659
REMARK INTER:                  -8.226
REMARK INTRA:                  -0.434
REMARK UNBOUND:                -0.455
REMARK  Name = 
REMARK  3 active torsions:
REMARK  status: ('A' for Active; 'I' for Inactive)
REMARK    1  A    between atoms: C_2  and  C_4
REMARK    2  A    between atoms: N_8  and  C_9
REMARK    3  A    between atoms: C_9  and  C_10
REMARK                            x       y       z     vdW  Elec       q    Type
REMARK                         _______ _______ _______ _____ _____    ______ ____
ROOT
ATOM      1  C   UNL     1      48.373   6.807  13.232  0.00  0.00    +0.000 A 
ATOM      2  C   UNL     1      47.711   5.677  13.711  0.00  0.00    +0.000 A 
ATOM      3  C   UNL     1      46.630   5.157  12.984  0.00  0.00    +0.000 A 
ATOM      4  C   UNL     1      46.233   5.788  11.814  0.00  0.00    +0.000 A 
ATOM      5  N   UNL     1      45.062   5.471  11.124  0.00  0.00    +0.000 N 
ATOM      6  N   UNL     1      46.888   6.864  11.326  0.00  0.00    +0.000 NA
ATOM      7  C   UNL     1      47.935   7.349  12.037  0.00  0.00    +0.000 A 
ATOM      8  H   UNL     1      45.085   6.091  10.310  0.00  0.00    +0.000 HD
ENDROOT
BRANCH   1  10
ATOM      9  N   UNL     1      50.656   7.657  13.300  0.00  0.00    +0.000 N 
ATOM     10  C   UNL     1      49.469   7.492  13.953  0.00  0.00    +0.000 C 
ATOM     11  O   UNL     1      49.315   7.918  15.091  0.00  0.00    +0.000 OA
ATOM     12  H   UNL     1      51.355   8.213  13.780  0.00  0.00    +0.000 HD
ATOM     13  H   UNL     1      50.756   7.541  12.303  0.00  0.00    +0.000 HD
ENDBRANCH   1  10
BRANCH   5  14
ATOM     14  C   UNL     1      44.610   4.102  10.811  0.00  0.00    +0.000 C 
ATOM     15  C   UNL     1      43.143   3.872  11.156  0.00  0.00    +0.000 C 
ATOM     16  C   UNL     1      44.204   3.084  11.853  0.00  0.00    +0.000 C 
BRANCH  14  17
ATOM     17  C   UNL     1      45.161   3.602   9.478  0.00  0.00    +0.000 A 
ATOM     18  C   UNL     1      45.603   4.490   8.481  0.00  0.00    +0.000 A 
ATOM     19  C   UNL     1      46.289   4.039   7.349  0.00  0.00    +0.000 A 
ATOM     20  C   UNL     1      46.547   2.680   7.190  0.00  0.00    +0.000 A 
ATOM     21  C   UNL     1      46.078   1.778   8.140  0.00  0.00    +0.000 A 
ATOM     22 CL   UNL     1      46.406   0.098   7.960  0.00  0.00    +0.000 Cl
ATOM     23  C   UNL     1      45.379   2.229   9.261  0.00  0.00    +0.000 A 
ENDBRANCH  14  17
ENDBRANCH   5  14
TORSDOF 3
ENDMDL
MODEL 3
REMARK VINA RESULT:    -6.835      3.912      6.386
REMARK INTER + INTRA:          -8.489
REMARK INTER:                  -8.767
REMARK INTRA:                   0.278
REMARK UNBOUND:                -0.455
REMARK  Name = 
REMARK  3 active torsions:
REMARK  status: ('A' for Active; 'I' for Inactive)
REMARK    1  A    between atoms: C_2  and  C_4
REMARK    2  A    between atoms: N_8  and  C_9
REMARK    3  A    between atoms: C_9  and  C_10
REMARK                            x       y       z     vdW  Elec       q    Type
REMARK                         _______ _______ _______ _____ _____    ______ ____
ROOT
ATOM      1  C   UNL     1      47.851   5.859  14.613  0.00  0.00    +0.000 A 
ATOM      2  C   UNL     1      47.546   6.180  13.291  0.00  0.00    +0.000 A 
ATOM      3  C   UNL     1      46.731   5.315  12.546  0.00  0.00    +0.000 A 
ATOM      4  C   UNL     1      46.259   4.152  13.137  0.00  0.00    +0.000 A 
ATOM      5  N   UNL     1      45.607   3.137  12.434  0.00  0.00    +0.000 N 
ATOM      6  N   UNL     1      46.524   3.848  14.426  0.00  0.00    +0.000 NA
ATOM      7  C   UNL     1      47.306   4.699  15.134  0.00  0.00    +0.000 A 
ATOM      8  H   UNL     1      45.374   2.452  13.157  0.00  0.00    +0.000 HD
ENDROOT
BRANCH   1  10
ATOM      9  N   UNL     1      48.227   7.321  16.527  0.00  0.00    +0.000 N 
ATOM     10  C   UNL     1      48.765   6.649  15.467  0.00  0.00    +0.000 C 
ATOM     11  O   UNL     1      49.970   6.686  15.248  0.00  0.00    +0.000 OA
ATOM     12  H   UNL     1      48.887   7.773  17.149  0.00  0.00    +0.000 HD
ATOM     13  H   UNL     1      47.302   7.135  16.883  0.00  0.00    +0.000 HD
ENDBRANCH   1  10
BRANCH   5  14
ATOM     14  C   UNL     1      44.528   3.350  11.451  0.00  0.00    +0.000 C 
ATOM     15  C   UNL     1      43.544   4.433  11.879  0.00  0.00    +0.000 C 
ATOM     16  C   UNL     1      43.073   3.027  11.706  0.00  0.00    +0.000 C 
BRANCH  14  17
ATOM     17  C   UNL     1      45.040   3.320  10.014  0.00  0.00    +0.000 A 
ATOM     18  C   UNL     1      45.264   4.503   9.284  0.00  0.00    +0.000 A 
ATOM     19  C   UNL     1      45.918   4.489   8.049  0.00  0.00    +0.000 A 
ATOM     20  C   UNL     1      46.364   3.283   7.513  0.00  0.00    +0.000 A 
ATOM     21  C   UNL     1      46.113   2.097   8.195  0.00  0.00    +0.000 A 
ATOM     22 CL   UNL     1      46.676   0.603   7.549  0.00  0.00    +0.000 Cl
ATOM     23  C   UNL     1      45.445   2.111   9.420  0.00  0.00    +0.000 A 
ENDBRANCH  14  17
ENDBRANCH   5  14
TORSDOF 3
ENDMDL
MODEL 4
REMARK VINA RESULT:    -6.347      3.869      6.172
REMARK INTER + INTRA:          -7.915
REMARK INTER:                  -7.426
REMARK INTRA:                  -0.490
REMARK UNBOUND:                -0.455
REMARK  Name = 
REMARK  3 active torsions:
REMARK  status: ('A' for Active; 'I' for Inactive)
REMARK    1  A    between atoms: C_2  and  C_4
REMARK    2  A    between atoms: N_8  and  C_9
REMARK    3  A    between atoms: C_9  and  C_10
REMARK                            x       y       z     vdW  Elec       q    Type
REMARK                         _______ _______ _______ _____ _____    ______ ____
ROOT
ATOM      1  C   UNL     1      48.695   7.097  13.122  0.00  0.00    +0.000 A 
ATOM      2  C   UNL     1      47.745   6.372  13.842  0.00  0.00    +0.000 A 
ATOM      3  C   UNL     1      46.505   6.091  13.251  0.00  0.00    +0.000 A 
ATOM      4  C   UNL     1      46.244   6.554  11.970  0.00  0.00    +0.000 A 
ATOM      5  N   UNL     1      44.986   6.497  11.368  0.00  0.00    +0.000 N 
ATOM      6  N   UNL     1      47.169   7.230  11.253  0.00  0.00    +0.000 NA
ATOM      7  C   UNL     1      48.365   7.486  11.836  0.00  0.00    +0.000 A 
ATOM      8  H   UNL     1      45.144   6.889  10.436  0.00  0.00    +0.000 HD
ENDROOT
BRANCH   1  10
ATOM      9  N   UNL     1      50.324   7.123  14.934  0.00  0.00    +0.000 N 
ATOM     10  C   UNL     1      50.001   7.523  13.670  0.00  0.00    +0.000 C 
ATOM     11  O   UNL     1      50.781   8.198  13.008  0.00  0.00    +0.000 OA
ATOM     12  H   UNL     1      51.262   7.347  15.247  0.00  0.00    +0.000 HD
ATOM     13  H   UNL     1      49.834   6.387  15.419  0.00  0.00    +0.000 HD
ENDBRANCH   1  10
BRANCH   5  14
ATOM     14  C   UNL     1      44.101   5.317  11.371  0.00  0.00    +0.000 C 
ATOM     15  C   UNL     1      42.623   5.687  11.408  0.00  0.00    +0.000 C 
ATOM     16  C   UNL     1      43.225   4.916  12.536  0.00  0.00    +0.000 C 
BRANCH  14  17
ATOM     17  C   UNL     1      44.584   4.231  10.414  0.00  0.00    +0.000 A 
ATOM     18  C   UNL     1      44.136   2.900  10.519  0.00  0.00    +0.000 A 
ATOM     19  C   UNL     1      44.416   1.952   9.531  0.00  0.00    +0.000 A 
ATOM     20  C   UNL     1      45.157   2.317   8.409  0.00  0.00    +0.000 A 
ATOM     21  C   UNL     1      45.649   3.614   8.306  0.00  0.00    +0.000 A 
ATOM     22 CL   UNL     1      46.551   4.080   6.915  0.00  0.00    +0.000 Cl
ATOM     23  C   UNL     1      45.382   4.555   9.302  0.00  0.00    +0.000 A 
ENDBRANCH  14  17
ENDBRANCH   5  14
TORSDOF 3
ENDMDL
MODEL 5
REMARK VINA RESULT:    -5.871      3.197      5.146
REMARK INTER + INTRA:          -7.355
REMARK INTER:                  -7.128
REMARK INTRA:                  -0.228
REMARK UNBOUND:                -0.455
REMARK  Name = 
REMARK  3 active torsions:
REMARK  status: ('A' for Active; 'I' for Inactive)
REMARK    1  A    between atoms: C_2  and  C_4
REMARK    2  A    between atoms: N_8  and  C_9
REMARK    3  A    between atoms: C_9  and  C_10
REMARK                            x       y       z     vdW  Elec       q    Type
REMARK                         _______ _______ _______ _____ _____    ______ ____
ROOT
ATOM      1  C   UNL     1      44.931   4.934  11.068  0.00  0.00    +0.000 A 
ATOM      2  C   UNL     1      45.866   5.846  10.579  0.00  0.00    +0.000 A 
ATOM      3  C   UNL     1      46.563   6.664  11.480  0.00  0.00    +0.000 A 
ATOM      4  C   UNL     1      46.294   6.559  12.838  0.00  0.00    +0.000 A 
ATOM      5  N   UNL     1      46.785   7.450  13.794  0.00  0.00    +0.000 N 
ATOM      6  N   UNL     1      45.413   5.658  13.323  0.00  0.00    +0.000 NA
ATOM      7  C   UNL     1      44.754   4.870  12.439  0.00  0.00    +0.000 A 
ATOM      8  H   UNL     1      46.428   7.078  14.678  0.00  0.00    +0.000 HD
ENDROOT
BRANCH   1  10
ATOM      9  N   UNL     1      44.018   4.375   8.879  0.00  0.00    +0.000 N 
ATOM     10  C   UNL     1      44.079   4.081  10.210  0.00  0.00    +0.000 C 
ATOM     11  O   UNL     1      43.461   3.128  10.671  0.00  0.00    +0.000 OA
ATOM     12  H   UNL     1      43.506   3.719   8.301  0.00  0.00    +0.000 HD
ATOM     13  H   UNL     1      44.677   4.986   8.420  0.00  0.00    +0.000 HD
ENDBRANCH   1  10
BRANCH   5  14
ATOM     14  C   UNL     1      48.180   7.921  13.872  0.00  0.00    +0.000 C 
ATOM     15  C   UNL     1      48.290   9.442  13.882  0.00  0.00    +0.000 C 
ATOM     16  C   UNL     1      48.889   8.661  12.759  0.00  0.00    +0.000 C 
BRANCH  14  17
ATOM     17  C   UNL     1      49.015   7.096  14.847  0.00  0.00    +0.000 A 
ATOM     18  C   UNL     1      50.381   7.362  15.059  0.00  0.00    +0.000 A 
ATOM     19  C   UNL     1      51.096   6.747  16.091  0.00  0.00    +0.000 A 
ATOM     20  C   UNL     1      50.456   5.844  16.936  0.00  0.00    +0.000 A 
ATOM     21  C   UNL     1      49.118   5.530  16.716  0.00  0.00    +0.000 A 
ATOM     22 CL   UNL     1      48.314   4.428  17.766  0.00  0.00    +0.000 Cl
ATOM     23  C   UNL     1      48.411   6.134  15.675  0.00  0.00    +0.000 A 
ENDBRANCH  14  17
ENDBRANCH   5  14
TORSDOF 3
ENDMDL
MODEL 6
REMARK VINA RESULT:    -5.848      1.989      2.574
REMARK INTER + INTRA:          -7.328
REMARK INTER:                  -7.574
REMARK INTRA:                   0.246
REMARK UNBOUND:                -0.455
REMARK  Name = 
REMARK  3 active torsions:
REMARK  status: ('A' for Active; 'I' for Inactive)
REMARK    1  A    between atoms: C_2  and  C_4
REMARK    2  A    between atoms: N_8  and  C_9
REMARK    3  A    between atoms: C_9  and  C_10
REMARK                            x       y       z     vdW  Elec       q    Type
REMARK                         _______ _______ _______ _____ _____    ______ ____
ROOT
ATOM      1  C   UNL     1      46.235   3.370   7.701  0.00  0.00    +0.000 A 
ATOM      2  C   UNL     1      46.427   4.615   8.300  0.00  0.00    +0.000 A 
ATOM      3  C   UNL     1      45.565   5.021   9.329  0.00  0.00    +0.000 A 
ATOM      4  C   UNL     1      44.530   4.182   9.717  0.00  0.00    +0.000 A 
ATOM      5  N   UNL     1      43.509   4.565  10.589  0.00  0.00    +0.000 N 
ATOM      6  N   UNL     1      44.355   2.962   9.164  0.00  0.00    +0.000 NA
ATOM      7  C   UNL     1      45.202   2.582   8.177  0.00  0.00    +0.000 A 
ATOM      8  H   UNL     1      42.939   3.720  10.681  0.00  0.00    +0.000 HD
ENDROOT
BRANCH   1  10
ATOM      9  N   UNL     1      48.098   2.070   6.819  0.00  0.00    +0.000 N 
ATOM     10  C   UNL     1      47.026   2.873   6.554  0.00  0.00    +0.000 C 
ATOM     11  O   UNL     1      46.722   3.152   5.400  0.00  0.00    +0.000 OA
ATOM     12  H   UNL     1      48.561   1.666   6.013  0.00  0.00    +0.000 HD
ATOM     13  H   UNL     1      48.244   1.626   7.713  0.00  0.00    +0.000 HD
ENDBRANCH   1  10
BRANCH   5  14
ATOM     14  C   UNL     1      43.710   5.285  11.860  0.00  0.00    +0.000 C 
ATOM     15  C   UNL     1      44.336   4.412  12.941  0.00  0.00    +0.000 C 
ATOM     16  C   UNL     1      42.966   4.972  13.139  0.00  0.00    +0.000 C 
BRANCH  14  17
ATOM     17  C   UNL     1      44.224   6.706  11.644  0.00  0.00    +0.000 A 
ATOM     18  C   UNL     1      43.465   7.671  10.956  0.00  0.00    +0.000 A 
ATOM     19  C   UNL     1      43.840   9.017  10.931  0.00  0.00    +0.000 A 
ATOM     20  C   UNL     1      44.992   9.429  11.597  0.00  0.00    +0.000 A 
ATOM     21  C   UNL     1      45.783   8.486  12.245  0.00  0.00    +0.000 A 
ATOM     22 CL   UNL     1      47.199   8.988  13.085  0.00  0.00    +0.000 Cl
ATOM     23  C   UNL     1      45.415   7.139  12.255  0.00  0.00    +0.000 A 
ENDBRANCH  14  17
ENDBRANCH   5  14
TORSDOF 3
ENDMDL
MODEL 7
REMARK VINA RESULT:    -5.808      4.995      7.701
REMARK INTER + INTRA:          -7.281
REMARK INTER:                  -7.111
REMARK INTRA:                  -0.170
REMARK UNBOUND:                -0.455
REMARK  Name = 
REMARK  3 active torsions:
REMARK  status: ('A' for Active; 'I' for Inactive)
REMARK    1  A    between atoms: C_2  and  C_4
REMARK    2  A    between atoms: N_8  and  C_9
REMARK    3  A    between atoms: C_9  and  C_10
REMARK                            x       y       z     vdW  Elec       q    Type
REMARK                         _______ _______ _______ _____ _____    ______ ____
ROOT
ATOM      1  C   UNL     1      48.328   4.341  17.701  0.00  0.00    +0.000 A 
ATOM      2  C   UNL     1      48.353   5.618  17.141  0.00  0.00    +0.000 A 
ATOM      3  C   UNL     1      47.971   5.787  15.803  0.00  0.00    +0.000 A 
ATOM      4  C   UNL     1      47.591   4.677  15.061  0.00  0.00    +0.000 A 
ATOM      5  N   UNL     1      47.380   4.705  13.682  0.00  0.00    +0.000 N 
ATOM      6  N   UNL     1      47.535   3.441  15.604  0.00  0.00    +0.000 NA
ATOM      7  C   UNL     1      47.900   3.297  16.901  0.00  0.00    +0.000 A 
ATOM      8  H   UNL     1      47.092   3.748  13.461  0.00  0.00    +0.000 HD
ENDROOT
BRANCH   1  10
ATOM      9  N   UNL     1      48.293   2.907  19.672  0.00  0.00    +0.000 N 
ATOM     10  C   UNL     1      48.788   4.030  19.073  0.00  0.00    +0.000 C 
ATOM     11  O   UNL     1      49.602   4.741  19.650  0.00  0.00    +0.000 OA
ATOM     12  H   UNL     1      48.697   2.667  20.570  0.00  0.00    +0.000 HD
ATOM     13  H   UNL     1      47.817   2.178  19.164  0.00  0.00    +0.000 HD
ENDBRANCH   1  10
BRANCH   5  14
ATOM     14  C   UNL     1      46.603   5.735  12.967  0.00  0.00    +0.000 C 
ATOM     15  C   UNL     1      47.474   6.630  12.092  0.00  0.00    +0.000 C 
ATOM     16  C   UNL     1      46.714   7.219  13.235  0.00  0.00    +0.000 C 
BRANCH  14  17
ATOM     17  C   UNL     1      45.288   5.190  12.417  0.00  0.00    +0.000 A 
ATOM     18  C   UNL     1      44.054   5.801  12.708  0.00  0.00    +0.000 A 
ATOM     19  C   UNL     1      42.879   5.429  12.050  0.00  0.00    +0.000 A 
ATOM     20  C   UNL     1      42.912   4.429  11.081  0.00  0.00    +0.000 A 
ATOM     21  C   UNL     1      44.111   3.779  10.810  0.00  0.00    +0.000 A 
ATOM     22 CL   UNL     1      44.166   2.554   9.601  0.00  0.00    +0.000 Cl
ATOM     23  C   UNL     1      45.281   4.141  11.480  0.00  0.00    +0.000 A 
ENDBRANCH  14  17
ENDBRANCH   5  14
TORSDOF 3
ENDMDL
MODEL 8
REMARK VINA RESULT:    -5.658      2.275      3.258
REMARK INTER + INTRA:          -7.105
REMARK INTER:                  -6.428
REMARK INTRA:                  -0.677
REMARK UNBOUND:                -0.455
REMARK  Name = 
REMARK  3 active torsions:
REMARK  status: ('A' for Active; 'I' for Inactive)
REMARK    1  A    between atoms: C_2  and  C_4
REMARK    2  A    between atoms: N_8  and  C_9
REMARK    3  A    between atoms: C_9  and  C_10
REMARK                            x       y       z     vdW  Elec       q    Type
REMARK                         _______ _______ _______ _____ _____    ______ ____
ROOT
ATOM      1  C   UNL     1      45.240   3.389   9.731  0.00  0.00    +0.000 A 
ATOM      2  C   UNL     1      45.570   4.606   9.136  0.00  0.00    +0.000 A 
ATOM      3  C   UNL     1      45.534   5.778   9.905  0.00  0.00    +0.000 A 
ATOM      4  C   UNL     1      45.156   5.702  11.238  0.00  0.00    +0.000 A 
ATOM      5  N   UNL     1      44.904   6.820  12.035  0.00  0.00    +0.000 N 
ATOM      6  N   UNL     1      44.865   4.524  11.832  0.00  0.00    +0.000 NA
ATOM      7  C   UNL     1      44.912   3.400  11.075  0.00  0.00    +0.000 A 
ATOM      8  H   UNL     1      44.680   6.420  12.950  0.00  0.00    +0.000 HD
ENDROOT
BRANCH   1  10
ATOM      9  N   UNL     1      46.209   1.762   8.196  0.00  0.00    +0.000 N 
ATOM     10  C   UNL     1      45.161   2.104   9.001  0.00  0.00    +0.000 C 
ATOM     11  O   UNL     1      44.198   1.357   9.127  0.00  0.00    +0.000 OA
ATOM     12  H   UNL     1      46.172   0.837   7.786  0.00  0.00    +0.000 HD
ATOM     13  H   UNL     1      47.108   2.217   8.242  0.00  0.00    +0.000 HD
ENDBRANCH   1  10
BRANCH   5  14
ATOM     14  C   UNL     1      45.763   8.017  12.107  0.00  0.00    +0.000 C 
ATOM     15  C   UNL     1      45.071   9.201  12.773  0.00  0.00    +0.000 C 
ATOM     16  C   UNL     1      45.501   9.297  11.346  0.00  0.00    +0.000 C 
BRANCH  14  17
ATOM     17  C   UNL     1      47.202   7.673  12.483  0.00  0.00    +0.000 A 
ATOM     18  C   UNL     1      48.281   7.972  11.629  0.00  0.00    +0.000 A 
ATOM     19  C   UNL     1      49.607   7.844  12.052  0.00  0.00    +0.000 A 
ATOM     20  C   UNL     1      49.884   7.410  13.346  0.00  0.00    +0.000 A 
ATOM     21  C   UNL     1      48.835   7.064  14.192  0.00  0.00    +0.000 A 
ATOM     22 CL   UNL     1      49.167   6.542  15.798  0.00  0.00    +0.000 Cl
ATOM     23  C   UNL     1      47.512   7.177  13.762  0.00  0.00    +0.000 A 
ENDBRANCH  14  17
ENDBRANCH   5  14
TORSDOF 3
ENDMDL
