MODEL 1
REMARK VINA RESULT:    -7.858      0.000      0.000
REMARK INTER + INTRA:         -11.770
REMARK INTER:                 -10.614
REMARK INTRA:                  -1.156
REMARK UNBOUND:                -1.156
REMARK  Name = 
REMARK  7 active torsions:
REMARK  status: ('A' for Active; 'I' for Inactive)
REMARK    1  A    between atoms: C_1  and  N_2
REMARK    2  A    between atoms: N_2  and  C_3
REMARK    3  A    between atoms: C_3  and  C_4
REMARK    4  A    between atoms: C_7  and  C_8
REMARK    5  A    between atoms: C_8  and  N_9
REMARK    6  A    between atoms: C_10  and  C_12
REMARK    7  A    between atoms: C_19  and  C_21
REMARK                            x       y       z     vdW  Elec       q    Type
REMARK                         _______ _______ _______ _____ _____    ______ ____
ROOT
ATOM      1  C   UNL     1      47.650   6.631  12.391  0.00  0.00    +0.000 C 
ENDROOT
BRANCH   1   2
ATOM      2  C   UNL     1      47.626   5.817  13.661  0.00  0.00    +0.000 A 
ATOM      3  C   UNL     1      48.296   6.298  14.799  0.00  0.00    +0.000 A 
ATOM      4  C   UNL     1      48.305   5.567  15.985  0.00  0.00    +0.000 A 
ATOM      5  C   UNL     1      47.660   4.329  16.054  0.00  0.00    +0.000 A 
ATOM      6  C   UNL     1      46.929   3.880  14.943  0.00  0.00    +0.000 A 
ATOM      7  C   UNL     1      46.919   4.614  13.752  0.00  0.00    +0.000 A 
BRANCH   5   8
ATOM      8  C   UNL     1      47.769   3.487  17.297  0.00  0.00    +0.000 C 
BRANCH   8   9
ATOM      9  N   UNL     1      49.136   3.245  17.666  0.00  0.00    +0.000 N 
ATOM     10  C   UNL     1      49.901   2.310  17.001  0.00  0.00    +0.000 C 
ATOM     11  O   UNL     1      49.441   1.645  16.077  0.00  0.00    +0.000 OA
ATOM     12  H   UNL     1      49.580   3.833  18.359  0.00  0.00    +0.000 HD
BRANCH  10  13
ATOM     13  C   UNL     1      51.276   2.176  17.468  0.00  0.00    +0.000 A 
ATOM     14  C   UNL     1      52.025   1.013  17.517  0.00  0.00    +0.000 A 
ATOM     15  C   UNL     1      53.330   1.223  18.050  0.00  0.00    +0.000 A 
ATOM     16  C   UNL     1      53.538   2.539  18.394  0.00  0.00    +0.000 A 
ATOM     17  S   UNL     1      52.174   3.512  18.060  0.00  0.00    +0.000 S 
ENDBRANCH  10  13
ENDBRANCH   8   9
ENDBRANCH   5   8
ENDBRANCH   1   2
BRANCH   1  19
ATOM     18  C   UNL     1      46.660   8.894  12.887  0.00  0.00    +0.000 C 
ATOM     19  N   UNL     1      46.610   7.630  12.154  0.00  0.00    +0.000 N 
ATOM     20  C   UNL     1      45.384   7.351  11.500  0.00  0.00    +0.000 C 
ATOM     21  O   UNL     1      44.471   8.176  11.546  0.00  0.00    +0.000 OA
BRANCH  20  22
ATOM     22  C   UNL     1      45.131   6.067  10.794  0.00  0.00    +0.000 A 
ATOM     23  C   UNL     1      45.666   5.662   9.581  0.00  0.00    +0.000 A 
ATOM     24  S   UNL     1      45.273   4.065   9.119  0.00  0.00    +0.000 S 
ATOM     25  C   UNL     1      44.505   3.789  10.603  0.00  0.00    +0.000 A 
ATOM     26  N   UNL     1      44.081   2.538  10.929  0.00  0.00    +0.000 NA
ATOM     27  C   UNL     1      43.577   2.450  12.114  0.00  0.00    +0.000 A 
ATOM     28  N   UNL     1      43.409   3.505  12.973  0.00  0.00    +0.000 N 
ATOM     29  C   UNL     1      43.683   4.812  12.620  0.00  0.00    +0.000 A 
ATOM     30  O   UNL     1      43.252   5.742  13.292  0.00  0.00    +0.000 OA
ATOM     31  C   UNL     1      44.412   4.937  11.366  0.00  0.00    +0.000 A 
ATOM     32  H   UNL     1      42.909   3.383  13.840  0.00  0.00    +0.000 HD
ENDBRANCH  20  22
ENDBRANCH   1  19
TORSDOF 6
ENDMDL
MODEL 2
REMARK VINA RESULT:    -7.525      3.350      7.956
REMARK INTER + INTRA:         -11.321
REMARK INTER:                 -10.142
REMARK INTRA:                  -1.180
REMARK UNBOUND:                -1.156
REMARK  Name = 
REMARK  7 active torsions:
REMARK  status: ('A' for Active; 'I' for Inactive)
REMARK    1  A    between atoms: C_1  and  N_2
REMARK    2  A    between atoms: N_2  and  C_3
REMARK    3  A    between atoms: C_3  and  C_4
REMARK    4  A    between atoms: C_7  and  C_8
REMARK    5  A    between atoms: C_8  and  N_9
REMARK    6  A    between atoms: C_10  and  C_12
REMARK    7  A    between atoms: C_19  and  C_21
REMARK                            x       y       z     vdW  Elec       q    Type
REMARK                         _______ _______ _______ _____ _____    ______ ____
ROOT
ATOM      1  C   UNL     1      47.265   7.900  13.827  0.00  0.00    +0.000 C 
ENDROOT
BRANCH   1   2
ATOM      2  C   UNL     1      46.407   6.809  13.235  0.00  0.00    +0.000 A 
ATOM      3  C   UNL     1      46.672   5.469  13.568  0.00  0.00    +0.000 A 
ATOM      4  C   UNL     1      45.908   4.435  13.030  0.00  0.00    +0.000 A 
ATOM      5  C   UNL     1      44.875   4.716  12.132  0.00  0.00    +0.000 A 
ATOM      6  C   UNL     1      44.561   6.056  11.855  0.00  0.00    +0.000 A 
ATOM      7  C   UNL     1      45.326   7.095  12.395  0.00  0.00    +0.000 A 
BRANCH   5   8
ATOM      8  C   UNL     1      44.128   3.595  11.462  0.00  0.00    +0.000 C 
BRANCH   8   9
ATOM      9  N   UNL     1      44.925   2.936  10.465  0.00  0.00    +0.000 N 
ATOM     10  C   UNL     1      44.896   3.339   9.146  0.00  0.00    +0.000 C 
ATOM     11  O   UNL     1      44.182   4.267   8.774  0.00  0.00    +0.000 OA
ATOM     12  H   UNL     1      45.594   2.230  10.742  0.00  0.00    +0.000 HD
BRANCH  10  13
ATOM     13  C   UNL     1      45.765   2.595   8.242  0.00  0.00    +0.000 A 
ATOM     14  C   UNL     1      46.063   1.245   8.301  0.00  0.00    +0.000 A 
ATOM     15  C   UNL     1      46.968   0.837   7.277  0.00  0.00    +0.000 A 
ATOM     16  C   UNL     1      47.334   1.888   6.469  0.00  0.00    +0.000 A 
ATOM     17  S   UNL     1      46.580   3.348   6.934  0.00  0.00    +0.000 S 
ENDBRANCH  10  13
ENDBRANCH   8   9
ENDBRANCH   5   8
ENDBRANCH   1   2
BRANCH   1  19
ATOM     18  C   UNL     1      49.248   7.422  12.348  0.00  0.00    +0.000 C 
ATOM     19  N   UNL     1      48.714   7.862  13.636  0.00  0.00    +0.000 N 
ATOM     20  C   UNL     1      49.650   7.923  14.699  0.00  0.00    +0.000 C 
ATOM     21  O   UNL     1      50.831   7.651  14.480  0.00  0.00    +0.000 OA
BRANCH  20  22
ATOM     22  C   UNL     1      49.254   8.254  16.093  0.00  0.00    +0.000 A 
ATOM     23  C   UNL     1      49.193   9.515  16.666  0.00  0.00    +0.000 A 
ATOM     24  S   UNL     1      48.565   9.553  18.254  0.00  0.00    +0.000 S 
ATOM     25  C   UNL     1      48.194   7.902  18.183  0.00  0.00    +0.000 A 
ATOM     26  N   UNL     1      47.472   7.323  19.180  0.00  0.00    +0.000 NA
ATOM     27  C   UNL     1      47.198   6.079  18.970  0.00  0.00    +0.000 A 
ATOM     28  N   UNL     1      47.628   5.354  17.889  0.00  0.00    +0.000 N 
ATOM     29  C   UNL     1      48.490   5.865  16.938  0.00  0.00    +0.000 A 
ATOM     30  O   UNL     1      49.076   5.117  16.163  0.00  0.00    +0.000 OA
ATOM     31  C   UNL     1      48.683   7.305  17.037  0.00  0.00    +0.000 A 
ATOM     32  H   UNL     1      47.468   4.360  17.843  0.00  0.00    +0.000 HD
ENDBRANCH  20  22
ENDBRANCH   1  19
TORSDOF 6
ENDMDL
MODEL 3
REMARK VINA RESULT:    -7.408      2.955      8.156
REMARK INTER + INTRA:         -11.162
REMARK INTER:                 -10.003
REMARK INTRA:                  -1.159
REMARK UNBOUND:                -1.156
REMARK  Name = 
REMARK  7 active torsions:
REMARK  status: ('A' for Active; 'I' for Inactive)
REMARK    1  A    between atoms: C_1  and  N_2
REMARK    2  A    between atoms: N_2  and  C_3
REMARK    3  A    between atoms: C_3  and  C_4
REMARK    4  A    between atoms: C_7  and  C_8
REMARK    5  A    between atoms: C_8  and  N_9
REMARK    6  A    between atoms: C_10  and  C_12
REMARK    7  A    between atoms: C_19  and  C_21
REMARK                            x       y       z     vdW  Elec       q    Type
REMARK                         _______ _______ _______ _____ _____    ______ ____
ROOT
ATOM      1  C   UNL     1      48.989   6.735  14.833  0.00  0.00    +0.000 C 
ENDROOT
BRANCH   1   2
ATOM      2  C   UNL     1      47.941   6.475  13.779  0.00  0.00    +0.000 A 
ATOM      3  C   UNL     1      47.113   5.346  13.895  0.00  0.00    +0.000 A 
ATOM      4  C   UNL     1      46.143   5.068  12.934  0.00  0.00    +0.000 A 
ATOM      5  C   UNL     1      45.993   5.904  11.823  0.00  0.00    +0.000 A 
ATOM      6  C   UNL     1      46.769   7.070  11.741  0.00  0.00    +0.000 A 
ATOM      7  C   UNL     1      47.742   7.351  12.706  0.00  0.00    +0.000 A 
BRANCH   5   8
ATOM      8  C   UNL     1      45.028   5.540  10.728  0.00  0.00    +0.000 C 
BRANCH   8   9
ATOM      9  N   UNL     1      45.642   4.726   9.716  0.00  0.00    +0.000 N 
ATOM     10  C   UNL     1      45.141   3.481   9.399  0.00  0.00    +0.000 C 
ATOM     11  O   UNL     1      44.159   3.019   9.975  0.00  0.00    +0.000 OA
ATOM     12  H   UNL     1      46.395   5.104   9.156  0.00  0.00    +0.000 HD
BRANCH  10  13
ATOM     13  C   UNL     1      45.850   2.767   8.344  0.00  0.00    +0.000 A 
ATOM     14  C   UNL     1      46.102   1.407   8.286  0.00  0.00    +0.000 A 
ATOM     15  C   UNL     1      46.844   1.034   7.127  0.00  0.00    +0.000 A 
ATOM     16  C   UNL     1      47.138   2.121   6.336  0.00  0.00    +0.000 A 
ATOM     17  S   UNL     1      46.510   3.572   6.980  0.00  0.00    +0.000 S 
ENDBRANCH  10  13
ENDBRANCH   8   9
ENDBRANCH   5   8
ENDBRANCH   1   2
BRANCH   1  19
ATOM     18  C   UNL     1      48.756   8.912  16.080  0.00  0.00    +0.000 C 
ATOM     19  N   UNL     1      48.624   7.456  16.051  0.00  0.00    +0.000 N 
ATOM     20  C   UNL     1      48.444   6.832  17.311  0.00  0.00    +0.000 C 
ATOM     21  O   UNL     1      48.369   7.528  18.325  0.00  0.00    +0.000 OA
BRANCH  20  22
ATOM     22  C   UNL     1      48.392   5.355  17.470  0.00  0.00    +0.000 A 
ATOM     23  C   UNL     1      47.275   4.542  17.355  0.00  0.00    +0.000 A 
ATOM     24  S   UNL     1      47.592   2.867  17.462  0.00  0.00    +0.000 S 
ATOM     25  C   UNL     1      49.261   3.151  17.505  0.00  0.00    +0.000 A 
ATOM     26  N   UNL     1      50.132   2.108  17.430  0.00  0.00    +0.000 NA
ATOM     27  C   UNL     1      51.372   2.465  17.400  0.00  0.00    +0.000 A 
ATOM     28  N   UNL     1      51.816   3.758  17.497  0.00  0.00    +0.000 N 
ATOM     29  C   UNL     1      50.973   4.826  17.729  0.00  0.00    +0.000 A 
ATOM     30  O   UNL     1      51.422   5.906  18.097  0.00  0.00    +0.000 OA
ATOM     31  C   UNL     1      49.561   4.496  17.594  0.00  0.00    +0.000 A 
ATOM     32  H   UNL     1      52.802   3.955  17.576  0.00  0.00    +0.000 HD
ENDBRANCH  20  22
ENDBRANCH   1  19
TORSDOF 6
ENDMDL
MODEL 4
REMARK VINA RESULT:    -7.375      1.491      2.172
REMARK INTER + INTRA:         -11.118
REMARK INTER:                 -10.166
REMARK INTRA:                  -0.951
REMARK UNBOUND:                -1.156
REMARK  Name = 
REMARK  7 active torsions:
REMARK  status: ('A' for Active; 'I' for Inactive)
REMARK    1  A    between atoms: C_1  and  N_2
REMARK    2  A    between atoms: N_2  and  C_3
REMARK    3  A    between atoms: C_3  and  C_4
REMARK    4  A    between atoms: C_7  and  C_8
REMARK    5  A    between atoms: C_8  and  N_9
REMARK    6  A    between atoms: C_10  and  C_12
REMARK    7  A    between atoms: C_19  and  C_21
REMARK                            x       y       z     vdW  Elec       q    Type
REMARK                         _______ _______ _______ _____ _____    ______ ____
ROOT
ATOM      1  C   UNL     1      47.420   6.255  12.277  0.00  0.00    +0.000 C 
ENDROOT
BRANCH   1   2
ATOM      2  C   UNL     1      47.553   5.723  13.683  0.00  0.00    +0.000 A 
ATOM      3  C   UNL     1      48.278   6.463  14.633  0.00  0.00    +0.000 A 
ATOM      4  C   UNL     1      48.431   5.996  15.937  0.00  0.00    +0.000 A 
ATOM      5  C   UNL     1      47.878   4.769  16.315  0.00  0.00    +0.000 A 
ATOM      6  C   UNL     1      47.094   4.064  15.390  0.00  0.00    +0.000 A 
ATOM      7  C   UNL     1      46.938   4.531  14.081  0.00  0.00    +0.000 A 
BRANCH   5   8
ATOM      8  C   UNL     1      48.143   4.211  17.687  0.00  0.00    +0.000 C 
BRANCH   8   9
ATOM      9  N   UNL     1      49.536   3.926  17.894  0.00  0.00    +0.000 N 
ATOM     10  C   UNL     1      50.126   2.808  17.345  0.00  0.00    +0.000 C 
ATOM     11  O   UNL     1      49.483   2.010  16.668  0.00  0.00    +0.000 OA
ATOM     12  H   UNL     1      50.122   4.602  18.367  0.00  0.00    +0.000 HD
BRANCH  10  13
ATOM     13  C   UNL     1      51.549   2.647  17.621  0.00  0.00    +0.000 A 
ATOM     14  C   UNL     1      52.460   3.652  17.894  0.00  0.00    +0.000 A 
ATOM     15  C   UNL     1      53.782   3.157  18.094  0.00  0.00    +0.000 A 
ATOM     16  C   UNL     1      53.840   1.788  17.966  0.00  0.00    +0.000 A 
ATOM     17  S   UNL     1      52.311   1.110  17.623  0.00  0.00    +0.000 S 
ENDBRANCH  10  13
ENDBRANCH   8   9
ENDBRANCH   5   8
ENDBRANCH   1   2
BRANCH   1  19
ATOM     18  C   UNL     1      46.477   8.589  12.161  0.00  0.00    +0.000 C 
ATOM     19  N   UNL     1      46.314   7.152  11.946  0.00  0.00    +0.000 N 
ATOM     20  C   UNL     1      44.985   6.713  11.723  0.00  0.00    +0.000 C 
ATOM     21  O   UNL     1      44.074   7.540  11.681  0.00  0.00    +0.000 OA
BRANCH  20  22
ATOM     22  C   UNL     1      44.632   5.275  11.585  0.00  0.00    +0.000 A 
ATOM     23  C   UNL     1      43.902   4.505  12.477  0.00  0.00    +0.000 A 
ATOM     24  S   UNL     1      43.561   2.918  11.946  0.00  0.00    +0.000 S 
ATOM     25  C   UNL     1      44.235   3.246  10.427  0.00  0.00    +0.000 A 
ATOM     26  N   UNL     1      44.116   2.340   9.419  0.00  0.00    +0.000 NA
ATOM     27  C   UNL     1      44.610   2.741   8.296  0.00  0.00    +0.000 A 
ATOM     28  N   UNL     1      45.259   3.934   8.108  0.00  0.00    +0.000 N 
ATOM     29  C   UNL     1      45.535   4.809   9.140  0.00  0.00    +0.000 A 
ATOM     30  O   UNL     1      46.357   5.707   8.993  0.00  0.00    +0.000 OA
ATOM     31  C   UNL     1      44.847   4.484  10.382  0.00  0.00    +0.000 A 
ATOM     32  H   UNL     1      45.715   4.135   7.232  0.00  0.00    +0.000 HD
ENDBRANCH  20  22
ENDBRANCH   1  19
TORSDOF 6
ENDMDL
MODEL 5
REMARK VINA RESULT:    -6.366      2.830      3.593
REMARK INTER + INTRA:          -9.755
REMARK INTER:                  -8.586
REMARK INTRA:                  -1.169
REMARK UNBOUND:                -1.156
REMARK  Name = 
REMARK  7 active torsions:
REMARK  status: ('A' for Active; 'I' for Inactive)
REMARK    1  A    between atoms: C_1  and  N_2
REMARK    2  A    between atoms: N_2  and  C_3
REMARK    3  A    between atoms: C_3  and  C_4
REMARK    4  A    between atoms: C_7  and  C_8
REMARK    5  A    between atoms: C_8  and  N_9
REMARK    6  A    between atoms: C_10  and  C_12
REMARK    7  A    between atoms: C_19  and  C_21
REMARK                            x       y       z     vdW  Elec       q    Type
REMARK                         _______ _______ _______ _____ _____    ______ ____
ROOT
ATOM      1  C   UNL     1      47.434   6.193  12.410  0.00  0.00    +0.000 C 
ENDROOT
BRANCH   1   2
ATOM      2  C   UNL     1      47.631   5.834  13.863  0.00  0.00    +0.000 A 
ATOM      3  C   UNL     1      47.079   4.639  14.356  0.00  0.00    +0.000 A 
ATOM      4  C   UNL     1      47.230   4.281  15.695  0.00  0.00    +0.000 A 
ATOM      5  C   UNL     1      47.920   5.121  16.574  0.00  0.00    +0.000 A 
ATOM      6  C   UNL     1      48.534   6.277  16.069  0.00  0.00    +0.000 A 
ATOM      7  C   UNL     1      48.384   6.637  14.726  0.00  0.00    +0.000 A 
BRANCH   5   8
ATOM      8  C   UNL     1      47.982   4.793  18.041  0.00  0.00    +0.000 C 
BRANCH   8   9
ATOM      9  N   UNL     1      48.760   5.751  18.776  0.00  0.00    +0.000 N 
ATOM     10  C   UNL     1      50.026   5.447  19.229  0.00  0.00    +0.000 C 
ATOM     11  O   UNL     1      50.531   4.345  19.030  0.00  0.00    +0.000 OA
ATOM     12  H   UNL     1      48.420   6.697  18.883  0.00  0.00    +0.000 HD
BRANCH  10  13
ATOM     13  C   UNL     1      50.711   6.515  19.948  0.00  0.00    +0.000 A 
ATOM     14  C   UNL     1      50.131   7.629  20.529  0.00  0.00    +0.000 A 
ATOM     15  C   UNL     1      51.089   8.494  21.134  0.00  0.00    +0.000 A 
ATOM     16  C   UNL     1      52.371   8.016  20.995  0.00  0.00    +0.000 A 
ATOM     17  S   UNL     1      52.414   6.530  20.155  0.00  0.00    +0.000 S 
ENDBRANCH  10  13
ENDBRANCH   8   9
ENDBRANCH   5   8
ENDBRANCH   1   2
BRANCH   1  19
ATOM     18  C   UNL     1      46.536   8.541  12.249  0.00  0.00    +0.000 C 
ATOM     19  N   UNL     1      46.357   7.106  12.033  0.00  0.00    +0.000 N 
ATOM     20  C   UNL     1      45.031   6.689  11.759  0.00  0.00    +0.000 C 
ATOM     21  O   UNL     1      44.136   7.531  11.679  0.00  0.00    +0.000 OA
BRANCH  20  22
ATOM     22  C   UNL     1      44.659   5.257  11.613  0.00  0.00    +0.000 A 
ATOM     23  C   UNL     1      43.930   4.488  12.507  0.00  0.00    +0.000 A 
ATOM     24  S   UNL     1      43.564   2.910  11.965  0.00  0.00    +0.000 S 
ATOM     25  C   UNL     1      44.225   3.243  10.442  0.00  0.00    +0.000 A 
ATOM     26  N   UNL     1      44.084   2.347   9.428  0.00  0.00    +0.000 NA
ATOM     27  C   UNL     1      44.571   2.752   8.303  0.00  0.00    +0.000 A 
ATOM     28  N   UNL     1      45.231   3.939   8.118  0.00  0.00    +0.000 N 
ATOM     29  C   UNL     1      45.529   4.802   9.154  0.00  0.00    +0.000 A 
ATOM     30  O   UNL     1      46.360   5.691   9.006  0.00  0.00    +0.000 OA
ATOM     31  C   UNL     1      44.851   4.473  10.401  0.00  0.00    +0.000 A 
ATOM     32  H   UNL     1      45.680   4.142   7.239  0.00  0.00    +0.000 HD
ENDBRANCH  20  22
ENDBRANCH   1  19
TORSDOF 6
ENDMDL
MODEL 6
REMARK VINA RESULT:    -6.363      3.288      8.224
REMARK INTER + INTRA:          -9.751
REMARK INTER:                  -8.492
REMARK INTRA:                  -1.260
REMARK UNBOUND:                -1.156
REMARK  Name = 
REMARK  7 active torsions:
REMARK  status: ('A' for Active; 'I' for Inactive)
REMARK    1  A    between atoms: C_1  and  N_2
REMARK    2  A    between atoms: N_2  and  C_3
REMARK    3  A    between atoms: C_3  and  C_4
REMARK    4  A    between atoms: C_7  and  C_8
REMARK    5  A    between atoms: C_8  and  N_9
REMARK    6  A    between atoms: C_10  and  C_12
REMARK    7  A    between atoms: C_19  and  C_21
REMARK                            x       y       z     vdW  Elec       q    Type
REMARK                         _______ _______ _______ _____ _____    ______ ____
ROOT
ATOM      1  C   UNL     1      48.958   9.237  14.665  0.00  0.00    +0.000 C 
ENDROOT
BRANCH   1   2
ATOM      2  C   UNL     1      47.916   8.577  13.796  0.00  0.00    +0.000 A 
ATOM      3  C   UNL     1      47.141   9.367  12.931  0.00  0.00    +0.000 A 
ATOM      4  C   UNL     1      46.161   8.794  12.124  0.00  0.00    +0.000 A 
ATOM      5  C   UNL     1      45.920   7.417  12.178  0.00  0.00    +0.000 A 
ATOM      6  C   UNL     1      46.741   6.616  12.987  0.00  0.00    +0.000 A 
ATOM      7  C   UNL     1      47.726   7.191  13.797  0.00  0.00    +0.000 A 
BRANCH   5   8
ATOM      8  C   UNL     1      44.785   6.816  11.395  0.00  0.00    +0.000 C 
BRANCH   8   9
ATOM      9  N   UNL     1      45.251   5.951  10.348  0.00  0.00    +0.000 N 
ATOM     10  C   UNL     1      44.839   4.637  10.270  0.00  0.00    +0.000 C 
ATOM     11  O   UNL     1      44.069   4.156  11.097  0.00  0.00    +0.000 OA
ATOM     12  H   UNL     1      45.813   6.329   9.596  0.00  0.00    +0.000 HD
BRANCH  10  13
ATOM     13  C   UNL     1      45.376   3.875   9.148  0.00  0.00    +0.000 A 
ATOM     14  C   UNL     1      46.065   4.376   8.058  0.00  0.00    +0.000 A 
ATOM     15  C   UNL     1      46.430   3.362   7.125  0.00  0.00    +0.000 A 
ATOM     16  C   UNL     1      46.009   2.117   7.531  0.00  0.00    +0.000 A 
ATOM     17  S   UNL     1      45.193   2.173   9.030  0.00  0.00    +0.000 S 
ENDBRANCH  10  13
ENDBRANCH   8   9
ENDBRANCH   5   8
ENDBRANCH   1   2
BRANCH   1  19
ATOM     18  C   UNL     1      51.077   8.432  13.564  0.00  0.00    +0.000 C 
ATOM     19  N   UNL     1      50.288   8.639  14.778  0.00  0.00    +0.000 N 
ATOM     20  C   UNL     1      50.750   7.960  15.932  0.00  0.00    +0.000 C 
ATOM     21  O   UNL     1      51.780   7.288  15.867  0.00  0.00    +0.000 OA
BRANCH  20  22
ATOM     22  C   UNL     1      50.010   7.983  17.221  0.00  0.00    +0.000 A 
ATOM     23  C   UNL     1      49.980   9.013  18.148  0.00  0.00    +0.000 A 
ATOM     24  S   UNL     1      48.916   8.767  19.462  0.00  0.00    +0.000 S 
ATOM     25  C   UNL     1      48.326   7.342  18.761  0.00  0.00    +0.000 A 
ATOM     26  N   UNL     1      47.254   6.707  19.308  0.00  0.00    +0.000 NA
ATOM     27  C   UNL     1      46.863   5.675  18.638  0.00  0.00    +0.000 A 
ATOM     28  N   UNL     1      47.478   5.193  17.513  0.00  0.00    +0.000 N 
ATOM     29  C   UNL     1      48.656   5.717  17.018  0.00  0.00    +0.000 A 
ATOM     30  O   UNL     1      49.323   5.090  16.202  0.00  0.00    +0.000 OA
ATOM     31  C   UNL     1      49.037   6.981  17.633  0.00  0.00    +0.000 A 
ATOM     32  H   UNL     1      47.184   4.320  17.103  0.00  0.00    +0.000 HD
ENDBRANCH  20  22
ENDBRANCH   1  19
TORSDOF 6
ENDMDL
MODEL 7
REMARK VINA RESULT:    -6.024      2.953      7.815
REMARK INTER + INTRA:          -9.293
REMARK INTER:                  -8.027
REMARK INTRA:                  -1.266
REMARK UNBOUND:                -1.156
REMARK  Name = 
REMARK  7 active torsions:
REMARK  status: ('A' for Active; 'I' for Inactive)
REMARK    1  A    between atoms: C_1  and  N_2
REMARK    2  A    between atoms: N_2  and  C_3
REMARK    3  A    between atoms: C_3  and  C_4
REMARK    4  A    between atoms: C_7  and  C_8
REMARK    5  A    between atoms: C_8  and  N_9
REMARK    6  A    between atoms: C_10  and  C_12
REMARK    7  A    between atoms: C_19  and  C_21
REMARK                            x       y       z     vdW  Elec       q    Type
REMARK                         _______ _______ _______ _____ _____    ______ ____
ROOT
ATOM      1  C   UNL     1      49.317   8.291  18.671  0.00  0.00    +0.000 C 
ENDROOT
BRANCH   1   2
ATOM      2  C   UNL     1      49.116   8.115  17.186  0.00  0.00    +0.000 A 
ATOM      3  C   UNL     1      48.156   8.899  16.524  0.00  0.00    +0.000 A 
ATOM      4  C   UNL     1      47.935   8.755  15.156  0.00  0.00    +0.000 A 
ATOM      5  C   UNL     1      48.656   7.808  14.422  0.00  0.00    +0.000 A 
ATOM      6  C   UNL     1      49.665   7.075  15.065  0.00  0.00    +0.000 A 
ATOM      7  C   UNL     1      49.889   7.220  16.439  0.00  0.00    +0.000 A 
BRANCH   5   8
ATOM      8  C   UNL     1      48.335   7.571  12.972  0.00  0.00    +0.000 C 
BRANCH   8   9
ATOM      9  N   UNL     1      47.088   6.878  12.801  0.00  0.00    +0.000 N 
ATOM     10  C   UNL     1      46.991   5.519  13.009  0.00  0.00    +0.000 C 
ATOM     11  O   UNL     1      47.967   4.849  13.337  0.00  0.00    +0.000 OA
ATOM     12  H   UNL     1      46.243   7.404  12.621  0.00  0.00    +0.000 HD
BRANCH  10  13
ATOM     13  C   UNL     1      45.664   4.946  12.816  0.00  0.00    +0.000 A 
ATOM     14  C   UNL     1      45.360   3.615  12.586  0.00  0.00    +0.000 A 
ATOM     15  C   UNL     1      43.963   3.392  12.417  0.00  0.00    +0.000 A 
ATOM     16  C   UNL     1      43.241   4.559  12.520  0.00  0.00    +0.000 A 
ATOM     17  S   UNL     1      44.243   5.906  12.834  0.00  0.00    +0.000 S 
ENDBRANCH  10  13
ENDBRANCH   8   9
ENDBRANCH   5   8
ENDBRANCH   1   2
BRANCH   1  19
ATOM     18  C   UNL     1      47.586   8.236  20.501  0.00  0.00    +0.000 C 
ATOM     19  N   UNL     1      48.496   7.523  19.606  0.00  0.00    +0.000 N 
ATOM     20  C   UNL     1      48.735   6.165  19.931  0.00  0.00    +0.000 C 
ATOM     21  O   UNL     1      48.152   5.661  20.892  0.00  0.00    +0.000 OA
BRANCH  20  22
ATOM     22  C   UNL     1      49.709   5.326  19.184  0.00  0.00    +0.000 A 
ATOM     23  C   UNL     1      51.065   5.193  19.439  0.00  0.00    +0.000 A 
ATOM     24  S   UNL     1      51.869   4.038  18.472  0.00  0.00    +0.000 S 
ATOM     25  C   UNL     1      50.403   3.546  17.781  0.00  0.00    +0.000 A 
ATOM     26  N   UNL     1      50.364   2.454  16.971  0.00  0.00    +0.000 NA
ATOM     27  C   UNL     1      49.176   2.146  16.568  0.00  0.00    +0.000 A 
ATOM     28  N   UNL     1      48.043   2.861  16.854  0.00  0.00    +0.000 N 
ATOM     29  C   UNL     1      48.064   4.058  17.542  0.00  0.00    +0.000 A 
ATOM     30  O   UNL     1      47.092   4.805  17.524  0.00  0.00    +0.000 OA
ATOM     31  C   UNL     1      49.348   4.353  18.163  0.00  0.00    +0.000 A 
ATOM     32  H   UNL     1      47.166   2.625  16.417  0.00  0.00    +0.000 HD
ENDBRANCH  20  22
ENDBRANCH   1  19
TORSDOF 6
ENDMDL
MODEL 8
REMARK VINA RESULT:    -5.816      3.085      8.408
REMARK INTER + INTRA:          -9.012
REMARK INTER:                  -7.705
REMARK INTRA:                  -1.307
REMARK UNBOUND:                -1.156
REMARK  Name = 
REMARK  7 active torsions:
REMARK  status: ('A' for Active; 'I' for Inactive)
REMARK    1  A    between atoms: C_1  and  N_2
REMARK    2  A    between atoms: N_2  and  C_3
REMARK    3  A    between atoms: C_3  and  C_4
REMARK    4  A    between atoms: C_7  and  C_8
REMARK    5  A    between atoms: C_8  and  N_9
REMARK    6  A    between atoms: C_10  and  C_12
REMARK    7  A    between atoms: C_19  and  C_21
REMARK                            x       y       z     vdW  Elec       q    Type
REMARK                         _______ _______ _______ _____ _____    ______ ____
ROOT
ATOM      1  C   UNL     1      50.413   7.742  14.587  0.00  0.00    +0.000 C 
ENDROOT
BRANCH   1   2
ATOM      2  C   UNL     1      49.085   7.680  13.874  0.00  0.00    +0.000 A 
ATOM      3  C   UNL     1      48.267   6.550  14.041  0.00  0.00    +0.000 A 
ATOM      4  C   UNL     1      47.039   6.452  13.388  0.00  0.00    +0.000 A 
ATOM      5  C   UNL     1      46.611   7.476  12.538  0.00  0.00    +0.000 A 
ATOM      6  C   UNL     1      47.391   8.637  12.426  0.00  0.00    +0.000 A 
ATOM      7  C   UNL     1      48.623   8.737  13.082  0.00  0.00    +0.000 A 
BRANCH   5   8
ATOM      8  C   UNL     1      45.343   7.319  11.744  0.00  0.00    +0.000 C 
BRANCH   8   9
ATOM      9  N   UNL     1      45.471   6.326  10.714  0.00  0.00    +0.000 N 
ATOM     10  C   UNL     1      44.852   5.099  10.823  0.00  0.00    +0.000 C 
ATOM     11  O   UNL     1      44.177   4.806  11.806  0.00  0.00    +0.000 OA
ATOM     12  H   UNL     1      45.941   6.558   9.848  0.00  0.00    +0.000 HD
BRANCH  10  13
ATOM     13  C   UNL     1      45.052   4.191   9.699  0.00  0.00    +0.000 A 
ATOM     14  C   UNL     1      45.635   4.494   8.481  0.00  0.00    +0.000 A 
ATOM     15  C   UNL     1      45.654   3.382   7.589  0.00  0.00    +0.000 A 
ATOM     16  C   UNL     1      45.084   2.264   8.153  0.00  0.00    +0.000 A 
ATOM     17  S   UNL     1      44.546   2.553   9.748  0.00  0.00    +0.000 S 
ENDBRANCH  10  13
ENDBRANCH   8   9
ENDBRANCH   5   8
ENDBRANCH   1   2
BRANCH   1  19
ATOM     18  C   UNL     1      51.351   9.945  15.374  0.00  0.00    +0.000 C 
ATOM     19  N   UNL     1      50.612   8.716  15.659  0.00  0.00    +0.000 N 
ATOM     20  C   UNL     1      50.413   8.426  17.032  0.00  0.00    +0.000 C 
ATOM     21  O   UNL     1      50.822   9.217  17.883  0.00  0.00    +0.000 OA
BRANCH  20  22
ATOM     22  C   UNL     1      49.770   7.169  17.497  0.00  0.00    +0.000 A 
ATOM     23  C   UNL     1      48.417   6.953  17.711  0.00  0.00    +0.000 A 
ATOM     24  S   UNL     1      48.000   5.347  18.115  0.00  0.00    +0.000 S 
ATOM     25  C   UNL     1      49.594   4.833  17.860  0.00  0.00    +0.000 A 
ATOM     26  N   UNL     1      49.893   3.506  17.878  0.00  0.00    +0.000 NA
ATOM     27  C   UNL     1      51.127   3.247  17.599  0.00  0.00    +0.000 A 
ATOM     28  N   UNL     1      52.092   4.191  17.364  0.00  0.00    +0.000 N 
ATOM     29  C   UNL     1      51.862   5.547  17.489  0.00  0.00    +0.000 A 
ATOM     30  O   UNL     1      52.799   6.334  17.560  0.00  0.00    +0.000 OA
ATOM     31  C   UNL     1      50.453   5.890  17.628  0.00  0.00    +0.000 A 
ATOM     32  H   UNL     1      53.057   3.921  17.260  0.00  0.00    +0.000 HD
ENDBRANCH  20  22
ENDBRANCH   1  19
TORSDOF 6
ENDMDL
MODEL 9
REMARK VINA RESULT:    -5.691      3.142      8.438
REMARK INTER + INTRA:          -8.844
REMARK INTER:                  -7.238
REMARK INTRA:                  -1.605
REMARK UNBOUND:                -1.156
REMARK  Name = 
REMARK  7 active torsions:
REMARK  status: ('A' for Active; 'I' for Inactive)
REMARK    1  A    between atoms: C_1  and  N_2
REMARK    2  A    between atoms: N_2  and  C_3
REMARK    3  A    between atoms: C_3  and  C_4
REMARK    4  A    between atoms: C_7  and  C_8
REMARK    5  A    between atoms: C_8  and  N_9
REMARK    6  A    between atoms: C_10  and  C_12
REMARK    7  A    between atoms: C_19  and  C_21
REMARK                            x       y       z     vdW  Elec       q    Type
REMARK                         _______ _______ _______ _____ _____    ______ ____
ROOT
ATOM      1  C   UNL     1      51.783   8.111  16.879  0.00  0.00    +0.000 C 
ENDROOT
BRANCH   1   2
ATOM      2  C   UNL     1      50.497   8.157  16.092  0.00  0.00    +0.000 A 
ATOM      3  C   UNL     1      50.389   7.411  14.905  0.00  0.00    +0.000 A 
ATOM      4  C   UNL     1      49.221   7.440  14.147  0.00  0.00    +0.000 A 
ATOM      5  C   UNL     1      48.140   8.230  14.548  0.00  0.00    +0.000 A 
ATOM      6  C   UNL     1      48.217   8.918  15.768  0.00  0.00    +0.000 A 
ATOM      7  C   UNL     1      49.389   8.890  16.532  0.00  0.00    +0.000 A 
BRANCH   5   8
ATOM      8  C   UNL     1      46.925   8.353  13.669  0.00  0.00    +0.000 C 
BRANCH   8   9
ATOM      9  N   UNL     1      46.306   7.080  13.424  0.00  0.00    +0.000 N 
ATOM     10  C   UNL     1      45.283   6.947  12.509  0.00  0.00    +0.000 C 
ATOM     11  O   UNL     1      44.857   7.911  11.878  0.00  0.00    +0.000 OA
ATOM     12  H   UNL     1      46.685   6.246  13.853  0.00  0.00    +0.000 HD
BRANCH  10  13
ATOM     13  C   UNL     1      44.755   5.597  12.347  0.00  0.00    +0.000 A 
ATOM     14  C   UNL     1      45.469   4.463  12.004  0.00  0.00    +0.000 A 
ATOM     15  C   UNL     1      44.645   3.304  11.904  0.00  0.00    +0.000 A 
ATOM     16  C   UNL     1      43.326   3.589  12.172  0.00  0.00    +0.000 A 
ATOM     17  S   UNL     1      43.091   5.237  12.554  0.00  0.00    +0.000 S 
ENDBRANCH  10  13
ENDBRANCH   8   9
ENDBRANCH   5   8
ENDBRANCH   1   2
BRANCH   1  19
ATOM     18  C   UNL     1      53.515   6.509  15.992  0.00  0.00    +0.000 C 
ATOM     19  N   UNL     1      52.511   6.848  17.000  0.00  0.00    +0.000 N 
ATOM     20  C   UNL     1      52.105   5.783  17.842  0.00  0.00    +0.000 C 
ATOM     21  O   UNL     1      52.630   4.677  17.714  0.00  0.00    +0.000 OA
BRANCH  20  22
ATOM     22  C   UNL     1      51.024   5.932  18.851  0.00  0.00    +0.000 A 
ATOM     23  C   UNL     1      51.127   6.514  20.106  0.00  0.00    +0.000 A 
ATOM     24  S   UNL     1      49.654   6.645  20.961  0.00  0.00    +0.000 S 
ATOM     25  C   UNL     1      48.787   6.078  19.621  0.00  0.00    +0.000 A 
ATOM     26  N   UNL     1      47.426   6.102  19.631  0.00  0.00    +0.000 NA
ATOM     27  C   UNL     1      46.891   5.710  18.523  0.00  0.00    +0.000 A 
ATOM     28  N   UNL     1      47.587   5.245  17.438  0.00  0.00    +0.000 N 
ATOM     29  C   UNL     1      48.956   5.060  17.448  0.00  0.00    +0.000 A 
ATOM     30  O   UNL     1      49.499   4.380  16.585  0.00  0.00    +0.000 OA
ATOM     31  C   UNL     1      49.617   5.650  18.603  0.00  0.00    +0.000 A 
ATOM     32  H   UNL     1      47.100   4.853  16.648  0.00  0.00    +0.000 HD
ENDBRANCH  20  22
ENDBRANCH   1  19
TORSDOF 6
ENDMDL
