MODEL 1
REMARK VINA RESULT:    -8.301      0.000      0.000
REMARK INTER + INTRA:         -12.966
REMARK INTER:                 -11.940
REMARK INTRA:                  -1.026
REMARK UNBOUND:                -1.026
REMARK  Name = 
REMARK  8 active torsions:
REMARK  status: ('A' for Active; 'I' for Inactive)
REMARK    1  A    between atoms: N_1  and  C_2
REMARK    2  A    between atoms: C_2  and  C_3
REMARK    3  A    between atoms: C_3  and  N_4
REMARK    4  A    between atoms: C_3  and  C_17
REMARK    5  A    between atoms: C_5  and  C_7
REMARK    6  A    between atoms: C_20  and  O_21
REMARK    7  A    between atoms: O_21  and  C_22
REMARK    8  A    between atoms: C_22  and  C_23
REMARK                            x       y       z     vdW  Elec       q    Type
REMARK                         _______ _______ _______ _____ _____    ______ ____
ROOT
ATOM      1  C   UNL     1      47.476   6.754  13.405  0.00  0.00    +0.000 C 
ENDROOT
BRANCH   1   2
ATOM      2  C   UNL     1      46.510   5.919  12.575  0.00  0.00    +0.000 A 
ATOM      3  C   UNL     1      46.060   6.382  11.332  0.00  0.00    +0.000 A 
ATOM      4  C   UNL     1      45.241   5.580  10.530  0.00  0.00    +0.000 A 
ATOM      5  C   UNL     1      44.874   4.304  10.956  0.00  0.00    +0.000 A 
ATOM      6  C   UNL     1      45.264   3.862  12.220  0.00  0.00    +0.000 A 
ATOM      7  C   UNL     1      46.086   4.656  13.016  0.00  0.00    +0.000 A 
BRANCH   5   8
ATOM      8  O   UNL     1      44.149   3.562  10.064  0.00  0.00    +0.000 OA
BRANCH   8   9
ATOM      9  C   UNL     1      44.703   2.272   9.776  0.00  0.00    +0.000 C 
BRANCH   9  10
ATOM     10  C   UNL     1      45.577   2.293   8.542  0.00  0.00    +0.000 A 
ATOM     11  C   UNL     1      45.570   3.378   7.671  0.00  0.00    +0.000 A 
ATOM     12  C   UNL     1      46.372   3.330   6.538  0.00  0.00    +0.000 A 
ATOM     13  C   UNL     1      47.154   2.208   6.298  0.00  0.00    +0.000 A 
ATOM     14  C   UNL     1      47.093   1.167   7.206  0.00  0.00    +0.000 A 
ATOM     15  N   UNL     1      46.324   1.184   8.316  0.00  0.00    +0.000 NA
ENDBRANCH   9  10
ENDBRANCH   8   9
ENDBRANCH   5   8
ENDBRANCH   1   2
BRANCH   1  16
ATOM     16  N   UNL     1      47.516   6.205  14.755  0.00  0.00    +0.000 N 
ATOM     17  C   UNL     1      48.654   6.177  15.511  0.00  0.00    +0.000 C 
ATOM     18  O   UNL     1      49.701   6.698  15.134  0.00  0.00    +0.000 OA
ATOM     19  H   UNL     1      46.694   5.696  15.069  0.00  0.00    +0.000 HD
BRANCH  17  20
ATOM     20  C   UNL     1      48.563   5.511  16.817  0.00  0.00    +0.000 A 
ATOM     21  C   UNL     1      48.726   4.134  16.896  0.00  0.00    +0.000 A 
ATOM     22  S   UNL     1      48.510   3.508  18.468  0.00  0.00    +0.000 S 
ATOM     23  C   UNL     1      48.157   5.050  19.092  0.00  0.00    +0.000 A 
ATOM     24  N   UNL     1      47.802   5.214  20.393  0.00  0.00    +0.000 NA
ATOM     25  C   UNL     1      47.517   6.430  20.722  0.00  0.00    +0.000 A 
ATOM     26  N   UNL     1      47.593   7.503  19.873  0.00  0.00    +0.000 N 
ATOM     27  C   UNL     1      48.046   7.401  18.582  0.00  0.00    +0.000 A 
ATOM     28  O   UNL     1      48.292   8.396  17.907  0.00  0.00    +0.000 OA
ATOM     29  C   UNL     1      48.281   6.037  18.131  0.00  0.00    +0.000 A 
ATOM     30  H   UNL     1      47.419   8.439  20.211  0.00  0.00    +0.000 HD
ENDBRANCH  17  20
ENDBRANCH   1  16
BRANCH   1  31
ATOM     31  C   UNL     1      47.097   8.265  13.409  0.00  0.00    +0.000 C 
BRANCH  31  32
ATOM     32  N   UNL     1      47.219   8.914  14.722  0.00  0.00    +0.000 NA
ATOM     33  H   UNL     1      46.452   8.607  15.318  0.00  0.00    +0.000 HD
ATOM     34  H   UNL     1      47.111   9.924  14.613  0.00  0.00    +0.000 HD
ENDBRANCH  31  32
ENDBRANCH   1  31
TORSDOF 8
ENDMDL
MODEL 2
REMARK VINA RESULT:    -8.266      1.574      2.171
REMARK INTER + INTRA:         -12.915
REMARK INTER:                 -12.030
REMARK INTRA:                  -0.886
REMARK UNBOUND:                -1.026
REMARK  Name = 
REMARK  8 active torsions:
REMARK  status: ('A' for Active; 'I' for Inactive)
REMARK    1  A    between atoms: N_1  and  C_2
REMARK    2  A    between atoms: C_2  and  C_3
REMARK    3  A    between atoms: C_3  and  N_4
REMARK    4  A    between atoms: C_3  and  C_17
REMARK    5  A    between atoms: C_5  and  C_7
REMARK    6  A    between atoms: C_20  and  O_21
REMARK    7  A    between atoms: O_21  and  C_22
REMARK    8  A    between atoms: C_22  and  C_23
REMARK                            x       y       z     vdW  Elec       q    Type
REMARK                         _______ _______ _______ _____ _____    ______ ____
ROOT
ATOM      1  C   UNL     1      47.240   7.262  12.874  0.00  0.00    +0.000 C 
ENDROOT
BRANCH   1   2
ATOM      2  C   UNL     1      46.393   6.168  12.238  0.00  0.00    +0.000 A 
ATOM      3  C   UNL     1      46.025   6.250  10.889  0.00  0.00    +0.000 A 
ATOM      4  C   UNL     1      45.320   5.207  10.281  0.00  0.00    +0.000 A 
ATOM      5  C   UNL     1      44.987   4.066  11.009  0.00  0.00    +0.000 A 
ATOM      6  C   UNL     1      45.291   4.004  12.369  0.00  0.00    +0.000 A 
ATOM      7  C   UNL     1      46.000   5.039  12.974  0.00  0.00    +0.000 A 
BRANCH   5   8
ATOM      8  O   UNL     1      44.380   3.063  10.305  0.00  0.00    +0.000 OA
BRANCH   8   9
ATOM      9  C   UNL     1      44.337   3.273   8.888  0.00  0.00    +0.000 C 
BRANCH   9  10
ATOM     10  C   UNL     1      45.510   2.630   8.183  0.00  0.00    +0.000 A 
ATOM     11  C   UNL     1      46.275   3.339   7.261  0.00  0.00    +0.000 A 
ATOM     12  C   UNL     1      47.323   2.689   6.622  0.00  0.00    +0.000 A 
ATOM     13  C   UNL     1      47.582   1.356   6.912  0.00  0.00    +0.000 A 
ATOM     14  C   UNL     1      46.767   0.720   7.830  0.00  0.00    +0.000 A 
ATOM     15  N   UNL     1      45.741   1.324   8.467  0.00  0.00    +0.000 NA
ENDBRANCH   9  10
ENDBRANCH   8   9
ENDBRANCH   5   8
ENDBRANCH   1   2
BRANCH   1  16
ATOM     16  N   UNL     1      47.423   6.940  14.284  0.00  0.00    +0.000 N 
ATOM     17  C   UNL     1      48.656   6.772  14.853  0.00  0.00    +0.000 C 
ATOM     18  O   UNL     1      49.694   6.972  14.228  0.00  0.00    +0.000 OA
ATOM     19  H   UNL     1      46.592   6.690  14.812  0.00  0.00    +0.000 HD
BRANCH  17  20
ATOM     20  C   UNL     1      48.682   6.360  16.262  0.00  0.00    +0.000 A 
ATOM     21  C   UNL     1      49.083   7.267  17.235  0.00  0.00    +0.000 A 
ATOM     22  S   UNL     1      49.134   6.608  18.806  0.00  0.00    +0.000 S 
ATOM     23  C   UNL     1      48.658   5.077  18.239  0.00  0.00    +0.000 A 
ATOM     24  N   UNL     1      48.577   4.013  19.080  0.00  0.00    +0.000 NA
ATOM     25  C   UNL     1      48.246   2.902  18.509  0.00  0.00    +0.000 A 
ATOM     26  N   UNL     1      47.953   2.771  17.176  0.00  0.00    +0.000 N 
ATOM     27  C   UNL     1      47.920   3.835  16.312  0.00  0.00    +0.000 A 
ATOM     28  O   UNL     1      47.467   3.727  15.177  0.00  0.00    +0.000 OA
ATOM     29  C   UNL     1      48.385   5.091  16.883  0.00  0.00    +0.000 A 
ATOM     30  H   UNL     1      47.639   1.885  16.805  0.00  0.00    +0.000 HD
ENDBRANCH  17  20
ENDBRANCH   1  16
BRANCH   1  31
ATOM     31  C   UNL     1      46.617   8.677  12.683  0.00  0.00    +0.000 C 
BRANCH  31  32
ATOM     32  N   UNL     1      45.288   8.838  13.289  0.00  0.00    +0.000 NA
ATOM     33  H   UNL     1      44.668   8.113  12.931  0.00  0.00    +0.000 HD
ATOM     34  H   UNL     1      44.885   9.730  12.996  0.00  0.00    +0.000 HD
ENDBRANCH  31  32
ENDBRANCH   1  31
TORSDOF 8
ENDMDL
MODEL 3
REMARK VINA RESULT:    -7.720      3.011      4.643
REMARK INTER + INTRA:         -12.130
REMARK INTER:                 -10.808
REMARK INTRA:                  -1.323
REMARK UNBOUND:                -1.026
REMARK  Name = 
REMARK  8 active torsions:
REMARK  status: ('A' for Active; 'I' for Inactive)
REMARK    1  A    between atoms: N_1  and  C_2
REMARK    2  A    between atoms: C_2  and  C_3
REMARK    3  A    between atoms: C_3  and  N_4
REMARK    4  A    between atoms: C_3  and  C_17
REMARK    5  A    between atoms: C_5  and  C_7
REMARK    6  A    between atoms: C_20  and  O_21
REMARK    7  A    between atoms: O_21  and  C_22
REMARK    8  A    between atoms: C_22  and  C_23
REMARK                            x       y       z     vdW  Elec       q    Type
REMARK                         _______ _______ _______ _____ _____    ______ ____
ROOT
ATOM      1  C   UNL     1      46.757   5.742  13.997  0.00  0.00    +0.000 C 
ENDROOT
BRANCH   1   2
ATOM      2  C   UNL     1      46.130   5.113  12.759  0.00  0.00    +0.000 A 
ATOM      3  C   UNL     1      45.649   3.799  12.799  0.00  0.00    +0.000 A 
ATOM      4  C   UNL     1      44.996   3.249  11.691  0.00  0.00    +0.000 A 
ATOM      5  C   UNL     1      44.805   4.010  10.538  0.00  0.00    +0.000 A 
ATOM      6  C   UNL     1      45.338   5.297  10.468  0.00  0.00    +0.000 A 
ATOM      7  C   UNL     1      45.982   5.849  11.573  0.00  0.00    +0.000 A 
BRANCH   5   8
ATOM      8  O   UNL     1      44.076   3.418   9.544  0.00  0.00    +0.000 OA
BRANCH   8   9
ATOM      9  C   UNL     1      44.538   2.115   9.164  0.00  0.00    +0.000 C 
BRANCH   9  10
ATOM     10  C   UNL     1      45.655   2.184   8.148  0.00  0.00    +0.000 A 
ATOM     11  C   UNL     1      45.795   3.280   7.302  0.00  0.00    +0.000 A 
ATOM     12  C   UNL     1      46.824   3.276   6.367  0.00  0.00    +0.000 A 
ATOM     13  C   UNL     1      47.681   2.186   6.296  0.00  0.00    +0.000 A 
ATOM     14  C   UNL     1      47.465   1.131   7.163  0.00  0.00    +0.000 A 
ATOM     15  N   UNL     1      46.475   1.105   8.081  0.00  0.00    +0.000 NA
ENDBRANCH   9  10
ENDBRANCH   8   9
ENDBRANCH   5   8
ENDBRANCH   1   2
BRANCH   1  16
ATOM     16  N   UNL     1      47.890   6.557  13.574  0.00  0.00    +0.000 N 
ATOM     17  C   UNL     1      47.823   7.918  13.462  0.00  0.00    +0.000 C 
ATOM     18  O   UNL     1      46.827   8.552  13.799  0.00  0.00    +0.000 OA
ATOM     19  H   UNL     1      48.702   6.065  13.213  0.00  0.00    +0.000 HD
BRANCH  17  20
ATOM     20  C   UNL     1      49.016   8.596  12.937  0.00  0.00    +0.000 A 
ATOM     21  C   UNL     1      48.899   9.435  11.836  0.00  0.00    +0.000 A 
ATOM     22  S   UNL     1      50.385  10.078  11.304  0.00  0.00    +0.000 S 
ATOM     23  C   UNL     1      51.244   9.231  12.504  0.00  0.00    +0.000 A 
ATOM     24  N   UNL     1      52.600   9.284  12.563  0.00  0.00    +0.000 NA
ATOM     25  C   UNL     1      53.124   8.558  13.494  0.00  0.00    +0.000 A 
ATOM     26  N   UNL     1      52.408   7.814  14.396  0.00  0.00    +0.000 N 
ATOM     27  C   UNL     1      51.038   7.813  14.439  0.00  0.00    +0.000 A 
ATOM     28  O   UNL     1      50.425   7.301  15.371  0.00  0.00    +0.000 OA
ATOM     29  C   UNL     1      50.398   8.532  13.347  0.00  0.00    +0.000 A 
ATOM     30  H   UNL     1      52.878   7.319  15.141  0.00  0.00    +0.000 HD
ENDBRANCH  17  20
ENDBRANCH   1  16
BRANCH   1  31
ATOM     31  C   UNL     1      47.178   4.675  15.052  0.00  0.00    +0.000 C 
BRANCH  31  32
ATOM     32  N   UNL     1      48.326   5.066  15.881  0.00  0.00    +0.000 NA
ATOM     33  H   UNL     1      49.076   4.389  15.753  0.00  0.00    +0.000 HD
ATOM     34  H   UNL     1      48.065   5.021  16.867  0.00  0.00    +0.000 HD
ENDBRANCH  31  32
ENDBRANCH   1  31
TORSDOF 8
ENDMDL
MODEL 4
REMARK VINA RESULT:    -7.664      1.899      2.468
REMARK INTER + INTRA:         -12.051
REMARK INTER:                 -10.566
REMARK INTRA:                  -1.485
REMARK UNBOUND:                -1.026
REMARK  Name = 
REMARK  8 active torsions:
REMARK  status: ('A' for Active; 'I' for Inactive)
REMARK    1  A    between atoms: N_1  and  C_2
REMARK    2  A    between atoms: C_2  and  C_3
REMARK    3  A    between atoms: C_3  and  N_4
REMARK    4  A    between atoms: C_3  and  C_17
REMARK    5  A    between atoms: C_5  and  C_7
REMARK    6  A    between atoms: C_20  and  O_21
REMARK    7  A    between atoms: O_21  and  C_22
REMARK    8  A    between atoms: C_22  and  C_23
REMARK                            x       y       z     vdW  Elec       q    Type
REMARK                         _______ _______ _______ _____ _____    ______ ____
ROOT
ATOM      1  C   UNL     1      48.546   6.925  13.471  0.00  0.00    +0.000 C 
ENDROOT
BRANCH   1   2
ATOM      2  C   UNL     1      47.320   6.187  12.950  0.00  0.00    +0.000 A 
ATOM      3  C   UNL     1      46.545   6.737  11.921  0.00  0.00    +0.000 A 
ATOM      4  C   UNL     1      45.469   6.023  11.383  0.00  0.00    +0.000 A 
ATOM      5  C   UNL     1      45.166   4.747  11.856  0.00  0.00    +0.000 A 
ATOM      6  C   UNL     1      45.891   4.219  12.924  0.00  0.00    +0.000 A 
ATOM      7  C   UNL     1      46.967   4.926  13.456  0.00  0.00    +0.000 A 
BRANCH   5   8
ATOM      8  O   UNL     1      44.157   4.092  11.205  0.00  0.00    +0.000 OA
BRANCH   8   9
ATOM      9  C   UNL     1      44.026   4.431   9.819  0.00  0.00    +0.000 C 
BRANCH   9  10
ATOM     10  C   UNL     1      44.960   3.622   8.947  0.00  0.00    +0.000 A 
ATOM     11  C   UNL     1      45.107   2.250   9.125  0.00  0.00    +0.000 A 
ATOM     12  C   UNL     1      46.000   1.562   8.313  0.00  0.00    +0.000 A 
ATOM     13  C   UNL     1      46.724   2.253   7.351  0.00  0.00    +0.000 A 
ATOM     14  C   UNL     1      46.530   3.619   7.247  0.00  0.00    +0.000 A 
ATOM     15  N   UNL     1      45.669   4.315   8.021  0.00  0.00    +0.000 NA
ENDBRANCH   9  10
ENDBRANCH   8   9
ENDBRANCH   5   8
ENDBRANCH   1   2
BRANCH   1  16
ATOM     16  N   UNL     1      48.270   7.370  14.832  0.00  0.00    +0.000 N 
ATOM     17  C   UNL     1      48.990   6.941  15.912  0.00  0.00    +0.000 C 
ATOM     18  O   UNL     1      49.977   6.220  15.793  0.00  0.00    +0.000 OA
ATOM     19  H   UNL     1      47.417   7.901  14.979  0.00  0.00    +0.000 HD
BRANCH  17  20
ATOM     20  C   UNL     1      48.539   7.404  17.231  0.00  0.00    +0.000 A 
ATOM     21  C   UNL     1      48.341   6.481  18.250  0.00  0.00    +0.000 A 
ATOM     22  S   UNL     1      47.741   7.170  19.690  0.00  0.00    +0.000 S 
ATOM     23  C   UNL     1      47.690   8.720  18.992  0.00  0.00    +0.000 A 
ATOM     24  N   UNL     1      47.193   9.781  19.680  0.00  0.00    +0.000 NA
ATOM     25  C   UNL     1      47.173  10.888  19.015  0.00  0.00    +0.000 A 
ATOM     26  N   UNL     1      47.640  11.035  17.735  0.00  0.00    +0.000 N 
ATOM     27  C   UNL     1      48.245  10.018  17.041  0.00  0.00    +0.000 A 
ATOM     28  O   UNL     1      48.829  10.221  15.981  0.00  0.00    +0.000 OA
ATOM     29  C   UNL     1      48.200   8.724  17.706  0.00  0.00    +0.000 A 
ATOM     30  H   UNL     1      47.654  11.944  17.295  0.00  0.00    +0.000 HD
ENDBRANCH  17  20
ENDBRANCH   1  16
BRANCH   1  31
ATOM     31  C   UNL     1      48.956   8.112  12.549  0.00  0.00    +0.000 C 
BRANCH  31  32
ATOM     32  N   UNL     1      48.650   9.439  13.102  0.00  0.00    +0.000 NA
ATOM     33  H   UNL     1      49.521   9.937  13.275  0.00  0.00    +0.000 HD
ATOM     34  H   UNL     1      48.196   9.332  14.012  0.00  0.00    +0.000 HD
ENDBRANCH  31  32
ENDBRANCH   1  31
TORSDOF 8
ENDMDL
MODEL 5
REMARK VINA RESULT:    -7.296      1.747      2.561
REMARK INTER + INTRA:         -11.521
REMARK INTER:                 -10.283
REMARK INTRA:                  -1.237
REMARK UNBOUND:                -1.026
REMARK  Name = 
REMARK  8 active torsions:
REMARK  status: ('A' for Active; 'I' for Inactive)
REMARK    1  A    between atoms: N_1  and  C_2
REMARK    2  A    between atoms: C_2  and  C_3
REMARK    3  A    between atoms: C_3  and  N_4
REMARK    4  A    between atoms: C_3  and  C_17
REMARK    5  A    between atoms: C_5  and  C_7
REMARK    6  A    between atoms: C_20  and  O_21
REMARK    7  A    between atoms: O_21  and  C_22
REMARK    8  A    between atoms: C_22  and  C_23
REMARK                            x       y       z     vdW  Elec       q    Type
REMARK                         _______ _______ _______ _____ _____    ______ ____
ROOT
ATOM      1  C   UNL     1      48.327   7.933  13.429  0.00  0.00    +0.000 C 
ENDROOT
BRANCH   1   2
ATOM      2  C   UNL     1      47.226   7.075  12.820  0.00  0.00    +0.000 A 
ATOM      3  C   UNL     1      47.159   5.704  13.101  0.00  0.00    +0.000 A 
ATOM      4  C   UNL     1      46.101   4.931  12.613  0.00  0.00    +0.000 A 
ATOM      5  C   UNL     1      45.093   5.520  11.851  0.00  0.00    +0.000 A 
ATOM      6  C   UNL     1      45.186   6.870  11.513  0.00  0.00    +0.000 A 
ATOM      7  C   UNL     1      46.235   7.643  12.004  0.00  0.00    +0.000 A 
BRANCH   5   8
ATOM      8  O   UNL     1      44.054   4.703  11.497  0.00  0.00    +0.000 OA
BRANCH   8   9
ATOM      9  C   UNL     1      43.706   4.752  10.108  0.00  0.00    +0.000 C 
BRANCH   9  10
ATOM     10  C   UNL     1      44.614   3.885   9.265  0.00  0.00    +0.000 A 
ATOM     11  C   UNL     1      44.697   2.511   9.472  0.00  0.00    +0.000 A 
ATOM     12  C   UNL     1      45.570   1.768   8.686  0.00  0.00    +0.000 A 
ATOM     13  C   UNL     1      46.336   2.407   7.720  0.00  0.00    +0.000 A 
ATOM     14  C   UNL     1      46.204   3.778   7.587  0.00  0.00    +0.000 A 
ATOM     15  N   UNL     1      45.365   4.526   8.335  0.00  0.00    +0.000 NA
ENDBRANCH   9  10
ENDBRANCH   8   9
ENDBRANCH   5   8
ENDBRANCH   1   2
BRANCH   1  16
ATOM     16  N   UNL     1      48.254   7.812  14.881  0.00  0.00    +0.000 N 
ATOM     17  C   UNL     1      49.259   7.266  15.630  0.00  0.00    +0.000 C 
ATOM     18  O   UNL     1      50.329   6.924  15.135  0.00  0.00    +0.000 OA
ATOM     19  H   UNL     1      47.357   8.010  15.315  0.00  0.00    +0.000 HD
BRANCH  17  20
ATOM     20  C   UNL     1      49.007   7.127  17.070  0.00  0.00    +0.000 A 
ATOM     21  C   UNL     1      48.986   8.258  17.876  0.00  0.00    +0.000 A 
ATOM     22  S   UNL     1      48.762   7.917  19.531  0.00  0.00    +0.000 S 
ATOM     23  C   UNL     1      48.721   6.242  19.236  0.00  0.00    +0.000 A 
ATOM     24  N   UNL     1      48.624   5.354  20.259  0.00  0.00    +0.000 NA
ATOM     25  C   UNL     1      48.648   4.114  19.896  0.00  0.00    +0.000 A 
ATOM     26  N   UNL     1      48.724   3.686  18.596  0.00  0.00    +0.000 N 
ATOM     27  C   UNL     1      48.718   4.545  17.527  0.00  0.00    +0.000 A 
ATOM     28  O   UNL     1      48.587   4.139  16.376  0.00  0.00    +0.000 OA
ATOM     29  C   UNL     1      48.796   5.954  17.885  0.00  0.00    +0.000 A 
ATOM     30  H   UNL     1      48.674   2.701  18.376  0.00  0.00    +0.000 HD
ENDBRANCH  17  20
ENDBRANCH   1  16
BRANCH   1  31
ATOM     31  C   UNL     1      48.237   9.419  12.970  0.00  0.00    +0.000 C 
BRANCH  31  32
ATOM     32  N   UNL     1      48.185  10.389  14.074  0.00  0.00    +0.000 NA
ATOM     33  H   UNL     1      49.110  10.794  14.206  0.00  0.00    +0.000 HD
ATOM     34  H   UNL     1      47.958   9.903  14.943  0.00  0.00    +0.000 HD
ENDBRANCH  31  32
ENDBRANCH   1  31
TORSDOF 8
ENDMDL
MODEL 6
REMARK VINA RESULT:    -7.054      3.488      4.976
REMARK INTER + INTRA:         -11.172
REMARK INTER:                  -9.946
REMARK INTRA:                  -1.226
REMARK UNBOUND:                -1.026
REMARK  Name = 
REMARK  8 active torsions:
REMARK  status: ('A' for Active; 'I' for Inactive)
REMARK    1  A    between atoms: N_1  and  C_2
REMARK    2  A    between atoms: C_2  and  C_3
REMARK    3  A    between atoms: C_3  and  N_4
REMARK    4  A    between atoms: C_3  and  C_17
REMARK    5  A    between atoms: C_5  and  C_7
REMARK    6  A    between atoms: C_20  and  O_21
REMARK    7  A    between atoms: O_21  and  C_22
REMARK    8  A    between atoms: C_22  and  C_23
REMARK                            x       y       z     vdW  Elec       q    Type
REMARK                         _______ _______ _______ _____ _____    ______ ____
ROOT
ATOM      1  C   UNL     1      49.397   6.663  17.270  0.00  0.00    +0.000 C 
ENDROOT
BRANCH   1   2
ATOM      2  C   UNL     1      48.542   5.919  16.252  0.00  0.00    +0.000 A 
ATOM      3  C   UNL     1      47.857   4.753  16.618  0.00  0.00    +0.000 A 
ATOM      4  C   UNL     1      47.004   4.117  15.710  0.00  0.00    +0.000 A 
ATOM      5  C   UNL     1      46.816   4.645  14.434  0.00  0.00    +0.000 A 
ATOM      6  C   UNL     1      47.543   5.768  14.040  0.00  0.00    +0.000 A 
ATOM      7  C   UNL     1      48.387   6.408  14.945  0.00  0.00    +0.000 A 
BRANCH   5   8
ATOM      8  O   UNL     1      45.894   4.006  13.652  0.00  0.00    +0.000 OA
BRANCH   8   9
ATOM      9  C   UNL     1      45.053   4.880  12.890  0.00  0.00    +0.000 C 
BRANCH   9  10
ATOM     10  C   UNL     1      45.081   4.551  11.414  0.00  0.00    +0.000 A 
ATOM     11  C   UNL     1      45.632   5.434  10.489  0.00  0.00    +0.000 A 
ATOM     12  C   UNL     1      45.605   5.092   9.142  0.00  0.00    +0.000 A 
ATOM     13  C   UNL     1      45.031   3.890   8.751  0.00  0.00    +0.000 A 
ATOM     14  C   UNL     1      44.493   3.076   9.731  0.00  0.00    +0.000 A 
ATOM     15  N   UNL     1      44.504   3.380  11.047  0.00  0.00    +0.000 NA
ENDBRANCH   9  10
ENDBRANCH   8   9
ENDBRANCH   5   8
ENDBRANCH   1   2
BRANCH   1  16
ATOM     16  N   UNL     1      50.350   5.721  17.845  0.00  0.00    +0.000 N 
ATOM     17  C   UNL     1      51.602   5.528  17.333  0.00  0.00    +0.000 C 
ATOM     18  O   UNL     1      52.039   6.204  16.406  0.00  0.00    +0.000 OA
ATOM     19  H   UNL     1      49.999   5.090  18.560  0.00  0.00    +0.000 HD
BRANCH  17  20
ATOM     20  C   UNL     1      52.418   4.481  17.962  0.00  0.00    +0.000 A 
ATOM     21  C   UNL     1      53.537   4.836  18.704  0.00  0.00    +0.000 A 
ATOM     22  S   UNL     1      54.418   3.502  19.297  0.00  0.00    +0.000 S 
ATOM     23  C   UNL     1      53.356   2.401  18.553  0.00  0.00    +0.000 A 
ATOM     24  N   UNL     1      53.584   1.063  18.608  0.00  0.00    +0.000 NA
ATOM     25  C   UNL     1      52.725   0.346  17.962  0.00  0.00    +0.000 A 
ATOM     26  N   UNL     1      51.636   0.848  17.298  0.00  0.00    +0.000 N 
ATOM     27  C   UNL     1      51.309   2.179  17.305  0.00  0.00    +0.000 A 
ATOM     28  O   UNL     1      50.231   2.579  16.874  0.00  0.00    +0.000 OA
ATOM     29  C   UNL     1      52.300   3.042  17.930  0.00  0.00    +0.000 A 
ATOM     30  H   UNL     1      50.966   0.226  16.868  0.00  0.00    +0.000 HD
ENDBRANCH  17  20
ENDBRANCH   1  16
BRANCH   1  31
ATOM     31  C   UNL     1      48.537   7.355  18.369  0.00  0.00    +0.000 C 
BRANCH  31  32
ATOM     32  N   UNL     1      47.612   8.376  17.857  0.00  0.00    +0.000 NA
ATOM     33  H   UNL     1      47.504   8.255  16.851  0.00  0.00    +0.000 HD
ATOM     34  H   UNL     1      48.020   9.303  17.991  0.00  0.00    +0.000 HD
ENDBRANCH  31  32
ENDBRANCH   1  31
TORSDOF 8
ENDMDL
MODEL 7
REMARK VINA RESULT:    -6.955      3.261      5.384
REMARK INTER + INTRA:         -11.030
REMARK INTER:                  -9.797
REMARK INTRA:                  -1.233
REMARK UNBOUND:                -1.026
REMARK  Name = 
REMARK  8 active torsions:
REMARK  status: ('A' for Active; 'I' for Inactive)
REMARK    1  A    between atoms: N_1  and  C_2
REMARK    2  A    between atoms: C_2  and  C_3
REMARK    3  A    between atoms: C_3  and  N_4
REMARK    4  A    between atoms: C_3  and  C_17
REMARK    5  A    between atoms: C_5  and  C_7
REMARK    6  A    between atoms: C_20  and  O_21
REMARK    7  A    between atoms: O_21  and  C_22
REMARK    8  A    between atoms: C_22  and  C_23
REMARK                            x       y       z     vdW  Elec       q    Type
REMARK                         _______ _______ _______ _____ _____    ______ ____
ROOT
ATOM      1  C   UNL     1      47.267   6.184  13.966  0.00  0.00    +0.000 C 
ENDROOT
BRANCH   1   2
ATOM      2  C   UNL     1      46.373   5.560  12.902  0.00  0.00    +0.000 A 
ATOM      3  C   UNL     1      46.195   6.193  11.666  0.00  0.00    +0.000 A 
ATOM      4  C   UNL     1      45.445   5.581  10.656  0.00  0.00    +0.000 A 
ATOM      5  C   UNL     1      44.876   4.326  10.867  0.00  0.00    +0.000 A 
ATOM      6  C   UNL     1      44.993   3.718  12.117  0.00  0.00    +0.000 A 
ATOM      7  C   UNL     1      45.747   4.323  13.120  0.00  0.00    +0.000 A 
BRANCH   5   8
ATOM      8  O   UNL     1      44.239   3.770   9.792  0.00  0.00    +0.000 OA
BRANCH   8   9
ATOM      9  C   UNL     1      44.650   2.431   9.486  0.00  0.00    +0.000 C 
BRANCH   9  10
ATOM     10  C   UNL     1      45.617   2.386   8.324  0.00  0.00    +0.000 A 
ATOM     11  C   UNL     1      46.412   1.268   8.090  0.00  0.00    +0.000 A 
ATOM     12  C   UNL     1      47.303   1.293   7.024  0.00  0.00    +0.000 A 
ATOM     13  C   UNL     1      47.383   2.425   6.223  0.00  0.00    +0.000 A 
ATOM     14  C   UNL     1      46.568   3.499   6.532  0.00  0.00    +0.000 A 
ATOM     15  N   UNL     1      45.693   3.505   7.560  0.00  0.00    +0.000 NA
ENDBRANCH   9  10
ENDBRANCH   8   9
ENDBRANCH   5   8
ENDBRANCH   1   2
BRANCH   1  16
ATOM     16  N   UNL     1      48.411   6.800  13.302  0.00  0.00    +0.000 N 
ATOM     17  C   UNL     1      48.952   7.988  13.707  0.00  0.00    +0.000 C 
ATOM     18  O   UNL     1      48.563   8.571  14.715  0.00  0.00    +0.000 OA
ATOM     19  H   UNL     1      48.707   6.390  12.421  0.00  0.00    +0.000 HD
BRANCH  17  20
ATOM     20  C   UNL     1      50.042   8.530  12.886  0.00  0.00    +0.000 A 
ATOM     21  C   UNL     1      51.344   8.095  13.101  0.00  0.00    +0.000 A 
ATOM     22  S   UNL     1      52.499   8.880  12.123  0.00  0.00    +0.000 S 
ATOM     23  C   UNL     1      51.306   9.855  11.402  0.00  0.00    +0.000 A 
ATOM     24  N   UNL     1      51.639  10.820  10.506  0.00  0.00    +0.000 NA
ATOM     25  C   UNL     1      50.640  11.515  10.071  0.00  0.00    +0.000 A 
ATOM     26  N   UNL     1      49.333  11.305  10.427  0.00  0.00    +0.000 N 
ATOM     27  C   UNL     1      48.941  10.277  11.246  0.00  0.00    +0.000 A 
ATOM     28  O   UNL     1      47.756   9.988  11.392  0.00  0.00    +0.000 OA
ATOM     29  C   UNL     1      50.036   9.529  11.844  0.00  0.00    +0.000 A 
ATOM     30  H   UNL     1      48.593  11.843  10.001  0.00  0.00    +0.000 HD
ENDBRANCH  17  20
ENDBRANCH   1  16
BRANCH   1  31
ATOM     31  C   UNL     1      47.714   5.150  15.041  0.00  0.00    +0.000 C 
BRANCH  31  32
ATOM     32  N   UNL     1      48.014   5.736  16.355  0.00  0.00    +0.000 NA
ATOM     33  H   UNL     1      47.235   5.560  16.986  0.00  0.00    +0.000 HD
ATOM     34  H   UNL     1      48.086   6.752  16.266  0.00  0.00    +0.000 HD
ENDBRANCH  31  32
ENDBRANCH   1  31
TORSDOF 8
ENDMDL
MODEL 8
REMARK VINA RESULT:    -6.950      2.532      3.734
REMARK INTER + INTRA:         -11.024
REMARK INTER:                  -9.628
REMARK INTRA:                  -1.396
REMARK UNBOUND:                -1.026
REMARK  Name = 
REMARK  8 active torsions:
REMARK  status: ('A' for Active; 'I' for Inactive)
REMARK    1  A    between atoms: N_1  and  C_2
REMARK    2  A    between atoms: C_2  and  C_3
REMARK    3  A    between atoms: C_3  and  N_4
REMARK    4  A    between atoms: C_3  and  C_17
REMARK    5  A    between atoms: C_5  and  C_7
REMARK    6  A    between atoms: C_20  and  O_21
REMARK    7  A    between atoms: O_21  and  C_22
REMARK    8  A    between atoms: C_22  and  C_23
REMARK                            x       y       z     vdW  Elec       q    Type
REMARK                         _______ _______ _______ _____ _____    ______ ____
ROOT
ATOM      1  C   UNL     1      47.274   4.765  15.571  0.00  0.00    +0.000 C 
ENDROOT
BRANCH   1   2
ATOM      2  C   UNL     1      46.784   4.961  14.142  0.00  0.00    +0.000 A 
ATOM      3  C   UNL     1      45.754   4.161  13.630  0.00  0.00    +0.000 A 
ATOM      4  C   UNL     1      45.244   4.396  12.349  0.00  0.00    +0.000 A 
ATOM      5  C   UNL     1      45.747   5.438  11.572  0.00  0.00    +0.000 A 
ATOM      6  C   UNL     1      46.815   6.198  12.048  0.00  0.00    +0.000 A 
ATOM      7  C   UNL     1      47.320   5.970  13.327  0.00  0.00    +0.000 A 
BRANCH   5   8
ATOM      8  O   UNL     1      45.122   5.646  10.373  0.00  0.00    +0.000 OA
BRANCH   8   9
ATOM      9  C   UNL     1      44.398   4.514   9.877  0.00  0.00    +0.000 C 
BRANCH   9  10
ATOM     10  C   UNL     1      45.230   3.679   8.930  0.00  0.00    +0.000 A 
ATOM     11  C   UNL     1      45.321   2.297   9.077  0.00  0.00    +0.000 A 
ATOM     12  C   UNL     1      46.124   1.583   8.195  0.00  0.00    +0.000 A 
ATOM     13  C   UNL     1      46.814   2.258   7.197  0.00  0.00    +0.000 A 
ATOM     14  C   UNL     1      46.681   3.633   7.128  0.00  0.00    +0.000 A 
ATOM     15  N   UNL     1      45.909   4.354   7.970  0.00  0.00    +0.000 NA
ENDBRANCH   9  10
ENDBRANCH   8   9
ENDBRANCH   5   8
ENDBRANCH   1   2
BRANCH   1  16
ATOM     16  N   UNL     1      48.272   5.789  15.858  0.00  0.00    +0.000 N 
ATOM     17  C   UNL     1      48.468   6.302  17.110  0.00  0.00    +0.000 C 
ATOM     18  O   UNL     1      47.876   5.865  18.094  0.00  0.00    +0.000 OA
ATOM     19  H   UNL     1      48.723   6.229  15.061  0.00  0.00    +0.000 HD
BRANCH  17  20
ATOM     20  C   UNL     1      49.444   7.393  17.231  0.00  0.00    +0.000 A 
ATOM     21  C   UNL     1      50.565   7.224  18.033  0.00  0.00    +0.000 A 
ATOM     22  S   UNL     1      51.554   8.610  18.129  0.00  0.00    +0.000 S 
ATOM     23  C   UNL     1      50.500   9.498  17.132  0.00  0.00    +0.000 A 
ATOM     24  N   UNL     1      50.727  10.810  16.867  0.00  0.00    +0.000 NA
ATOM     25  C   UNL     1      49.824  11.373  16.133  0.00  0.00    +0.000 A 
ATOM     26  N   UNL     1      48.734  10.727  15.610  0.00  0.00    +0.000 N 
ATOM     27  C   UNL     1      48.522   9.381  15.764  0.00  0.00    +0.000 A 
ATOM     28  O   UNL     1      47.654   8.790  15.127  0.00  0.00    +0.000 OA
ATOM     29  C   UNL     1      49.453   8.721  16.667  0.00  0.00    +0.000 A 
ATOM     30  H   UNL     1      48.100  11.210  14.990  0.00  0.00    +0.000 HD
ENDBRANCH  17  20
ENDBRANCH   1  16
BRANCH   1  31
ATOM     31  C   UNL     1      47.836   3.332  15.810  0.00  0.00    +0.000 C 
BRANCH  31  32
ATOM     32  N   UNL     1      47.744   2.872  17.203  0.00  0.00    +0.000 NA
ATOM     33  H   UNL     1      48.508   3.279  17.740  0.00  0.00    +0.000 HD
ATOM     34  H   UNL     1      47.877   1.860  17.237  0.00  0.00    +0.000 HD
ENDBRANCH  31  32
ENDBRANCH   1  31
TORSDOF 8
ENDMDL
MODEL 9
REMARK VINA RESULT:    -6.929      3.673      8.361
REMARK INTER + INTRA:         -10.994
REMARK INTER:                  -9.772
REMARK INTRA:                  -1.221
REMARK UNBOUND:                -1.026
REMARK  Name = 
REMARK  8 active torsions:
REMARK  status: ('A' for Active; 'I' for Inactive)
REMARK    1  A    between atoms: N_1  and  C_2
REMARK    2  A    between atoms: C_2  and  C_3
REMARK    3  A    between atoms: C_3  and  N_4
REMARK    4  A    between atoms: C_3  and  C_17
REMARK    5  A    between atoms: C_5  and  C_7
REMARK    6  A    between atoms: C_20  and  O_21
REMARK    7  A    between atoms: O_21  and  C_22
REMARK    8  A    between atoms: C_22  and  C_23
REMARK                            x       y       z     vdW  Elec       q    Type
REMARK                         _______ _______ _______ _____ _____    ______ ____
ROOT
ATOM      1  C   UNL     1      48.226   7.448  13.580  0.00  0.00    +0.000 C 
ENDROOT
BRANCH   1   2
ATOM      2  C   UNL     1      48.627   6.710  14.851  0.00  0.00    +0.000 A 
ATOM      3  C   UNL     1      47.844   5.655  15.334  0.00  0.00    +0.000 A 
ATOM      4  C   UNL     1      48.254   4.920  16.452  0.00  0.00    +0.000 A 
ATOM      5  C   UNL     1      49.457   5.224  17.089  0.00  0.00    +0.000 A 
ATOM      6  C   UNL     1      50.210   6.314  16.654  0.00  0.00    +0.000 A 
ATOM      7  C   UNL     1      49.806   7.042  15.537  0.00  0.00    +0.000 A 
BRANCH   5   8
ATOM      8  O   UNL     1      49.817   4.393  18.114  0.00  0.00    +0.000 OA
BRANCH   8   9
ATOM      9  C   UNL     1      49.870   3.005  17.762  0.00  0.00    +0.000 C 
BRANCH   9  10
ATOM     10  C   UNL     1      51.288   2.482  17.725  0.00  0.00    +0.000 A 
ATOM     11  C   UNL     1      52.372   3.319  17.974  0.00  0.00    +0.000 A 
ATOM     12  C   UNL     1      53.655   2.791  17.899  0.00  0.00    +0.000 A 
ATOM     13  C   UNL     1      53.828   1.452  17.578  0.00  0.00    +0.000 A 
ATOM     14  C   UNL     1      52.699   0.691  17.332  0.00  0.00    +0.000 A 
ATOM     15  N   UNL     1      51.440   1.175  17.397  0.00  0.00    +0.000 NA
ENDBRANCH   9  10
ENDBRANCH   8   9
ENDBRANCH   5   8
ENDBRANCH   1   2
BRANCH   1  16
ATOM     16  N   UNL     1      47.575   6.500  12.684  0.00  0.00    +0.000 N 
ATOM     17  C   UNL     1      46.485   6.825  11.925  0.00  0.00    +0.000 C 
ATOM     18  O   UNL     1      46.039   7.969  11.882  0.00  0.00    +0.000 OA
ATOM     19  H   UNL     1      47.865   5.529  12.752  0.00  0.00    +0.000 HD
BRANCH  17  20
ATOM     20  C   UNL     1      45.881   5.742  11.139  0.00  0.00    +0.000 A 
ATOM     21  C   UNL     1      46.010   5.742   9.756  0.00  0.00    +0.000 A 
ATOM     22  S   UNL     1      45.184   4.463   8.990  0.00  0.00    +0.000 S 
ATOM     23  C   UNL     1      44.594   3.882  10.476  0.00  0.00    +0.000 A 
ATOM     24  N   UNL     1      43.742   2.825  10.525  0.00  0.00    +0.000 NA
ATOM     25  C   UNL     1      43.338   2.517  11.713  0.00  0.00    +0.000 A 
ATOM     26  N   UNL     1      43.740   3.152  12.860  0.00  0.00    +0.000 N 
ATOM     27  C   UNL     1      44.677   4.153  12.867  0.00  0.00    +0.000 A 
ATOM     28  O   UNL     1      45.166   4.569  13.914  0.00  0.00    +0.000 OA
ATOM     29  C   UNL     1      45.087   4.607  11.546  0.00  0.00    +0.000 A 
ATOM     30  H   UNL     1      43.435   2.820  13.764  0.00  0.00    +0.000 HD
ENDBRANCH  17  20
ENDBRANCH   1  16
BRANCH   1  31
ATOM     31  C   UNL     1      49.439   8.146  12.896  0.00  0.00    +0.000 C 
BRANCH  31  32
ATOM     32  N   UNL     1      50.171   7.293  11.949  0.00  0.00    +0.000 NA
ATOM     33  H   UNL     1      50.312   6.375  12.367  0.00  0.00    +0.000 HD
ATOM     34  H   UNL     1      51.103   7.682  11.791  0.00  0.00    +0.000 HD
ENDBRANCH  31  32
ENDBRANCH   1  31
TORSDOF 8
ENDMDL
