MODEL 1
REMARK VINA RESULT:    -6.704      0.000      0.000
REMARK INTER + INTRA:         -10.375
REMARK INTER:                  -9.251
REMARK INTRA:                  -1.124
REMARK UNBOUND:                -1.124
REMARK  Name = 
REMARK  7 active torsions:
REMARK  status: ('A' for Active; 'I' for Inactive)
REMARK    1  A    between atoms: N_1  and  C_2
REMARK    2  A    between atoms: C_2  and  C_3
REMARK    3  A    between atoms: C_6  and  C_7
REMARK    4  A    between atoms: C_7  and  C_8
REMARK    5  A    between atoms: C_11  and  C_12
REMARK    6  A    between atoms: C_12  and  N_13
REMARK    7  A    between atoms: C_14  and  C_16
REMARK                            x       y       z     vdW  Elec       q    Type
REMARK                         _______ _______ _______ _____ _____    ______ ____
ROOT
ATOM      1  C   UNL     1      49.382   8.006  15.640  0.00  0.00    +0.000 A 
ATOM      2  C   UNL     1      48.371   8.913  15.338  0.00  0.00    +0.000 A 
ATOM      3  C   UNL     1      47.714   8.816  14.111  0.00  0.00    +0.000 A 
ATOM      4  C   UNL     1      48.133   7.873  13.171  0.00  0.00    +0.000 A 
ATOM      5  C   UNL     1      49.187   7.046  13.539  0.00  0.00    +0.000 A 
ATOM      6  N   UNL     1      49.807   7.082  14.746  0.00  0.00    +0.000 NA
ENDROOT
BRANCH   1   7
ATOM      7  C   UNL     1      49.976   7.968  17.034  0.00  0.00    +0.000 C 
BRANCH   7  11
ATOM      8  C   UNL     1      49.999   5.018  19.616  0.00  0.00    +0.000 C 
ATOM      9  C   UNL     1      49.482   4.925  18.171  0.00  0.00    +0.000 C 
ATOM     10  C   UNL     1      48.503   6.036  17.791  0.00  0.00    +0.000 C 
ATOM     11  C   UNL     1      49.005   7.456  18.118  0.00  0.00    +0.000 C 
ATOM     12  C   UNL     1      49.623   7.541  19.530  0.00  0.00    +0.000 C 
ATOM     13  C   UNL     1      50.597   6.411  19.853  0.00  0.00    +0.000 C 
BRANCH   8  14
ATOM     14  C   UNL     1      48.905   4.617  20.630  0.00  0.00    +0.000 C 
BRANCH  14  15
ATOM     15  N   UNL     1      48.344   3.293  20.361  0.00  0.00    +0.000 NA
ATOM     16  H   UNL     1      47.777   2.994  21.154  0.00  0.00    +0.000 HD
ATOM     17  H   UNL     1      49.106   2.615  20.304  0.00  0.00    +0.000 HD
ENDBRANCH  14  15
ENDBRANCH   8  14
ENDBRANCH   7  11
ENDBRANCH   1   7
BRANCH   4  18
ATOM     18  C   UNL     1      47.481   7.764  11.821  0.00  0.00    +0.000 C 
BRANCH  18  19
ATOM     19  N   UNL     1      46.781   6.521  11.624  0.00  0.00    +0.000 N 
ATOM     20  C   UNL     1      45.408   6.464  11.634  0.00  0.00    +0.000 C 
ATOM     21  O   UNL     1      44.706   7.464  11.784  0.00  0.00    +0.000 OA
ATOM     22  H   UNL     1      47.305   5.659  11.753  0.00  0.00    +0.000 HD
BRANCH  20  23
ATOM     23  C   UNL     1      44.823   5.139  11.381  0.00  0.00    +0.000 A 
ATOM     24  C   UNL     1      44.045   4.531  12.357  0.00  0.00    +0.000 A 
ATOM     25  S   UNL     1      43.430   3.009  11.892  0.00  0.00    +0.000 S 
ATOM     26  C   UNL     1      44.216   3.089  10.385  0.00  0.00    +0.000 A 
ATOM     27  N   UNL     1      44.134   2.059   9.501  0.00  0.00    +0.000 NA
ATOM     28  C   UNL     1      44.811   2.236   8.408  0.00  0.00    +0.000 A 
ATOM     29  N   UNL     1      45.546   3.356   8.125  0.00  0.00    +0.000 N 
ATOM     30  C   UNL     1      45.597   4.449   8.959  0.00  0.00    +0.000 A 
ATOM     31  O   UNL     1      46.167   5.483   8.623  0.00  0.00    +0.000 OA
ATOM     32  C   UNL     1      44.902   4.278  10.221  0.00  0.00    +0.000 A 
ATOM     33  H   UNL     1      46.027   3.442   7.242  0.00  0.00    +0.000 HD
ENDBRANCH  20  23
ENDBRANCH  18  19
ENDBRANCH   4  18
TORSDOF 7
ENDMDL
MODEL 2
REMARK VINA RESULT:    -6.557      3.885      8.547
REMARK INTER + INTRA:         -10.172
REMARK INTER:                  -9.210
REMARK INTRA:                  -0.962
REMARK UNBOUND:                -1.124
REMARK  Name = 
REMARK  7 active torsions:
REMARK  status: ('A' for Active; 'I' for Inactive)
REMARK    1  A    between atoms: N_1  and  C_2
REMARK    2  A    between atoms: C_2  and  C_3
REMARK    3  A    between atoms: C_6  and  C_7
REMARK    4  A    between atoms: C_7  and  C_8
REMARK    5  A    between atoms: C_11  and  C_12
REMARK    6  A    between atoms: C_12  and  N_13
REMARK    7  A    between atoms: C_14  and  C_16
REMARK                            x       y       z     vdW  Elec       q    Type
REMARK                         _______ _______ _______ _____ _____    ______ ____
ROOT
ATOM      1  C   UNL     1      47.694   7.226  13.382  0.00  0.00    +0.000 A 
ATOM      2  C   UNL     1      47.513   8.450  14.017  0.00  0.00    +0.000 A 
ATOM      3  C   UNL     1      48.276   8.751  15.146  0.00  0.00    +0.000 A 
ATOM      4  C   UNL     1      49.144   7.793  15.673  0.00  0.00    +0.000 A 
ATOM      5  C   UNL     1      49.219   6.578  15.003  0.00  0.00    +0.000 A 
ATOM      6  N   UNL     1      48.530   6.280  13.872  0.00  0.00    +0.000 NA
ENDROOT
BRANCH   1   7
ATOM      7  C   UNL     1      47.022   6.955  12.050  0.00  0.00    +0.000 C 
BRANCH   7  11
ATOM      8  C   UNL     1      44.909   3.703  11.473  0.00  0.00    +0.000 C 
ATOM      9  C   UNL     1      45.253   4.739  10.390  0.00  0.00    +0.000 C 
ATOM     10  C   UNL     1      44.948   6.181  10.794  0.00  0.00    +0.000 C 
ATOM     11  C   UNL     1      45.528   6.587  12.163  0.00  0.00    +0.000 C 
ATOM     12  C   UNL     1      45.283   5.508  13.239  0.00  0.00    +0.000 C 
ATOM     13  C   UNL     1      45.609   4.088  12.783  0.00  0.00    +0.000 C 
BRANCH   8  14
ATOM     14  C   UNL     1      43.382   3.511  11.601  0.00  0.00    +0.000 C 
BRANCH  14  15
ATOM     15  N   UNL     1      42.993   2.103  11.668  0.00  0.00    +0.000 NA
ATOM     16  H   UNL     1      42.059   2.024  12.068  0.00  0.00    +0.000 HD
ATOM     17  H   UNL     1      43.609   1.620  12.325  0.00  0.00    +0.000 HD
ENDBRANCH  14  15
ENDBRANCH   8  14
ENDBRANCH   7  11
ENDBRANCH   1   7
BRANCH   4  18
ATOM     18  C   UNL     1      49.952   8.060  16.912  0.00  0.00    +0.000 C 
BRANCH  18  19
ATOM     19  N   UNL     1      50.825   6.972  17.269  0.00  0.00    +0.000 N 
ATOM     20  C   UNL     1      50.476   6.064  18.240  0.00  0.00    +0.000 C 
ATOM     21  O   UNL     1      49.398   6.113  18.833  0.00  0.00    +0.000 OA
ATOM     22  H   UNL     1      51.803   7.043  16.998  0.00  0.00    +0.000 HD
BRANCH  20  23
ATOM     23  C   UNL     1      51.441   4.981  18.477  0.00  0.00    +0.000 A 
ATOM     24  C   UNL     1      52.593   5.232  19.209  0.00  0.00    +0.000 A 
ATOM     25  S   UNL     1      53.592   3.864  19.405  0.00  0.00    +0.000 S 
ATOM     26  C   UNL     1      52.541   2.894  18.483  0.00  0.00    +0.000 A 
ATOM     27  N   UNL     1      52.839   1.594  18.224  0.00  0.00    +0.000 NA
ATOM     28  C   UNL     1      51.970   0.982  17.479  0.00  0.00    +0.000 A 
ATOM     29  N   UNL     1      50.830   1.559  16.987  0.00  0.00    +0.000 N 
ATOM     30  C   UNL     1      50.455   2.849  17.283  0.00  0.00    +0.000 A 
ATOM     31  O   UNL     1      49.371   3.298  16.925  0.00  0.00    +0.000 OA
ATOM     32  C   UNL     1      51.422   3.594  18.068  0.00  0.00    +0.000 A 
ATOM     33  H   UNL     1      50.181   1.019  16.435  0.00  0.00    +0.000 HD
ENDBRANCH  20  23
ENDBRANCH  18  19
ENDBRANCH   4  18
TORSDOF 7
ENDMDL
MODEL 3
REMARK VINA RESULT:    -6.238      3.588      5.510
REMARK INTER + INTRA:          -9.732
REMARK INTER:                  -8.704
REMARK INTRA:                  -1.028
REMARK UNBOUND:                -1.124
REMARK  Name = 
REMARK  7 active torsions:
REMARK  status: ('A' for Active; 'I' for Inactive)
REMARK    1  A    between atoms: N_1  and  C_2
REMARK    2  A    between atoms: C_2  and  C_3
REMARK    3  A    between atoms: C_6  and  C_7
REMARK    4  A    between atoms: C_7  and  C_8
REMARK    5  A    between atoms: C_11  and  C_12
REMARK    6  A    between atoms: C_12  and  N_13
REMARK    7  A    between atoms: C_14  and  C_16
REMARK                            x       y       z     vdW  Elec       q    Type
REMARK                         _______ _______ _______ _____ _____    ______ ____
ROOT
ATOM      1  C   UNL     1      51.115   3.989  18.343  0.00  0.00    +0.000 A 
ATOM      2  C   UNL     1      50.857   2.877  17.548  0.00  0.00    +0.000 A 
ATOM      3  C   UNL     1      49.573   2.693  17.032  0.00  0.00    +0.000 A 
ATOM      4  C   UNL     1      48.549   3.573  17.387  0.00  0.00    +0.000 A 
ATOM      5  C   UNL     1      48.888   4.624  18.230  0.00  0.00    +0.000 A 
ATOM      6  N   UNL     1      50.139   4.857  18.702  0.00  0.00    +0.000 NA
ENDROOT
BRANCH   1   7
ATOM      7  C   UNL     1      52.538   4.314  18.754  0.00  0.00    +0.000 C 
BRANCH   7  11
ATOM      8  C   UNL     1      54.766   7.408  17.841  0.00  0.00    +0.000 C 
ATOM      9  C   UNL     1      53.278   7.253  17.486  0.00  0.00    +0.000 C 
ATOM     10  C   UNL     1      52.936   5.920  16.821  0.00  0.00    +0.000 C 
ATOM     11  C   UNL     1      53.463   4.686  17.577  0.00  0.00    +0.000 C 
ATOM     12  C   UNL     1      54.927   4.868  18.033  0.00  0.00    +0.000 C 
ATOM     13  C   UNL     1      55.211   6.213  18.695  0.00  0.00    +0.000 C 
BRANCH   8  14
ATOM     14  C   UNL     1      55.623   7.638  16.577  0.00  0.00    +0.000 C 
BRANCH  14  15
ATOM     15  N   UNL     1      55.089   8.692  15.716  0.00  0.00    +0.000 NA
ATOM     16  H   UNL     1      55.857   9.199  15.278  0.00  0.00    +0.000 HD
ATOM     17  H   UNL     1      54.609   9.382  16.296  0.00  0.00    +0.000 HD
ENDBRANCH  14  15
ENDBRANCH   8  14
ENDBRANCH   7  11
ENDBRANCH   1   7
BRANCH   4  18
ATOM     18  C   UNL     1      47.143   3.387  16.888  0.00  0.00    +0.000 C 
BRANCH  18  19
ATOM     19  N   UNL     1      46.745   4.375  15.919  0.00  0.00    +0.000 N 
ATOM     20  C   UNL     1      46.845   4.135  14.570  0.00  0.00    +0.000 C 
ATOM     21  O   UNL     1      47.250   3.064  14.118  0.00  0.00    +0.000 OA
ATOM     22  H   UNL     1      46.653   5.337  16.238  0.00  0.00    +0.000 HD
BRANCH  20  23
ATOM     23  C   UNL     1      46.367   5.213  13.693  0.00  0.00    +0.000 A 
ATOM     24  C   UNL     1      47.156   6.336  13.487  0.00  0.00    +0.000 A 
ATOM     25  S   UNL     1      46.460   7.479  12.430  0.00  0.00    +0.000 S 
ATOM     26  C   UNL     1      45.058   6.533  12.241  0.00  0.00    +0.000 A 
ATOM     27  N   UNL     1      44.021   6.969  11.478  0.00  0.00    +0.000 NA
ATOM     28  C   UNL     1      43.001   6.167  11.450  0.00  0.00    +0.000 A 
ATOM     29  N   UNL     1      42.941   4.968  12.109  0.00  0.00    +0.000 N 
ATOM     30  C   UNL     1      43.994   4.457  12.832  0.00  0.00    +0.000 A 
ATOM     31  O   UNL     1      43.952   3.328  13.311  0.00  0.00    +0.000 OA
ATOM     32  C   UNL     1      45.138   5.343  12.940  0.00  0.00    +0.000 A 
ATOM     33  H   UNL     1      42.128   4.378  12.023  0.00  0.00    +0.000 HD
ENDBRANCH  20  23
ENDBRANCH  18  19
ENDBRANCH   4  18
TORSDOF 7
ENDMDL
MODEL 4
REMARK VINA RESULT:    -6.107      3.123      8.026
REMARK INTER + INTRA:          -9.552
REMARK INTER:                  -8.416
REMARK INTRA:                  -1.136
REMARK UNBOUND:                -1.124
REMARK  Name = 
REMARK  7 active torsions:
REMARK  status: ('A' for Active; 'I' for Inactive)
REMARK    1  A    between atoms: N_1  and  C_2
REMARK    2  A    between atoms: C_2  and  C_3
REMARK    3  A    between atoms: C_6  and  C_7
REMARK    4  A    between atoms: C_7  and  C_8
REMARK    5  A    between atoms: C_11  and  C_12
REMARK    6  A    between atoms: C_12  and  N_13
REMARK    7  A    between atoms: C_14  and  C_16
REMARK                            x       y       z     vdW  Elec       q    Type
REMARK                         _______ _______ _______ _____ _____    ______ ____
ROOT
ATOM      1  C   UNL     1      46.279   7.645  11.881  0.00  0.00    +0.000 A 
ATOM      2  C   UNL     1      47.543   7.085  11.720  0.00  0.00    +0.000 A 
ATOM      3  C   UNL     1      48.549   7.404  12.633  0.00  0.00    +0.000 A 
ATOM      4  C   UNL     1      48.305   8.341  13.638  0.00  0.00    +0.000 A 
ATOM      5  C   UNL     1      47.029   8.890  13.687  0.00  0.00    +0.000 A 
ATOM      6  N   UNL     1      46.016   8.557  12.847  0.00  0.00    +0.000 NA
ENDROOT
BRANCH   1   7
ATOM      7  C   UNL     1      45.123   7.168  11.024  0.00  0.00    +0.000 C 
BRANCH   7  11
ATOM      8  C   UNL     1      44.705   3.325  11.674  0.00  0.00    +0.000 C 
ATOM      9  C   UNL     1      44.152   4.082  10.455  0.00  0.00    +0.000 C 
ATOM     10  C   UNL     1      43.364   5.342  10.814  0.00  0.00    +0.000 C 
ATOM     11  C   UNL     1      44.102   6.292  11.777  0.00  0.00    +0.000 C 
ATOM     12  C   UNL     1      44.754   5.533  12.953  0.00  0.00    +0.000 C 
ATOM     13  C   UNL     1      45.532   4.288  12.537  0.00  0.00    +0.000 C 
BRANCH   8  14
ATOM     14  C   UNL     1      43.580   2.594  12.438  0.00  0.00    +0.000 C 
BRANCH  14  15
ATOM     15  N   UNL     1      42.872   1.621  11.607  0.00  0.00    +0.000 NA
ATOM     16  H   UNL     1      43.478   1.313  10.848  0.00  0.00    +0.000 HD
ATOM     17  H   UNL     1      42.085   2.085  11.151  0.00  0.00    +0.000 HD
ENDBRANCH  14  15
ENDBRANCH   8  14
ENDBRANCH   7  11
ENDBRANCH   1   7
BRANCH   4  18
ATOM     18  C   UNL     1      49.374   8.746  14.614  0.00  0.00    +0.000 C 
BRANCH  18  19
ATOM     19  N   UNL     1      49.411   7.920  15.794  0.00  0.00    +0.000 N 
ATOM     20  C   UNL     1      48.692   8.246  16.918  0.00  0.00    +0.000 C 
ATOM     21  O   UNL     1      47.963   9.236  16.972  0.00  0.00    +0.000 OA
ATOM     22  H   UNL     1      50.178   7.256  15.880  0.00  0.00    +0.000 HD
BRANCH  20  23
ATOM     23  C   UNL     1      48.790   7.295  18.035  0.00  0.00    +0.000 A 
ATOM     24  C   UNL     1      49.060   7.760  19.315  0.00  0.00    +0.000 A 
ATOM     25  S   UNL     1      49.120   6.528  20.493  0.00  0.00    +0.000 S 
ATOM     26  C   UNL     1      48.828   5.322  19.328  0.00  0.00    +0.000 A 
ATOM     27  N   UNL     1      48.798   4.009  19.677  0.00  0.00    +0.000 NA
ATOM     28  C   UNL     1      48.604   3.195  18.685  0.00  0.00    +0.000 A 
ATOM     29  N   UNL     1      48.424   3.587  17.385  0.00  0.00    +0.000 N 
ATOM     30  C   UNL     1      48.375   4.907  17.001  0.00  0.00    +0.000 A 
ATOM     31  O   UNL     1      48.095   5.228  15.851  0.00  0.00    +0.000 OA
ATOM     32  C   UNL     1      48.645   5.856  18.066  0.00  0.00    +0.000 A 
ATOM     33  H   UNL     1      48.249   2.904  16.665  0.00  0.00    +0.000 HD
ENDBRANCH  20  23
ENDBRANCH  18  19
ENDBRANCH   4  18
TORSDOF 7
ENDMDL
MODEL 5
REMARK VINA RESULT:    -6.008      3.950      6.354
REMARK INTER + INTRA:          -9.414
REMARK INTER:                  -8.406
REMARK INTRA:                  -1.008
REMARK UNBOUND:                -1.124
REMARK  Name = 
REMARK  7 active torsions:
REMARK  status: ('A' for Active; 'I' for Inactive)
REMARK    1  A    between atoms: N_1  and  C_2
REMARK    2  A    between atoms: C_2  and  C_3
REMARK    3  A    between atoms: C_6  and  C_7
REMARK    4  A    between atoms: C_7  and  C_8
REMARK    5  A    between atoms: C_11  and  C_12
REMARK    6  A    between atoms: C_12  and  N_13
REMARK    7  A    between atoms: C_14  and  C_16
REMARK                            x       y       z     vdW  Elec       q    Type
REMARK                         _______ _______ _______ _____ _____    ______ ____
ROOT
ATOM      1  C   UNL     1      50.317   8.784  11.559  0.00  0.00    +0.000 A 
ATOM      2  C   UNL     1      50.124   7.622  12.301  0.00  0.00    +0.000 A 
ATOM      3  C   UNL     1      48.847   7.325  12.778  0.00  0.00    +0.000 A 
ATOM      4  C   UNL     1      47.803   8.231  12.583  0.00  0.00    +0.000 A 
ATOM      5  C   UNL     1      48.103   9.391  11.878  0.00  0.00    +0.000 A 
ATOM      6  N   UNL     1      49.322   9.679  11.356  0.00  0.00    +0.000 NA
ENDROOT
BRANCH   1   7
ATOM      7  C   UNL     1      51.644   9.031  10.869  0.00  0.00    +0.000 C 
BRANCH   7  11
ATOM      8  C   UNL     1      54.586   7.940   8.518  0.00  0.00    +0.000 C 
ATOM      9  C   UNL     1      53.092   7.731   8.221  0.00  0.00    +0.000 C 
ATOM     10  C   UNL     1      52.316   7.087   9.371  0.00  0.00    +0.000 C 
ATOM     11  C   UNL     1      52.527   7.773  10.734  0.00  0.00    +0.000 C 
ATOM     12  C   UNL     1      54.015   8.085  11.002  0.00  0.00    +0.000 C 
ATOM     13  C   UNL     1      54.738   8.732   9.824  0.00  0.00    +0.000 C 
BRANCH   8  14
ATOM     14  C   UNL     1      55.354   6.601   8.495  0.00  0.00    +0.000 C 
BRANCH  14  15
ATOM     15  N   UNL     1      55.078   5.811   7.296  0.00  0.00    +0.000 NA
ATOM     16  H   UNL     1      55.059   4.820   7.535  0.00  0.00    +0.000 HD
ATOM     17  H   UNL     1      55.856   5.915   6.643  0.00  0.00    +0.000 HD
ENDBRANCH  14  15
ENDBRANCH   8  14
ENDBRANCH   7  11
ENDBRANCH   1   7
BRANCH   4  18
ATOM     18  C   UNL     1      46.423   7.970  13.118  0.00  0.00    +0.000 C 
BRANCH  18  19
ATOM     19  N   UNL     1      45.903   6.679  12.749  0.00  0.00    +0.000 N 
ATOM     20  C   UNL     1      45.016   6.535  11.709  0.00  0.00    +0.000 C 
ATOM     21  O   UNL     1      44.641   7.487  11.025  0.00  0.00    +0.000 OA
ATOM     22  H   UNL     1      45.982   5.927  13.429  0.00  0.00    +0.000 HD
BRANCH  20  23
ATOM     23  C   UNL     1      44.597   5.158  11.414  0.00  0.00    +0.000 A 
ATOM     24  C   UNL     1      43.809   4.467  12.324  0.00  0.00    +0.000 A 
ATOM     25  S   UNL     1      43.399   2.891  11.817  0.00  0.00    +0.000 S 
ATOM     26  C   UNL     1      44.294   3.059  10.380  0.00  0.00    +0.000 A 
ATOM     27  N   UNL     1      44.394   2.030   9.498  0.00  0.00    +0.000 NA
ATOM     28  C   UNL     1      45.138   2.282   8.463  0.00  0.00    +0.000 A 
ATOM     29  N   UNL     1      45.771   3.474   8.237  0.00  0.00    +0.000 N 
ATOM     30  C   UNL     1      45.637   4.563   9.068  0.00  0.00    +0.000 A 
ATOM     31  O   UNL     1      46.121   5.653   8.776  0.00  0.00    +0.000 OA
ATOM     32  C   UNL     1      44.862   4.315  10.269  0.00  0.00    +0.000 A 
ATOM     33  H   UNL     1      46.312   3.615   7.397  0.00  0.00    +0.000 HD
ENDBRANCH  20  23
ENDBRANCH  18  19
ENDBRANCH   4  18
TORSDOF 7
ENDMDL
MODEL 6
REMARK VINA RESULT:    -5.816      4.867      6.855
REMARK INTER + INTRA:          -9.150
REMARK INTER:                  -8.106
REMARK INTRA:                  -1.043
REMARK UNBOUND:                -1.124
REMARK  Name = 
REMARK  7 active torsions:
REMARK  status: ('A' for Active; 'I' for Inactive)
REMARK    1  A    between atoms: N_1  and  C_2
REMARK    2  A    between atoms: C_2  and  C_3
REMARK    3  A    between atoms: C_6  and  C_7
REMARK    4  A    between atoms: C_7  and  C_8
REMARK    5  A    between atoms: C_11  and  C_12
REMARK    6  A    between atoms: C_12  and  N_13
REMARK    7  A    between atoms: C_14  and  C_16
REMARK                            x       y       z     vdW  Elec       q    Type
REMARK                         _______ _______ _______ _____ _____    ______ ____
ROOT
ATOM      1  C   UNL     1      51.452   2.545  17.522  0.00  0.00    +0.000 A 
ATOM      2  C   UNL     1      51.026   3.759  18.052  0.00  0.00    +0.000 A 
ATOM      3  C   UNL     1      49.688   4.130  17.914  0.00  0.00    +0.000 A 
ATOM      4  C   UNL     1      48.817   3.326  17.177  0.00  0.00    +0.000 A 
ATOM      5  C   UNL     1      49.344   2.160  16.637  0.00  0.00    +0.000 A 
ATOM      6  N   UNL     1      50.627   1.748  16.802  0.00  0.00    +0.000 NA
ENDROOT
BRANCH   1   7
ATOM      7  C   UNL     1      52.847   2.033  17.823  0.00  0.00    +0.000 C 
BRANCH   7  11
ATOM      8  C   UNL     1      55.598  -0.699  18.403  0.00  0.00    +0.000 C 
ATOM      9  C   UNL     1      55.710   0.474  17.416  0.00  0.00    +0.000 C 
ATOM     10  C   UNL     1      54.499   0.626  16.495  0.00  0.00    +0.000 C 
ATOM     11  C   UNL     1      53.146   0.640  17.232  0.00  0.00    +0.000 C 
ATOM     12  C   UNL     1      53.058  -0.469  18.302  0.00  0.00    +0.000 C 
ATOM     13  C   UNL     1      54.290  -0.572  19.196  0.00  0.00    +0.000 C 
BRANCH   8  14
ATOM     14  C   UNL     1      55.775  -2.055  17.686  0.00  0.00    +0.000 C 
BRANCH  14  15
ATOM     15  N   UNL     1      55.480  -3.196  18.552  0.00  0.00    +0.000 NA
ATOM     16  H   UNL     1      56.219  -3.893  18.464  0.00  0.00    +0.000 HD
ATOM     17  H   UNL     1      54.634  -3.658  18.215  0.00  0.00    +0.000 HD
ENDBRANCH  14  15
ENDBRANCH   8  14
ENDBRANCH   7  11
ENDBRANCH   1   7
BRANCH   4  18
ATOM     18  C   UNL     1      47.378   3.710  16.968  0.00  0.00    +0.000 C 
BRANCH  18  19
ATOM     19  N   UNL     1      47.197   4.712  15.949  0.00  0.00    +0.000 N 
ATOM     20  C   UNL     1      47.125   4.374  14.619  0.00  0.00    +0.000 C 
ATOM     21  O   UNL     1      47.184   3.208  14.230  0.00  0.00    +0.000 OA
ATOM     22  H   UNL     1      47.399   5.678  16.196  0.00  0.00    +0.000 HD
BRANCH  20  23
ATOM     23  C   UNL     1      46.899   5.489  13.689  0.00  0.00    +0.000 A 
ATOM     24  C   UNL     1      45.762   5.504  12.893  0.00  0.00    +0.000 A 
ATOM     25  S   UNL     1      45.647   6.877  11.888  0.00  0.00    +0.000 S 
ATOM     26  C   UNL     1      47.135   7.482  12.449  0.00  0.00    +0.000 A 
ATOM     27  N   UNL     1      47.652   8.634  11.947  0.00  0.00    +0.000 NA
ATOM     28  C   UNL     1      48.810   8.961  12.436  0.00  0.00    +0.000 A 
ATOM     29  N   UNL     1      49.478   8.240  13.389  0.00  0.00    +0.000 N 
ATOM     30  C   UNL     1      48.958   7.109  13.975  0.00  0.00    +0.000 A 
ATOM     31  O   UNL     1      49.527   6.553  14.909  0.00  0.00    +0.000 OA
ATOM     32  C   UNL     1      47.690   6.670  13.421  0.00  0.00    +0.000 A 
ATOM     33  H   UNL     1      50.363   8.564  13.748  0.00  0.00    +0.000 HD
ENDBRANCH  20  23
ENDBRANCH  18  19
ENDBRANCH   4  18
TORSDOF 7
ENDMDL
MODEL 7
REMARK VINA RESULT:    -5.812      4.281      6.788
REMARK INTER + INTRA:          -9.144
REMARK INTER:                  -8.659
REMARK INTRA:                  -0.485
REMARK UNBOUND:                -1.124
REMARK  Name = 
REMARK  7 active torsions:
REMARK  status: ('A' for Active; 'I' for Inactive)
REMARK    1  A    between atoms: N_1  and  C_2
REMARK    2  A    between atoms: C_2  and  C_3
REMARK    3  A    between atoms: C_6  and  C_7
REMARK    4  A    between atoms: C_7  and  C_8
REMARK    5  A    between atoms: C_11  and  C_12
REMARK    6  A    between atoms: C_12  and  N_13
REMARK    7  A    between atoms: C_14  and  C_16
REMARK                            x       y       z     vdW  Elec       q    Type
REMARK                         _______ _______ _______ _____ _____    ______ ____
ROOT
ATOM      1  C   UNL     1      51.563   9.067  11.844  0.00  0.00    +0.000 A 
ATOM      2  C   UNL     1      51.858   8.479  13.070  0.00  0.00    +0.000 A 
ATOM      3  C   UNL     1      50.811   8.092  13.908  0.00  0.00    +0.000 A 
ATOM      4  C   UNL     1      49.492   8.374  13.548  0.00  0.00    +0.000 A 
ATOM      5  C   UNL     1      49.297   9.013  12.331  0.00  0.00    +0.000 A 
ATOM      6  N   UNL     1      50.292   9.352  11.472  0.00  0.00    +0.000 NA
ENDROOT
BRANCH   1   7
ATOM      7  C   UNL     1      52.669   9.319  10.837  0.00  0.00    +0.000 C 
BRANCH   7  11
ATOM      8  C   UNL     1      54.593   6.425   9.023  0.00  0.00    +0.000 C 
ATOM      9  C   UNL     1      54.913   7.923   8.886  0.00  0.00    +0.000 C 
ATOM     10  C   UNL     1      53.694   8.790   8.570  0.00  0.00    +0.000 C 
ATOM     11  C   UNL     1      52.495   8.556   9.508  0.00  0.00    +0.000 C 
ATOM     12  C   UNL     1      52.225   7.053   9.740  0.00  0.00    +0.000 C 
ATOM     13  C   UNL     1      53.476   6.238  10.058  0.00  0.00    +0.000 C 
BRANCH   8  14
ATOM     14  C   UNL     1      54.299   5.787   7.649  0.00  0.00    +0.000 C 
BRANCH  14  15
ATOM     15  N   UNL     1      53.796   4.418   7.758  0.00  0.00    +0.000 NA
ATOM     16  H   UNL     1      53.623   4.041   6.826  0.00  0.00    +0.000 HD
ATOM     17  H   UNL     1      52.883   4.435   8.215  0.00  0.00    +0.000 HD
ENDBRANCH  14  15
ENDBRANCH   8  14
ENDBRANCH   7  11
ENDBRANCH   1   7
BRANCH   4  18
ATOM     18  C   UNL     1      48.339   8.012  14.442  0.00  0.00    +0.000 C 
BRANCH  18  19
ATOM     19  N   UNL     1      47.162   7.606  13.718  0.00  0.00    +0.000 N 
ATOM     20  C   UNL     1      47.051   6.346  13.182  0.00  0.00    +0.000 C 
ATOM     21  O   UNL     1      47.929   5.493  13.312  0.00  0.00    +0.000 OA
ATOM     22  H   UNL     1      46.543   8.337  13.375  0.00  0.00    +0.000 HD
BRANCH  20  23
ATOM     23  C   UNL     1      45.781   6.050  12.504  0.00  0.00    +0.000 A 
ATOM     24  C   UNL     1      45.058   7.079  11.915  0.00  0.00    +0.000 A 
ATOM     25  S   UNL     1      43.621   6.560  11.157  0.00  0.00    +0.000 S 
ATOM     26  C   UNL     1      43.892   4.946  11.623  0.00  0.00    +0.000 A 
ATOM     27  N   UNL     1      42.992   3.973  11.321  0.00  0.00    +0.000 NA
ATOM     28  C   UNL     1      43.305   2.795  11.768  0.00  0.00    +0.000 A 
ATOM     29  N   UNL     1      44.442   2.513  12.476  0.00  0.00    +0.000 N 
ATOM     30  C   UNL     1      45.413   3.452  12.740  0.00  0.00    +0.000 A 
ATOM     31  O   UNL     1      46.474   3.142  13.272  0.00  0.00    +0.000 OA
ATOM     32  C   UNL     1      45.083   4.798  12.310  0.00  0.00    +0.000 A 
ATOM     33  H   UNL     1      44.640   1.569  12.771  0.00  0.00    +0.000 HD
ENDBRANCH  20  23
ENDBRANCH  18  19
ENDBRANCH   4  18
TORSDOF 7
ENDMDL
MODEL 8
REMARK VINA RESULT:    -5.627      4.543      5.962
REMARK INTER + INTRA:          -8.888
REMARK INTER:                  -8.727
REMARK INTRA:                  -0.161
REMARK UNBOUND:                -1.124
REMARK  Name = 
REMARK  7 active torsions:
REMARK  status: ('A' for Active; 'I' for Inactive)
REMARK    1  A    between atoms: N_1  and  C_2
REMARK    2  A    between atoms: C_2  and  C_3
REMARK    3  A    between atoms: C_6  and  C_7
REMARK    4  A    between atoms: C_7  and  C_8
REMARK    5  A    between atoms: C_11  and  C_12
REMARK    6  A    between atoms: C_12  and  N_13
REMARK    7  A    between atoms: C_14  and  C_16
REMARK                            x       y       z     vdW  Elec       q    Type
REMARK                         _______ _______ _______ _____ _____    ______ ____
ROOT
ATOM      1  C   UNL     1      51.596   3.314  17.914  0.00  0.00    +0.000 A 
ATOM      2  C   UNL     1      51.174   4.637  17.827  0.00  0.00    +0.000 A 
ATOM      3  C   UNL     1      49.821   4.907  17.619  0.00  0.00    +0.000 A 
ATOM      4  C   UNL     1      48.926   3.855  17.417  0.00  0.00    +0.000 A 
ATOM      5  C   UNL     1      49.447   2.569  17.467  0.00  0.00    +0.000 A 
ATOM      6  N   UNL     1      50.748   2.276  17.721  0.00  0.00    +0.000 NA
ENDROOT
BRANCH   1   7
ATOM      7  C   UNL     1      53.020   2.998  18.330  0.00  0.00    +0.000 C 
BRANCH   7  11
ATOM      8  C   UNL     1      54.913  -0.420  18.652  0.00  0.00    +0.000 C 
ATOM      9  C   UNL     1      55.548   0.966  18.855  0.00  0.00    +0.000 C 
ATOM     10  C   UNL     1      55.259   1.951  17.723  0.00  0.00    +0.000 C 
ATOM     11  C   UNL     1      53.767   2.065  17.354  0.00  0.00    +0.000 C 
ATOM     12  C   UNL     1      53.089   0.682  17.248  0.00  0.00    +0.000 C 
ATOM     13  C   UNL     1      53.407  -0.258  18.408  0.00  0.00    +0.000 C 
BRANCH   8  14
ATOM     14  C   UNL     1      55.651  -1.219  17.556  0.00  0.00    +0.000 C 
BRANCH  14  15
ATOM     15  N   UNL     1      54.867  -2.347  17.054  0.00  0.00    +0.000 NA
ATOM     16  H   UNL     1      55.351  -2.778  16.267  0.00  0.00    +0.000 HD
ATOM     17  H   UNL     1      53.989  -1.995  16.669  0.00  0.00    +0.000 HD
ENDBRANCH  14  15
ENDBRANCH   8  14
ENDBRANCH   7  11
ENDBRANCH   1   7
BRANCH   4  18
ATOM     18  C   UNL     1      47.468   4.104  17.147  0.00  0.00    +0.000 C 
BRANCH  18  19
ATOM     19  N   UNL     1      47.230   4.848  15.938  0.00  0.00    +0.000 N 
ATOM     20  C   UNL     1      47.272   4.243  14.705  0.00  0.00    +0.000 C 
ATOM     21  O   UNL     1      47.486   3.039  14.567  0.00  0.00    +0.000 OA
ATOM     22  H   UNL     1      47.304   5.862  15.986  0.00  0.00    +0.000 HD
BRANCH  20  23
ATOM     23  C   UNL     1      46.971   5.111  13.558  0.00  0.00    +0.000 A 
ATOM     24  C   UNL     1      47.718   6.263  13.349  0.00  0.00    +0.000 A 
ATOM     25  S   UNL     1      47.248   7.142  11.965  0.00  0.00    +0.000 S 
ATOM     26  C   UNL     1      46.002   6.037  11.616  0.00  0.00    +0.000 A 
ATOM     27  N   UNL     1      45.172   6.235  10.558  0.00  0.00    +0.000 NA
ATOM     28  C   UNL     1      44.243   5.337  10.430  0.00  0.00    +0.000 A 
ATOM     29  N   UNL     1      44.089   4.259  11.261  0.00  0.00    +0.000 N 
ATOM     30  C   UNL     1      44.950   3.983  12.298  0.00  0.00    +0.000 A 
ATOM     31  O   UNL     1      44.854   2.948  12.950  0.00  0.00    +0.000 OA
ATOM     32  C   UNL     1      45.972   4.990  12.518  0.00  0.00    +0.000 A 
ATOM     33  H   UNL     1      43.362   3.581  11.089  0.00  0.00    +0.000 HD
ENDBRANCH  20  23
ENDBRANCH  18  19
ENDBRANCH   4  18
TORSDOF 7
ENDMDL
MODEL 9
REMARK VINA RESULT:    -5.627      1.782      2.585
REMARK INTER + INTRA:          -8.888
REMARK INTER:                  -8.062
REMARK INTRA:                  -0.826
REMARK UNBOUND:                -1.124
REMARK  Name = 
REMARK  7 active torsions:
REMARK  status: ('A' for Active; 'I' for Inactive)
REMARK    1  A    between atoms: N_1  and  C_2
REMARK    2  A    between atoms: C_2  and  C_3
REMARK    3  A    between atoms: C_6  and  C_7
REMARK    4  A    between atoms: C_7  and  C_8
REMARK    5  A    between atoms: C_11  and  C_12
REMARK    6  A    between atoms: C_12  and  N_13
REMARK    7  A    between atoms: C_14  and  C_16
REMARK                            x       y       z     vdW  Elec       q    Type
REMARK                         _______ _______ _______ _____ _____    ______ ____
ROOT
ATOM      1  C   UNL     1      49.051   7.496  16.254  0.00  0.00    +0.000 A 
ATOM      2  C   UNL     1      49.094   8.779  15.718  0.00  0.00    +0.000 A 
ATOM      3  C   UNL     1      48.778   8.965  14.372  0.00  0.00    +0.000 A 
ATOM      4  C   UNL     1      48.507   7.860  13.563  0.00  0.00    +0.000 A 
ATOM      5  C   UNL     1      48.541   6.612  14.173  0.00  0.00    +0.000 A 
ATOM      6  N   UNL     1      48.792   6.408  15.491  0.00  0.00    +0.000 NA
ENDROOT
BRANCH   1   7
ATOM      7  C   UNL     1      49.201   7.293  17.750  0.00  0.00    +0.000 C 
BRANCH   7  11
ATOM      8  C   UNL     1      50.831   4.772  20.270  0.00  0.00    +0.000 C 
ATOM      9  C   UNL     1      50.325   6.179  20.629  0.00  0.00    +0.000 C 
ATOM     10  C   UNL     1      50.838   7.277  19.698  0.00  0.00    +0.000 C 
ATOM     11  C   UNL     1      50.642   6.975  18.200  0.00  0.00    +0.000 C 
ATOM     12  C   UNL     1      51.048   5.529  17.842  0.00  0.00    +0.000 C 
ATOM     13  C   UNL     1      50.504   4.473  18.801  0.00  0.00    +0.000 C 
BRANCH   8  14
ATOM     14  C   UNL     1      52.322   4.603  20.635  0.00  0.00    +0.000 C 
BRANCH  14  15
ATOM     15  N   UNL     1      52.908   3.388  20.070  0.00  0.00    +0.000 NA
ATOM     16  H   UNL     1      53.914   3.510  19.962  0.00  0.00    +0.000 HD
ATOM     17  H   UNL     1      52.550   3.257  19.122  0.00  0.00    +0.000 HD
ENDBRANCH  14  15
ENDBRANCH   8  14
ENDBRANCH   7  11
ENDBRANCH   1   7
BRANCH   4  18
ATOM     18  C   UNL     1      48.204   8.012  12.098  0.00  0.00    +0.000 C 
BRANCH  18  19
ATOM     19  N   UNL     1      47.505   6.883  11.540  0.00  0.00    +0.000 N 
ATOM     20  C   UNL     1      46.140   6.892  11.388  0.00  0.00    +0.000 C 
ATOM     21  O   UNL     1      45.447   7.863  11.691  0.00  0.00    +0.000 OA
ATOM     22  H   UNL     1      47.993   5.990  11.518  0.00  0.00    +0.000 HD
BRANCH  20  23
ATOM     23  C   UNL     1      45.560   5.692  10.768  0.00  0.00    +0.000 A 
ATOM     24  C   UNL     1      45.706   5.480   9.404  0.00  0.00    +0.000 A 
ATOM     25  S   UNL     1      44.989   4.033   8.854  0.00  0.00    +0.000 S 
ATOM     26  C   UNL     1      44.421   3.656  10.413  0.00  0.00    +0.000 A 
ATOM     27  N   UNL     1      43.674   2.542  10.632  0.00  0.00    +0.000 NA
ATOM     28  C   UNL     1      43.276   2.396  11.859  0.00  0.00    +0.000 A 
ATOM     29  N   UNL     1      43.573   3.261  12.877  0.00  0.00    +0.000 N 
ATOM     30  C   UNL     1      44.384   4.360  12.714  0.00  0.00    +0.000 A 
ATOM     31  O   UNL     1      44.728   5.048  13.670  0.00  0.00    +0.000 OA
ATOM     32  C   UNL     1      44.809   4.599  11.347  0.00  0.00    +0.000 A 
ATOM     33  H   UNL     1      43.255   3.074  13.816  0.00  0.00    +0.000 HD
ENDBRANCH  20  23
ENDBRANCH  18  19
ENDBRANCH   4  18
TORSDOF 7
ENDMDL
