MODEL 1
REMARK VINA RESULT:    -8.459      0.000      0.000
REMARK INTER + INTRA:         -12.943
REMARK INTER:                 -11.921
REMARK INTRA:                  -1.022
REMARK UNBOUND:                -1.022
REMARK  Name = 
REMARK  7 active torsions:
REMARK  status: ('A' for Active; 'I' for Inactive)
REMARK    1  A    between atoms: C_2  and  C_20
REMARK    2  A    between atoms: N_3  and  C_4
REMARK    3  A    between atoms: C_4  and  C_5
REMARK    4  A    between atoms: C_8  and  C_9
REMARK    5  A    between atoms: C_9  and  O_10
REMARK    6  A    between atoms: O_10  and  C_11
REMARK    7  A    between atoms: C_11  and  C_12
REMARK                            x       y       z     vdW  Elec       q    Type
REMARK                         _______ _______ _______ _____ _____    ______ ____
ROOT
ATOM      1  C   UNL     1      48.075   6.579  13.462  0.00  0.00    +0.000 C 
ENDROOT
BRANCH   1   2
ATOM      2  C   UNL     1      46.915   5.841  12.844  0.00  0.00    +0.000 A 
ATOM      3  C   UNL     1      46.340   6.294  11.650  0.00  0.00    +0.000 A 
ATOM      4  C   UNL     1      45.254   5.620  11.082  0.00  0.00    +0.000 A 
ATOM      5  C   UNL     1      44.714   4.486  11.703  0.00  0.00    +0.000 A 
ATOM      6  C   UNL     1      45.273   4.049  12.911  0.00  0.00    +0.000 A 
ATOM      7  C   UNL     1      46.360   4.722  13.479  0.00  0.00    +0.000 A 
BRANCH   5   8
ATOM      8  C   UNL     1      43.544   3.762  11.084  0.00  0.00    +0.000 C 
BRANCH   8   9
ATOM      9  O   UNL     1      43.860   3.471   9.727  0.00  0.00    +0.000 OA
BRANCH   9  10
ATOM     10  C   UNL     1      44.516   2.210   9.589  0.00  0.00    +0.000 C 
BRANCH  10  11
ATOM     11  C   UNL     1      45.548   2.262   8.482  0.00  0.00    +0.000 A 
ATOM     12  C   UNL     1      45.760   3.437   7.761  0.00  0.00    +0.000 A 
ATOM     13  C   UNL     1      46.721   3.453   6.756  0.00  0.00    +0.000 A 
ATOM     14  C   UNL     1      47.457   2.304   6.503  0.00  0.00    +0.000 A 
ATOM     15  C   UNL     1      47.203   1.182   7.276  0.00  0.00    +0.000 A 
ATOM     16  N   UNL     1      46.275   1.136   8.259  0.00  0.00    +0.000 NA
ENDBRANCH  10  11
ENDBRANCH   9  10
ENDBRANCH   8   9
ENDBRANCH   5   8
ENDBRANCH   1   2
BRANCH   1  19
ATOM     17  O   UNL     1      50.218   6.664  15.250  0.00  0.00    +0.000 OA
ATOM     18  C   UNL     1      49.076   6.687  15.699  0.00  0.00    +0.000 C 
ATOM     19  N   UNL     1      47.970   6.578  14.898  0.00  0.00    +0.000 N 
ATOM     20  H   UNL     1      47.061   6.816  15.279  0.00  0.00    +0.000 HD
BRANCH  18  21
ATOM     21  C   UNL     1      48.820   6.786  17.142  0.00  0.00    +0.000 A 
ATOM     22  C   UNL     1      48.465   8.005  17.703  0.00  0.00    +0.000 A 
ATOM     23  S   UNL     1      48.241   7.937  19.394  0.00  0.00    +0.000 S 
ATOM     24  C   UNL     1      48.565   6.266  19.426  0.00  0.00    +0.000 A 
ATOM     25  N   UNL     1      48.516   5.564  20.591  0.00  0.00    +0.000 NA
ATOM     26  C   UNL     1      48.747   4.300  20.460  0.00  0.00    +0.000 A 
ATOM     27  N   UNL     1      49.025   3.674  19.274  0.00  0.00    +0.000 N 
ATOM     28  C   UNL     1      49.118   4.346  18.079  0.00  0.00    +0.000 A 
ATOM     29  O   UNL     1      49.421   3.763  17.046  0.00  0.00    +0.000 OA
ATOM     30  C   UNL     1      48.853   5.770  18.167  0.00  0.00    +0.000 A 
ATOM     31  H   UNL     1      49.208   2.682  19.239  0.00  0.00    +0.000 HD
ENDBRANCH  18  21
ENDBRANCH   1  19
TORSDOF 7
ENDMDL
MODEL 2
REMARK VINA RESULT:    -8.059      1.408      2.145
REMARK INTER + INTRA:         -12.379
REMARK INTER:                 -11.339
REMARK INTRA:                  -1.040
REMARK UNBOUND:                -1.022
REMARK  Name = 
REMARK  7 active torsions:
REMARK  status: ('A' for Active; 'I' for Inactive)
REMARK    1  A    between atoms: C_2  and  C_20
REMARK    2  A    between atoms: N_3  and  C_4
REMARK    3  A    between atoms: C_4  and  C_5
REMARK    4  A    between atoms: C_8  and  C_9
REMARK    5  A    between atoms: C_9  and  O_10
REMARK    6  A    between atoms: O_10  and  C_11
REMARK    7  A    between atoms: C_11  and  C_12
REMARK                            x       y       z     vdW  Elec       q    Type
REMARK                         _______ _______ _______ _____ _____    ______ ____
ROOT
ATOM      1  C   UNL     1      47.937   6.994  13.672  0.00  0.00    +0.000 C 
ENDROOT
BRANCH   1   2
ATOM      2  C   UNL     1      46.851   6.241  12.949  0.00  0.00    +0.000 A 
ATOM      3  C   UNL     1      46.580   6.503  11.600  0.00  0.00    +0.000 A 
ATOM      4  C   UNL     1      45.562   5.816  10.932  0.00  0.00    +0.000 A 
ATOM      5  C   UNL     1      44.786   4.861  11.601  0.00  0.00    +0.000 A 
ATOM      6  C   UNL     1      45.040   4.617  12.957  0.00  0.00    +0.000 A 
ATOM      7  C   UNL     1      46.059   5.303  13.626  0.00  0.00    +0.000 A 
BRANCH   5   8
ATOM      8  C   UNL     1      43.691   4.122  10.873  0.00  0.00    +0.000 C 
BRANCH   8   9
ATOM      9  O   UNL     1      44.137   3.842   9.550  0.00  0.00    +0.000 OA
BRANCH   9  10
ATOM     10  C   UNL     1      44.517   2.474   9.391  0.00  0.00    +0.000 C 
BRANCH  10  11
ATOM     11  C   UNL     1      45.565   2.333   8.307  0.00  0.00    +0.000 A 
ATOM     12  C   UNL     1      45.803   3.371   7.407  0.00  0.00    +0.000 A 
ATOM     13  C   UNL     1      46.778   3.212   6.428  0.00  0.00    +0.000 A 
ATOM     14  C   UNL     1      47.502   2.029   6.379  0.00  0.00    +0.000 A 
ATOM     15  C   UNL     1      47.223   1.053   7.322  0.00  0.00    +0.000 A 
ATOM     16  N   UNL     1      46.280   1.178   8.284  0.00  0.00    +0.000 NA
ENDBRANCH  10  11
ENDBRANCH   9  10
ENDBRANCH   8   9
ENDBRANCH   5   8
ENDBRANCH   1   2
BRANCH   1  19
ATOM     17  O   UNL     1      50.165   6.610  15.310  0.00  0.00    +0.000 OA
ATOM     18  C   UNL     1      49.050   6.598  15.823  0.00  0.00    +0.000 C 
ATOM     19  N   UNL     1      47.902   6.708  15.083  0.00  0.00    +0.000 N 
ATOM     20  H   UNL     1      47.028   6.909  15.556  0.00  0.00    +0.000 HD
BRANCH  18  21
ATOM     21  C   UNL     1      48.869   6.416  17.268  0.00  0.00    +0.000 A 
ATOM     22  C   UNL     1      49.230   5.217  17.869  0.00  0.00    +0.000 A 
ATOM     23  S   UNL     1      48.915   5.174  19.546  0.00  0.00    +0.000 S 
ATOM     24  C   UNL     1      48.331   6.773  19.535  0.00  0.00    +0.000 A 
ATOM     25  N   UNL     1      47.910   7.374  20.680  0.00  0.00    +0.000 NA
ATOM     26  C   UNL     1      47.528   8.599  20.530  0.00  0.00    +0.000 A 
ATOM     27  N   UNL     1      47.526   9.276  19.339  0.00  0.00    +0.000 N 
ATOM     28  C   UNL     1      47.910   8.700  18.151  0.00  0.00    +0.000 A 
ATOM     29  O   UNL     1      47.845   9.319  17.097  0.00  0.00    +0.000 OA
ATOM     30  C   UNL     1      48.362   7.327  18.268  0.00  0.00    +0.000 A 
ATOM     31  H   UNL     1      47.204  10.231  19.284  0.00  0.00    +0.000 HD
ENDBRANCH  18  21
ENDBRANCH   1  19
TORSDOF 7
ENDMDL
MODEL 3
REMARK VINA RESULT:    -7.402      1.955      2.264
REMARK INTER + INTRA:         -11.454
REMARK INTER:                 -10.334
REMARK INTRA:                  -1.120
REMARK UNBOUND:                -1.022
REMARK  Name = 
REMARK  7 active torsions:
REMARK  status: ('A' for Active; 'I' for Inactive)
REMARK    1  A    between atoms: C_2  and  C_20
REMARK    2  A    between atoms: N_3  and  C_4
REMARK    3  A    between atoms: C_4  and  C_5
REMARK    4  A    between atoms: C_8  and  C_9
REMARK    5  A    between atoms: C_9  and  O_10
REMARK    6  A    between atoms: O_10  and  C_11
REMARK    7  A    between atoms: C_11  and  C_12
REMARK                            x       y       z     vdW  Elec       q    Type
REMARK                         _______ _______ _______ _____ _____    ______ ____
ROOT
ATOM      1  C   UNL     1      48.330   7.857  12.942  0.00  0.00    +0.000 C 
ENDROOT
BRANCH   1   2
ATOM      2  C   UNL     1      47.319   6.827  12.511  0.00  0.00    +0.000 A 
ATOM      3  C   UNL     1      46.510   7.050  11.388  0.00  0.00    +0.000 A 
ATOM      4  C   UNL     1      45.560   6.102  10.996  0.00  0.00    +0.000 A 
ATOM      5  C   UNL     1      45.391   4.916  11.723  0.00  0.00    +0.000 A 
ATOM      6  C   UNL     1      46.181   4.706  12.860  0.00  0.00    +0.000 A 
ATOM      7  C   UNL     1      47.133   5.653  13.254  0.00  0.00    +0.000 A 
BRANCH   5   8
ATOM      8  C   UNL     1      44.367   3.897  11.292  0.00  0.00    +0.000 C 
BRANCH   8   9
ATOM      9  O   UNL     1      45.051   2.755  10.787  0.00  0.00    +0.000 OA
BRANCH   9  10
ATOM     10  C   UNL     1      44.492   2.299   9.553  0.00  0.00    +0.000 C 
BRANCH  10  11
ATOM     11  C   UNL     1      45.533   2.323   8.454  0.00  0.00    +0.000 A 
ATOM     12  C   UNL     1      45.780   3.490   7.732  0.00  0.00    +0.000 A 
ATOM     13  C   UNL     1      46.749   3.480   6.734  0.00  0.00    +0.000 A 
ATOM     14  C   UNL     1      47.457   2.313   6.490  0.00  0.00    +0.000 A 
ATOM     15  C   UNL     1      47.170   1.200   7.264  0.00  0.00    +0.000 A 
ATOM     16  N   UNL     1      46.234   1.179   8.239  0.00  0.00    +0.000 NA
ENDBRANCH  10  11
ENDBRANCH   9  10
ENDBRANCH   8   9
ENDBRANCH   5   8
ENDBRANCH   1   2
BRANCH   1  19
ATOM     17  O   UNL     1      49.785   9.145  14.948  0.00  0.00    +0.000 OA
ATOM     18  C   UNL     1      49.974   7.946  14.761  0.00  0.00    +0.000 C 
ATOM     19  N   UNL     1      49.356   7.254  13.752  0.00  0.00    +0.000 N 
ATOM     20  H   UNL     1      49.372   6.241  13.768  0.00  0.00    +0.000 HD
BRANCH  18  21
ATOM     21  C   UNL     1      50.921   7.180  15.581  0.00  0.00    +0.000 A 
ATOM     22  C   UNL     1      52.282   7.438  15.496  0.00  0.00    +0.000 A 
ATOM     23  S   UNL     1      53.229   6.427  16.493  0.00  0.00    +0.000 S 
ATOM     24  C   UNL     1      51.849   5.644  17.109  0.00  0.00    +0.000 A 
ATOM     25  N   UNL     1      51.957   4.664  18.046  0.00  0.00    +0.000 NA
ATOM     26  C   UNL     1      50.827   4.185  18.448  0.00  0.00    +0.000 A 
ATOM     27  N   UNL     1      49.600   4.592  17.996  0.00  0.00    +0.000 N 
ATOM     28  C   UNL     1      49.442   5.554  17.026  0.00  0.00    +0.000 A 
ATOM     29  O   UNL     1      48.332   5.856  16.608  0.00  0.00    +0.000 OA
ATOM     30  C   UNL     1      50.683   6.136  16.550  0.00  0.00    +0.000 A 
ATOM     31  H   UNL     1      48.751   4.170  18.342  0.00  0.00    +0.000 HD
ENDBRANCH  18  21
ENDBRANCH   1  19
TORSDOF 7
ENDMDL
MODEL 4
REMARK VINA RESULT:    -7.360      1.664      1.995
REMARK INTER + INTRA:         -11.393
REMARK INTER:                 -10.379
REMARK INTRA:                  -1.014
REMARK UNBOUND:                -1.022
REMARK  Name = 
REMARK  7 active torsions:
REMARK  status: ('A' for Active; 'I' for Inactive)
REMARK    1  A    between atoms: C_2  and  C_20
REMARK    2  A    between atoms: N_3  and  C_4
REMARK    3  A    between atoms: C_4  and  C_5
REMARK    4  A    between atoms: C_8  and  C_9
REMARK    5  A    between atoms: C_9  and  O_10
REMARK    6  A    between atoms: O_10  and  C_11
REMARK    7  A    between atoms: C_11  and  C_12
REMARK                            x       y       z     vdW  Elec       q    Type
REMARK                         _______ _______ _______ _____ _____    ______ ____
ROOT
ATOM      1  C   UNL     1      47.177   8.255  13.521  0.00  0.00    +0.000 C 
ENDROOT
BRANCH   1   2
ATOM      2  C   UNL     1      46.317   7.343  12.685  0.00  0.00    +0.000 A 
ATOM      3  C   UNL     1      46.902   6.394  11.837  0.00  0.00    +0.000 A 
ATOM      4  C   UNL     1      46.106   5.558  11.048  0.00  0.00    +0.000 A 
ATOM      5  C   UNL     1      44.709   5.660  11.083  0.00  0.00    +0.000 A 
ATOM      6  C   UNL     1      44.125   6.627  11.912  0.00  0.00    +0.000 A 
ATOM      7  C   UNL     1      44.921   7.464  12.702  0.00  0.00    +0.000 A 
BRANCH   5   8
ATOM      8  C   UNL     1      43.856   4.753  10.232  0.00  0.00    +0.000 C 
BRANCH   8   9
ATOM      9  O   UNL     1      44.526   4.533   8.994  0.00  0.00    +0.000 OA
BRANCH   9  10
ATOM     10  C   UNL     1      44.379   3.188   8.538  0.00  0.00    +0.000 C 
BRANCH  10  11
ATOM     11  C   UNL     1      45.595   2.755   7.746  0.00  0.00    +0.000 A 
ATOM     12  C   UNL     1      46.318   1.621   8.114  0.00  0.00    +0.000 A 
ATOM     13  C   UNL     1      47.425   1.247   7.360  0.00  0.00    +0.000 A 
ATOM     14  C   UNL     1      47.777   2.003   6.251  0.00  0.00    +0.000 A 
ATOM     15  C   UNL     1      46.996   3.104   5.937  0.00  0.00    +0.000 A 
ATOM     16  N   UNL     1      45.916   3.493   6.651  0.00  0.00    +0.000 NA
ENDBRANCH  10  11
ENDBRANCH   9  10
ENDBRANCH   8   9
ENDBRANCH   5   8
ENDBRANCH   1   2
BRANCH   1  19
ATOM     17  O   UNL     1      49.688   7.072  13.825  0.00  0.00    +0.000 OA
ATOM     18  C   UNL     1      48.921   7.076  14.783  0.00  0.00    +0.000 C 
ATOM     19  N   UNL     1      47.646   7.572  14.699  0.00  0.00    +0.000 N 
ATOM     20  H   UNL     1      47.130   7.752  15.553  0.00  0.00    +0.000 HD
BRANCH  18  21
ATOM     21  C   UNL     1      49.305   6.503  16.079  0.00  0.00    +0.000 A 
ATOM     22  C   UNL     1      50.281   7.118  16.850  0.00  0.00    +0.000 A 
ATOM     23  S   UNL     1      50.621   6.292  18.304  0.00  0.00    +0.000 S 
ATOM     24  C   UNL     1      49.441   5.110  17.975  0.00  0.00    +0.000 A 
ATOM     25  N   UNL     1      49.198   4.097  18.851  0.00  0.00    +0.000 NA
ATOM     26  C   UNL     1      48.252   3.296  18.489  0.00  0.00    +0.000 A 
ATOM     27  N   UNL     1      47.529   3.412  17.331  0.00  0.00    +0.000 N 
ATOM     28  C   UNL     1      47.761   4.397  16.401  0.00  0.00    +0.000 A 
ATOM     29  O   UNL     1      47.131   4.439  15.352  0.00  0.00    +0.000 OA
ATOM     30  C   UNL     1      48.807   5.334  16.766  0.00  0.00    +0.000 A 
ATOM     31  H   UNL     1      46.808   2.745  17.099  0.00  0.00    +0.000 HD
ENDBRANCH  18  21
ENDBRANCH   1  19
TORSDOF 7
ENDMDL
MODEL 5
REMARK VINA RESULT:    -7.316      1.759      3.119
REMARK INTER + INTRA:         -11.332
REMARK INTER:                 -10.195
REMARK INTRA:                  -1.137
REMARK UNBOUND:                -1.022
REMARK  Name = 
REMARK  7 active torsions:
REMARK  status: ('A' for Active; 'I' for Inactive)
REMARK    1  A    between atoms: C_2  and  C_20
REMARK    2  A    between atoms: N_3  and  C_4
REMARK    3  A    between atoms: C_4  and  C_5
REMARK    4  A    between atoms: C_8  and  C_9
REMARK    5  A    between atoms: C_9  and  O_10
REMARK    6  A    between atoms: O_10  and  C_11
REMARK    7  A    between atoms: C_11  and  C_12
REMARK                            x       y       z     vdW  Elec       q    Type
REMARK                         _______ _______ _______ _____ _____    ______ ____
ROOT
ATOM      1  C   UNL     1      47.406   4.026  15.126  0.00  0.00    +0.000 C 
ENDROOT
BRANCH   1   2
ATOM      2  C   UNL     1      46.476   4.249  13.962  0.00  0.00    +0.000 A 
ATOM      3  C   UNL     1      46.131   3.188  13.114  0.00  0.00    +0.000 A 
ATOM      4  C   UNL     1      45.280   3.396  12.024  0.00  0.00    +0.000 A 
ATOM      5  C   UNL     1      44.766   4.671  11.752  0.00  0.00    +0.000 A 
ATOM      6  C   UNL     1      45.133   5.736  12.584  0.00  0.00    +0.000 A 
ATOM      7  C   UNL     1      45.983   5.529  13.676  0.00  0.00    +0.000 A 
BRANCH   5   8
ATOM      8  C   UNL     1      43.848   4.888  10.576  0.00  0.00    +0.000 C 
BRANCH   8   9
ATOM      9  O   UNL     1      43.987   3.786   9.684  0.00  0.00    +0.000 OA
BRANCH   9  10
ATOM     10  C   UNL     1      44.530   4.184   8.423  0.00  0.00    +0.000 C 
BRANCH  10  11
ATOM     11  C   UNL     1      45.550   3.176   7.938  0.00  0.00    +0.000 A 
ATOM     12  C   UNL     1      46.507   3.533   6.988  0.00  0.00    +0.000 A 
ATOM     13  C   UNL     1      47.434   2.584   6.569  0.00  0.00    +0.000 A 
ATOM     14  C   UNL     1      47.395   1.310   7.116  0.00  0.00    +0.000 A 
ATOM     15  C   UNL     1      46.428   1.039   8.070  0.00  0.00    +0.000 A 
ATOM     16  N   UNL     1      45.513   1.938   8.497  0.00  0.00    +0.000 NA
ENDBRANCH  10  11
ENDBRANCH   9  10
ENDBRANCH   8   9
ENDBRANCH   5   8
ENDBRANCH   1   2
BRANCH   1  19
ATOM     17  O   UNL     1      49.578   4.706  16.743  0.00  0.00    +0.000 OA
ATOM     18  C   UNL     1      48.650   5.503  16.639  0.00  0.00    +0.000 C 
ATOM     19  N   UNL     1      47.516   5.219  15.925  0.00  0.00    +0.000 N 
ATOM     20  H   UNL     1      46.881   5.973  15.688  0.00  0.00    +0.000 HD
BRANCH  18  21
ATOM     21  C   UNL     1      48.673   6.804  17.319  0.00  0.00    +0.000 A 
ATOM     22  C   UNL     1      48.743   6.864  18.704  0.00  0.00    +0.000 A 
ATOM     23  S   UNL     1      48.724   8.456  19.319  0.00  0.00    +0.000 S 
ATOM     24  C   UNL     1      48.670   9.121  17.753  0.00  0.00    +0.000 A 
ATOM     25  N   UNL     1      48.658  10.468  17.562  0.00  0.00    +0.000 NA
ATOM     26  C   UNL     1      48.654  10.830  16.322  0.00  0.00    +0.000 A 
ATOM     27  N   UNL     1      48.656   9.969  15.256  0.00  0.00    +0.000 N 
ATOM     28  C   UNL     1      48.633   8.602  15.400  0.00  0.00    +0.000 A 
ATOM     29  O   UNL     1      48.582   7.864  14.425  0.00  0.00    +0.000 OA
ATOM     30  C   UNL     1      48.652   8.142  16.776  0.00  0.00    +0.000 A 
ATOM     31  H   UNL     1      48.641  10.315  14.308  0.00  0.00    +0.000 HD
ENDBRANCH  18  21
ENDBRANCH   1  19
TORSDOF 7
ENDMDL
MODEL 6
REMARK VINA RESULT:    -7.256      1.653      2.148
REMARK INTER + INTRA:         -11.248
REMARK INTER:                 -10.253
REMARK INTRA:                  -0.994
REMARK UNBOUND:                -1.022
REMARK  Name = 
REMARK  7 active torsions:
REMARK  status: ('A' for Active; 'I' for Inactive)
REMARK    1  A    between atoms: C_2  and  C_20
REMARK    2  A    between atoms: N_3  and  C_4
REMARK    3  A    between atoms: C_4  and  C_5
REMARK    4  A    between atoms: C_8  and  C_9
REMARK    5  A    between atoms: C_9  and  O_10
REMARK    6  A    between atoms: O_10  and  C_11
REMARK    7  A    between atoms: C_11  and  C_12
REMARK                            x       y       z     vdW  Elec       q    Type
REMARK                         _______ _______ _______ _____ _____    ______ ____
ROOT
ATOM      1  C   UNL     1      47.652   4.366  15.017  0.00  0.00    +0.000 C 
ENDROOT
BRANCH   1   2
ATOM      2  C   UNL     1      46.650   4.463  13.896  0.00  0.00    +0.000 A 
ATOM      3  C   UNL     1      46.122   5.705  13.519  0.00  0.00    +0.000 A 
ATOM      4  C   UNL     1      45.180   5.795  12.489  0.00  0.00    +0.000 A 
ATOM      5  C   UNL     1      44.738   4.645  11.823  0.00  0.00    +0.000 A 
ATOM      6  C   UNL     1      45.246   3.401  12.218  0.00  0.00    +0.000 A 
ATOM      7  C   UNL     1      46.189   3.309  13.247  0.00  0.00    +0.000 A 
BRANCH   5   8
ATOM      8  C   UNL     1      43.724   4.750  10.712  0.00  0.00    +0.000 C 
BRANCH   8   9
ATOM      9  O   UNL     1      44.057   3.799   9.705  0.00  0.00    +0.000 OA
BRANCH   9  10
ATOM     10  C   UNL     1      44.956   4.340   8.735  0.00  0.00    +0.000 C 
BRANCH  10  11
ATOM     11  C   UNL     1      45.795   3.243   8.115  0.00  0.00    +0.000 A 
ATOM     12  C   UNL     1      46.730   3.537   7.122  0.00  0.00    +0.000 A 
ATOM     13  C   UNL     1      47.490   2.508   6.578  0.00  0.00    +0.000 A 
ATOM     14  C   UNL     1      47.312   1.213   7.046  0.00  0.00    +0.000 A 
ATOM     15  C   UNL     1      46.379   1.004   8.049  0.00  0.00    +0.000 A 
ATOM     16  N   UNL     1      45.625   1.984   8.596  0.00  0.00    +0.000 NA
ENDBRANCH  10  11
ENDBRANCH   9  10
ENDBRANCH   8   9
ENDBRANCH   5   8
ENDBRANCH   1   2
BRANCH   1  19
ATOM     17  O   UNL     1      49.835   5.885  15.868  0.00  0.00    +0.000 OA
ATOM     18  C   UNL     1      48.706   6.255  16.175  0.00  0.00    +0.000 C 
ATOM     19  N   UNL     1      47.586   5.532  15.860  0.00  0.00    +0.000 N 
ATOM     20  H   UNL     1      46.676   5.973  15.939  0.00  0.00    +0.000 HD
BRANCH  18  21
ATOM     21  C   UNL     1      48.483   7.483  16.949  0.00  0.00    +0.000 A 
ATOM     22  C   UNL     1      48.601   8.722  16.336  0.00  0.00    +0.000 A 
ATOM     23  S   UNL     1      48.343  10.034  17.397  0.00  0.00    +0.000 S 
ATOM     24  C   UNL     1      48.017   8.989  18.701  0.00  0.00    +0.000 A 
ATOM     25  N   UNL     1      47.693   9.478  19.928  0.00  0.00    +0.000 NA
ATOM     26  C   UNL     1      47.435   8.571  20.812  0.00  0.00    +0.000 A 
ATOM     27  N   UNL     1      47.478   7.221  20.582  0.00  0.00    +0.000 N 
ATOM     28  C   UNL     1      47.834   6.681  19.369  0.00  0.00    +0.000 A 
ATOM     29  O   UNL     1      47.912   5.469  19.214  0.00  0.00    +0.000 OA
ATOM     30  C   UNL     1      48.119   7.659  18.335  0.00  0.00    +0.000 A 
ATOM     31  H   UNL     1      47.277   6.561  21.318  0.00  0.00    +0.000 HD
ENDBRANCH  18  21
ENDBRANCH   1  19
TORSDOF 7
ENDMDL
MODEL 7
REMARK VINA RESULT:    -7.105      2.416      3.298
REMARK INTER + INTRA:         -11.035
REMARK INTER:                 -10.037
REMARK INTRA:                  -0.998
REMARK UNBOUND:                -1.022
REMARK  Name = 
REMARK  7 active torsions:
REMARK  status: ('A' for Active; 'I' for Inactive)
REMARK    1  A    between atoms: C_2  and  C_20
REMARK    2  A    between atoms: N_3  and  C_4
REMARK    3  A    between atoms: C_4  and  C_5
REMARK    4  A    between atoms: C_8  and  C_9
REMARK    5  A    between atoms: C_9  and  O_10
REMARK    6  A    between atoms: O_10  and  C_11
REMARK    7  A    between atoms: C_11  and  C_12
REMARK                            x       y       z     vdW  Elec       q    Type
REMARK                         _______ _______ _______ _____ _____    ______ ____
ROOT
ATOM      1  C   UNL     1      47.155   8.271  13.391  0.00  0.00    +0.000 C 
ENDROOT
BRANCH   1   2
ATOM      2  C   UNL     1      46.334   7.143  12.821  0.00  0.00    +0.000 A 
ATOM      3  C   UNL     1      46.615   5.815  13.165  0.00  0.00    +0.000 A 
ATOM      4  C   UNL     1      45.864   4.766  12.625  0.00  0.00    +0.000 A 
ATOM      5  C   UNL     1      44.825   5.022  11.721  0.00  0.00    +0.000 A 
ATOM      6  C   UNL     1      44.562   6.349  11.357  0.00  0.00    +0.000 A 
ATOM      7  C   UNL     1      45.312   7.399  11.897  0.00  0.00    +0.000 A 
BRANCH   5   8
ATOM      8  C   UNL     1      44.018   3.887  11.145  0.00  0.00    +0.000 C 
BRANCH   8   9
ATOM      9  O   UNL     1      44.916   2.904  10.639  0.00  0.00    +0.000 OA
BRANCH   9  10
ATOM     10  C   UNL     1      44.439   2.316   9.428  0.00  0.00    +0.000 C 
BRANCH  10  11
ATOM     11  C   UNL     1      45.533   2.282   8.382  0.00  0.00    +0.000 A 
ATOM     12  C   UNL     1      45.798   3.401   7.592  0.00  0.00    +0.000 A 
ATOM     13  C   UNL     1      46.816   3.339   6.646  0.00  0.00    +0.000 A 
ATOM     14  C   UNL     1      47.554   2.171   6.520  0.00  0.00    +0.000 A 
ATOM     15  C   UNL     1      47.245   1.110   7.355  0.00  0.00    +0.000 A 
ATOM     16  N   UNL     1      46.261   1.140   8.283  0.00  0.00    +0.000 NA
ENDBRANCH  10  11
ENDBRANCH   9  10
ENDBRANCH   8   9
ENDBRANCH   5   8
ENDBRANCH   1   2
BRANCH   1  19
ATOM     17  O   UNL     1      47.954   9.123  15.927  0.00  0.00    +0.000 OA
ATOM     18  C   UNL     1      48.557   8.191  15.403  0.00  0.00    +0.000 C 
ATOM     19  N   UNL     1      48.277   7.757  14.134  0.00  0.00    +0.000 N 
ATOM     20  H   UNL     1      48.642   6.863  13.827  0.00  0.00    +0.000 HD
BRANCH  18  21
ATOM     21  C   UNL     1      49.660   7.506  16.088  0.00  0.00    +0.000 A 
ATOM     22  C   UNL     1      49.425   6.821  17.272  0.00  0.00    +0.000 A 
ATOM     23  S   UNL     1      50.828   6.118  17.943  0.00  0.00    +0.000 S 
ATOM     24  C   UNL     1      51.790   6.666  16.650  0.00  0.00    +0.000 A 
ATOM     25  N   UNL     1      53.119   6.381  16.594  0.00  0.00    +0.000 NA
ATOM     26  C   UNL     1      53.715   6.828  15.538  0.00  0.00    +0.000 A 
ATOM     27  N   UNL     1      53.105   7.537  14.537  0.00  0.00    +0.000 N 
ATOM     28  C   UNL     1      51.774   7.878  14.568  0.00  0.00    +0.000 A 
ATOM     29  O   UNL     1      51.274   8.559  13.681  0.00  0.00    +0.000 OA
ATOM     30  C   UNL     1      51.053   7.387  15.727  0.00  0.00    +0.000 A 
ATOM     31  H   UNL     1      53.629   7.870  13.742  0.00  0.00    +0.000 HD
ENDBRANCH  18  21
ENDBRANCH   1  19
TORSDOF 7
ENDMDL
MODEL 8
REMARK VINA RESULT:    -7.093      3.374      8.437
REMARK INTER + INTRA:         -11.017
REMARK INTER:                  -9.595
REMARK INTRA:                  -1.423
REMARK UNBOUND:                -1.022
REMARK  Name = 
REMARK  7 active torsions:
REMARK  status: ('A' for Active; 'I' for Inactive)
REMARK    1  A    between atoms: C_2  and  C_20
REMARK    2  A    between atoms: N_3  and  C_4
REMARK    3  A    between atoms: C_4  and  C_5
REMARK    4  A    between atoms: C_8  and  C_9
REMARK    5  A    between atoms: C_9  and  O_10
REMARK    6  A    between atoms: O_10  and  C_11
REMARK    7  A    between atoms: C_11  and  C_12
REMARK                            x       y       z     vdW  Elec       q    Type
REMARK                         _______ _______ _______ _____ _____    ______ ____
ROOT
ATOM      1  C   UNL     1      48.256   8.104  12.162  0.00  0.00    +0.000 C 
ENDROOT
BRANCH   1   2
ATOM      2  C   UNL     1      48.408   8.023  13.659  0.00  0.00    +0.000 A 
ATOM      3  C   UNL     1      48.167   9.148  14.459  0.00  0.00    +0.000 A 
ATOM      4  C   UNL     1      48.322   9.079  15.848  0.00  0.00    +0.000 A 
ATOM      5  C   UNL     1      48.731   7.889  16.463  0.00  0.00    +0.000 A 
ATOM      6  C   UNL     1      48.997   6.773  15.659  0.00  0.00    +0.000 A 
ATOM      7  C   UNL     1      48.842   6.840  14.271  0.00  0.00    +0.000 A 
BRANCH   5   8
ATOM      8  C   UNL     1      48.894   7.822  17.961  0.00  0.00    +0.000 C 
BRANCH   8   9
ATOM      9  O   UNL     1      47.700   7.284  18.521  0.00  0.00    +0.000 OA
BRANCH   9  10
ATOM     10  C   UNL     1      47.959   6.136  19.331  0.00  0.00    +0.000 C 
BRANCH  10  11
ATOM     11  C   UNL     1      48.125   4.901  18.472  0.00  0.00    +0.000 A 
ATOM     12  C   UNL     1      49.342   4.221  18.429  0.00  0.00    +0.000 A 
ATOM     13  C   UNL     1      49.458   3.085  17.634  0.00  0.00    +0.000 A 
ATOM     14  C   UNL     1      48.356   2.646  16.915  0.00  0.00    +0.000 A 
ATOM     15  C   UNL     1      47.176   3.363  17.026  0.00  0.00    +0.000 A 
ATOM     16  N   UNL     1      47.033   4.471  17.788  0.00  0.00    +0.000 NA
ENDBRANCH  10  11
ENDBRANCH   9  10
ENDBRANCH   8   9
ENDBRANCH   5   8
ENDBRANCH   1   2
BRANCH   1  19
ATOM     17  O   UNL     1      45.499   7.935  11.753  0.00  0.00    +0.000 OA
ATOM     18  C   UNL     1      46.201   6.981  11.429  0.00  0.00    +0.000 C 
ATOM     19  N   UNL     1      47.552   6.953  11.660  0.00  0.00    +0.000 N 
ATOM     20  H   UNL     1      48.117   6.255  11.190  0.00  0.00    +0.000 HD
BRANCH  18  21
ATOM     21  C   UNL     1      45.628   5.779  10.812  0.00  0.00    +0.000 A 
ATOM     22  C   UNL     1      45.854   5.510   9.469  0.00  0.00    +0.000 A 
ATOM     23  S   UNL     1      45.082   4.092   8.918  0.00  0.00    +0.000 S 
ATOM     24  C   UNL     1      44.458   3.761  10.468  0.00  0.00    +0.000 A 
ATOM     25  N   UNL     1      43.706   2.652  10.700  0.00  0.00    +0.000 NA
ATOM     26  C   UNL     1      43.332   2.510  11.928  0.00  0.00    +0.000 A 
ATOM     27  N   UNL     1      43.637   3.377  12.944  0.00  0.00    +0.000 N 
ATOM     28  C   UNL     1      44.364   4.528  12.750  0.00  0.00    +0.000 A 
ATOM     29  O   UNL     1      44.573   5.307  13.671  0.00  0.00    +0.000 OA
ATOM     30  C   UNL     1      44.822   4.728  11.388  0.00  0.00    +0.000 A 
ATOM     31  H   UNL     1      43.304   3.216  13.883  0.00  0.00    +0.000 HD
ENDBRANCH  18  21
ENDBRANCH   1  19
TORSDOF 7
ENDMDL
MODEL 9
REMARK VINA RESULT:    -6.983      2.855      8.908
REMARK INTER + INTRA:         -10.862
REMARK INTER:                  -9.466
REMARK INTRA:                  -1.396
REMARK UNBOUND:                -1.022
REMARK  Name = 
REMARK  7 active torsions:
REMARK  status: ('A' for Active; 'I' for Inactive)
REMARK    1  A    between atoms: C_2  and  C_20
REMARK    2  A    between atoms: N_3  and  C_4
REMARK    3  A    between atoms: C_4  and  C_5
REMARK    4  A    between atoms: C_8  and  C_9
REMARK    5  A    between atoms: C_9  and  O_10
REMARK    6  A    between atoms: O_10  and  C_11
REMARK    7  A    between atoms: C_11  and  C_12
REMARK                            x       y       z     vdW  Elec       q    Type
REMARK                         _______ _______ _______ _____ _____    ______ ____
ROOT
ATOM      1  C   UNL     1      47.478   7.739  11.961  0.00  0.00    +0.000 C 
ENDROOT
BRANCH   1   2
ATOM      2  C   UNL     1      48.025   7.848  13.360  0.00  0.00    +0.000 A 
ATOM      3  C   UNL     1      47.693   8.942  14.170  0.00  0.00    +0.000 A 
ATOM      4  C   UNL     1      48.212   9.053  15.464  0.00  0.00    +0.000 A 
ATOM      5  C   UNL     1      49.081   8.079  15.971  0.00  0.00    +0.000 A 
ATOM      6  C   UNL     1      49.433   6.998  15.152  0.00  0.00    +0.000 A 
ATOM      7  C   UNL     1      48.914   6.885  13.858  0.00  0.00    +0.000 A 
BRANCH   5   8
ATOM      8  C   UNL     1      49.634   8.203  17.369  0.00  0.00    +0.000 C 
BRANCH   8   9
ATOM      9  O   UNL     1      48.743   7.551  18.268  0.00  0.00    +0.000 OA
BRANCH   9  10
ATOM     10  C   UNL     1      49.345   6.412  18.886  0.00  0.00    +0.000 C 
BRANCH  10  11
ATOM     11  C   UNL     1      48.907   5.137  18.198  0.00  0.00    +0.000 A 
ATOM     12  C   UNL     1      49.815   4.103  17.971  0.00  0.00    +0.000 A 
ATOM     13  C   UNL     1      49.378   2.941  17.343  0.00  0.00    +0.000 A 
ATOM     14  C   UNL     1      48.046   2.832  16.970  0.00  0.00    +0.000 A 
ATOM     15  C   UNL     1      47.201   3.893  17.249  0.00  0.00    +0.000 A 
ATOM     16  N   UNL     1      47.596   5.035  17.856  0.00  0.00    +0.000 NA
ENDBRANCH  10  11
ENDBRANCH   9  10
ENDBRANCH   8   9
ENDBRANCH   5   8
ENDBRANCH   1   2
BRANCH   1  19
ATOM     17  O   UNL     1      44.706   7.405  12.007  0.00  0.00    +0.000 OA
ATOM     18  C   UNL     1      45.412   6.432  11.757  0.00  0.00    +0.000 C 
ATOM     19  N   UNL     1      46.781   6.491  11.784  0.00  0.00    +0.000 N 
ATOM     20  H   UNL     1      47.315   5.738  11.366  0.00  0.00    +0.000 HD
BRANCH  18  21
ATOM     21  C   UNL     1      44.831   5.117  11.457  0.00  0.00    +0.000 A 
ATOM     22  C   UNL     1      44.045   4.472  12.402  0.00  0.00    +0.000 A 
ATOM     23  S   UNL     1      43.487   2.941  11.894  0.00  0.00    +0.000 S 
ATOM     24  C   UNL     1      44.236   3.109  10.375  0.00  0.00    +0.000 A 
ATOM     25  N   UNL     1      44.129   2.138   9.428  0.00  0.00    +0.000 NA
ATOM     26  C   UNL     1      44.717   2.416   8.312  0.00  0.00    +0.000 A 
ATOM     27  N   UNL     1      45.405   3.572   8.057  0.00  0.00    +0.000 N 
ATOM     28  C   UNL     1      45.570   4.565   8.994  0.00  0.00    +0.000 A 
ATOM     29  O   UNL     1      46.236   5.562   8.749  0.00  0.00    +0.000 OA
ATOM     30  C   UNL     1      44.915   4.309  10.263  0.00  0.00    +0.000 A 
ATOM     31  H   UNL     1      45.854   3.725   7.167  0.00  0.00    +0.000 HD
ENDBRANCH  18  21
ENDBRANCH   1  19
TORSDOF 7
ENDMDL
