MODEL 1
REMARK VINA RESULT:    -7.634      0.000      0.000
REMARK INTER + INTRA:         -11.490
REMARK INTER:                 -10.758
REMARK INTRA:                  -0.732
REMARK UNBOUND:                -0.732
REMARK  Name = 
REMARK  9 active torsions:
REMARK  status: ('A' for Active; 'I' for Inactive)
REMARK    1  A    between atoms: C_1  and  O_2
REMARK    2  A    between atoms: O_2  and  C_3
REMARK    3  A    between atoms: C_10  and  C_11
REMARK    4  A    between atoms: N_13  and  C_14
REMARK    5  A    between atoms: C_14  and  C_15
REMARK    6  A    between atoms: C_18  and  O_19
REMARK    7  A    between atoms: O_19  and  C_20
REMARK    8  A    between atoms: C_20  and  C_21
REMARK    9  A    between atoms: C_25  and  C_26
REMARK                            x       y       z     vdW  Elec       q    Type
REMARK                         _______ _______ _______ _____ _____    ______ ____
ROOT
ATOM      1  C   UNL     1      46.223   8.149  12.813  0.00  0.00    +0.000 A 
ATOM      2  C   UNL     1      46.109   6.820  13.241  0.00  0.00    +0.000 A 
ATOM      3  C   UNL     1      45.075   5.995  12.778  0.00  0.00    +0.000 A 
ATOM      4  C   UNL     1      44.187   6.451  11.808  0.00  0.00    +0.000 A 
ATOM      5  C   UNL     1      44.369   7.734  11.286  0.00  0.00    +0.000 A 
ATOM      6  C   UNL     1      45.366   8.584  11.795  0.00  0.00    +0.000 A 
ENDROOT
BRANCH   1   7
ATOM      7  C   UNL     1      47.215   9.080  13.469  0.00  0.00    +0.000 C 
BRANCH   7  10
ATOM      8  C   UNL     1      48.685   8.133  15.233  0.00  0.00    +0.000 C 
ATOM      9  O   UNL     1      49.577   7.863  14.442  0.00  0.00    +0.000 OA
ATOM     10  N   UNL     1      47.505   8.716  14.835  0.00  0.00    +0.000 N 
ATOM     11  H   UNL     1      46.805   8.921  15.524  0.00  0.00    +0.000 HD
BRANCH   8  19
ATOM     12  C   UNL     1      48.513   5.228  17.087  0.00  0.00    +0.000 A 
ATOM     13  N   UNL     1      48.535   4.256  18.019  0.00  0.00    +0.000 NA
ATOM     14  C   UNL     1      48.761   4.603  19.283  0.00  0.00    +0.000 A 
ATOM     15  N   UNL     1      48.973   5.833  19.746  0.00  0.00    +0.000 NA
ATOM     16  C   UNL     1      48.955   6.772  18.783  0.00  0.00    +0.000 A 
ATOM     17  S   UNL     1      49.207   8.400  19.187  0.00  0.00    +0.000 S 
ATOM     18  C   UNL     1      49.050   8.884  17.563  0.00  0.00    +0.000 A 
ATOM     19  C   UNL     1      48.818   7.831  16.682  0.00  0.00    +0.000 A 
ATOM     20  C   UNL     1      48.745   6.572  17.423  0.00  0.00    +0.000 A 
BRANCH  12  22
ATOM     21  C   UNL     1      47.182   3.988  15.648  0.00  0.00    +0.000 C 
ATOM     22  O   UNL     1      48.307   4.851  15.779  0.00  0.00    +0.000 OA
ENDBRANCH  12  22
ENDBRANCH   8  19
ENDBRANCH   7  10
ENDBRANCH   1   7
BRANCH   4  23
ATOM     23  O   UNL     1      43.145   5.729  11.283  0.00  0.00    +0.000 OA
BRANCH  23  24
ATOM     24  C   UNL     1      43.500   4.769  10.281  0.00  0.00    +0.000 C 
BRANCH  24  25
ATOM     25  C   UNL     1      44.995   4.406  10.392  0.00  0.00    +0.000 C 
ATOM     26  C   UNL     1      45.758   4.828   9.120  0.00  0.00    +0.000 C 
ATOM     27  C   UNL     1      45.419   3.939   7.921  0.00  0.00    +0.000 C 
ATOM     28  N   UNL     1      45.659   2.537   8.252  0.00  0.00    +0.000 N 
ATOM     29  C   UNL     1      46.541   1.672   7.625  0.00  0.00    +0.000 C 
ATOM     30  C   UNL     1      47.386   2.152   6.469  0.00  0.00    +0.000 C 
ATOM     31  O   UNL     1      46.669   0.499   7.985  0.00  0.00    +0.000 OA
ATOM     32  C   UNL     1      44.904   2.050   9.410  0.00  0.00    +0.000 C 
ATOM     33  C   UNL     1      45.206   2.900  10.647  0.00  0.00    +0.000 C 
ENDBRANCH  24  25
ENDBRANCH  23  24
ENDBRANCH   4  23
TORSDOF 7
ENDMDL
MODEL 2
REMARK VINA RESULT:    -7.457      1.435      1.812
REMARK INTER + INTRA:         -11.241
REMARK INTER:                  -9.991
REMARK INTRA:                  -1.250
REMARK UNBOUND:                -0.732
REMARK  Name = 
REMARK  9 active torsions:
REMARK  status: ('A' for Active; 'I' for Inactive)
REMARK    1  A    between atoms: C_1  and  O_2
REMARK    2  A    between atoms: O_2  and  C_3
REMARK    3  A    between atoms: C_10  and  C_11
REMARK    4  A    between atoms: N_13  and  C_14
REMARK    5  A    between atoms: C_14  and  C_15
REMARK    6  A    between atoms: C_18  and  O_19
REMARK    7  A    between atoms: O_19  and  C_20
REMARK    8  A    between atoms: C_20  and  C_21
REMARK    9  A    between atoms: C_25  and  C_26
REMARK                            x       y       z     vdW  Elec       q    Type
REMARK                         _______ _______ _______ _____ _____    ______ ____
ROOT
ATOM      1  C   UNL     1      47.218   7.009  13.310  0.00  0.00    +0.000 A 
ATOM      2  C   UNL     1      47.344   5.646  13.610  0.00  0.00    +0.000 A 
ATOM      3  C   UNL     1      46.364   4.723  13.219  0.00  0.00    +0.000 A 
ATOM      4  C   UNL     1      45.283   5.128  12.441  0.00  0.00    +0.000 A 
ATOM      5  C   UNL     1      45.214   6.462  12.033  0.00  0.00    +0.000 A 
ATOM      6  C   UNL     1      46.162   7.400  12.478  0.00  0.00    +0.000 A 
ENDROOT
BRANCH   1   7
ATOM      7  C   UNL     1      48.174   8.014  13.908  0.00  0.00    +0.000 C 
BRANCH   7  10
ATOM      8  C   UNL     1      49.559   7.313  15.846  0.00  0.00    +0.000 C 
ATOM      9  O   UNL     1      50.506   6.992  15.142  0.00  0.00    +0.000 OA
ATOM     10  N   UNL     1      48.390   7.808  15.320  0.00  0.00    +0.000 N 
ATOM     11  H   UNL     1      47.644   8.061  15.941  0.00  0.00    +0.000 HD
BRANCH   8  19
ATOM     12  C   UNL     1      48.655   4.805  18.036  0.00  0.00    +0.000 A 
ATOM     13  N   UNL     1      48.430   3.984  19.080  0.00  0.00    +0.000 NA
ATOM     14  C   UNL     1      48.738   4.420  20.298  0.00  0.00    +0.000 A 
ATOM     15  N   UNL     1      49.257   5.604  20.613  0.00  0.00    +0.000 NA
ATOM     16  C   UNL     1      49.478   6.387  19.542  0.00  0.00    +0.000 A 
ATOM     17  S   UNL     1      50.137   7.937  19.752  0.00  0.00    +0.000 S 
ATOM     18  C   UNL     1      50.107   8.235  18.076  0.00  0.00    +0.000 A 
ATOM     19  C   UNL     1      49.613   7.173  17.324  0.00  0.00    +0.000 A 
ATOM     20  C   UNL     1      49.222   6.078  18.211  0.00  0.00    +0.000 A 
BRANCH  12  22
ATOM     21  C   UNL     1      48.255   2.909  16.759  0.00  0.00    +0.000 C 
ATOM     22  O   UNL     1      48.358   4.330  16.778  0.00  0.00    +0.000 OA
ENDBRANCH  12  22
ENDBRANCH   8  19
ENDBRANCH   7  10
ENDBRANCH   1   7
BRANCH   4  23
ATOM     23  O   UNL     1      44.272   4.310  12.001  0.00  0.00    +0.000 OA
BRANCH  23  24
ATOM     24  C   UNL     1      44.690   3.124  11.317  0.00  0.00    +0.000 C 
BRANCH  24  25
ATOM     25  C   UNL     1      44.050   3.059   9.915  0.00  0.00    +0.000 C 
ATOM     26  C   UNL     1      44.545   1.819   9.142  0.00  0.00    +0.000 C 
ATOM     27  C   UNL     1      46.002   1.960   8.697  0.00  0.00    +0.000 C 
ATOM     28  N   UNL     1      46.172   3.182   7.917  0.00  0.00    +0.000 N 
ATOM     29  C   UNL     1      46.598   3.280   6.602  0.00  0.00    +0.000 C 
ATOM     30  C   UNL     1      46.940   2.035   5.818  0.00  0.00    +0.000 C 
ATOM     31  O   UNL     1      46.707   4.369   6.032  0.00  0.00    +0.000 OA
ATOM     32  C   UNL     1      45.789   4.409   8.621  0.00  0.00    +0.000 C 
ATOM     33  C   UNL     1      44.335   4.330   9.090  0.00  0.00    +0.000 C 
ENDBRANCH  24  25
ENDBRANCH  23  24
ENDBRANCH   4  23
TORSDOF 7
ENDMDL
MODEL 3
REMARK VINA RESULT:    -7.310      1.906      2.193
REMARK INTER + INTRA:         -11.033
REMARK INTER:                  -9.596
REMARK INTRA:                  -1.437
REMARK UNBOUND:                -0.732
REMARK  Name = 
REMARK  9 active torsions:
REMARK  status: ('A' for Active; 'I' for Inactive)
REMARK    1  A    between atoms: C_1  and  O_2
REMARK    2  A    between atoms: O_2  and  C_3
REMARK    3  A    between atoms: C_10  and  C_11
REMARK    4  A    between atoms: N_13  and  C_14
REMARK    5  A    between atoms: C_14  and  C_15
REMARK    6  A    between atoms: C_18  and  O_19
REMARK    7  A    between atoms: O_19  and  C_20
REMARK    8  A    between atoms: C_20  and  C_21
REMARK    9  A    between atoms: C_25  and  C_26
REMARK                            x       y       z     vdW  Elec       q    Type
REMARK                         _______ _______ _______ _____ _____    ______ ____
ROOT
ATOM      1  C   UNL     1      46.770   7.296  13.191  0.00  0.00    +0.000 A 
ATOM      2  C   UNL     1      47.128   5.942  13.158  0.00  0.00    +0.000 A 
ATOM      3  C   UNL     1      46.225   4.962  12.722  0.00  0.00    +0.000 A 
ATOM      4  C   UNL     1      44.977   5.324  12.223  0.00  0.00    +0.000 A 
ATOM      5  C   UNL     1      44.659   6.681  12.137  0.00  0.00    +0.000 A 
ATOM      6  C   UNL     1      45.538   7.659  12.633  0.00  0.00    +0.000 A 
ENDROOT
BRANCH   1   7
ATOM      7  C   UNL     1      47.676   8.310  13.848  0.00  0.00    +0.000 C 
BRANCH   7  10
ATOM      8  C   UNL     1      49.245   8.208  15.771  0.00  0.00    +0.000 C 
ATOM      9  O   UNL     1      48.812   9.238  16.268  0.00  0.00    +0.000 OA
ATOM     10  N   UNL     1      48.750   7.700  14.593  0.00  0.00    +0.000 N 
ATOM     11  H   UNL     1      49.137   6.848  14.229  0.00  0.00    +0.000 HD
BRANCH   8  19
ATOM     12  C   UNL     1      49.593   4.936  16.812  0.00  0.00    +0.000 A 
ATOM     13  N   UNL     1      49.995   3.730  17.255  0.00  0.00    +0.000 NA
ATOM     14  C   UNL     1      51.230   3.618  17.735  0.00  0.00    +0.000 A 
ATOM     15  N   UNL     1      52.139   4.586  17.830  0.00  0.00    +0.000 NA
ATOM     16  C   UNL     1      51.702   5.770  17.366  0.00  0.00    +0.000 A 
ATOM     17  S   UNL     1      52.726   7.122  17.406  0.00  0.00    +0.000 S 
ATOM     18  C   UNL     1      51.536   8.113  16.701  0.00  0.00    +0.000 A 
ATOM     19  C   UNL     1      50.349   7.446  16.409  0.00  0.00    +0.000 A 
ATOM     20  C   UNL     1      50.451   6.048  16.826  0.00  0.00    +0.000 A 
BRANCH  12  22
ATOM     21  C   UNL     1      47.676   3.763  16.235  0.00  0.00    +0.000 C 
ATOM     22  O   UNL     1      48.321   5.031  16.291  0.00  0.00    +0.000 OA
ENDBRANCH  12  22
ENDBRANCH   8  19
ENDBRANCH   7  10
ENDBRANCH   1   7
BRANCH   4  23
ATOM     23  O   UNL     1      44.021   4.451  11.768  0.00  0.00    +0.000 OA
BRANCH  23  24
ATOM     24  C   UNL     1      44.517   3.235  11.197  0.00  0.00    +0.000 C 
BRANCH  24  25
ATOM     25  C   UNL     1      43.973   3.052   9.765  0.00  0.00    +0.000 C 
ATOM     26  C   UNL     1      44.581   1.799   9.103  0.00  0.00    +0.000 C 
ATOM     27  C   UNL     1      46.054   1.995   8.740  0.00  0.00    +0.000 C 
ATOM     28  N   UNL     1      46.211   3.177   7.898  0.00  0.00    +0.000 N 
ATOM     29  C   UNL     1      46.716   3.222   6.609  0.00  0.00    +0.000 C 
ATOM     30  C   UNL     1      47.172   1.954   5.925  0.00  0.00    +0.000 C 
ATOM     31  O   UNL     1      46.806   4.280   5.980  0.00  0.00    +0.000 OA
ATOM     32  C   UNL     1      45.721   4.420   8.501  0.00  0.00    +0.000 C 
ATOM     33  C   UNL     1      44.245   4.288   8.884  0.00  0.00    +0.000 C 
ENDBRANCH  24  25
ENDBRANCH  23  24
ENDBRANCH   4  23
TORSDOF 7
ENDMDL
MODEL 4
REMARK VINA RESULT:    -6.983      2.320      2.905
REMARK INTER + INTRA:         -10.573
REMARK INTER:                  -9.183
REMARK INTRA:                  -1.389
REMARK UNBOUND:                -0.732
REMARK  Name = 
REMARK  9 active torsions:
REMARK  status: ('A' for Active; 'I' for Inactive)
REMARK    1  A    between atoms: C_1  and  O_2
REMARK    2  A    between atoms: O_2  and  C_3
REMARK    3  A    between atoms: C_10  and  C_11
REMARK    4  A    between atoms: N_13  and  C_14
REMARK    5  A    between atoms: C_14  and  C_15
REMARK    6  A    between atoms: C_18  and  O_19
REMARK    7  A    between atoms: O_19  and  C_20
REMARK    8  A    between atoms: C_20  and  C_21
REMARK    9  A    between atoms: C_25  and  C_26
REMARK                            x       y       z     vdW  Elec       q    Type
REMARK                         _______ _______ _______ _____ _____    ______ ____
ROOT
ATOM      1  C   UNL     1      48.224   7.613  13.070  0.00  0.00    +0.000 A 
ATOM      2  C   UNL     1      47.230   8.595  12.974  0.00  0.00    +0.000 A 
ATOM      3  C   UNL     1      45.875   8.249  12.881  0.00  0.00    +0.000 A 
ATOM      4  C   UNL     1      45.477   6.919  12.975  0.00  0.00    +0.000 A 
ATOM      5  C   UNL     1      46.452   5.944  13.195  0.00  0.00    +0.000 A 
ATOM      6  C   UNL     1      47.815   6.282  13.224  0.00  0.00    +0.000 A 
ENDROOT
BRANCH   1   7
ATOM      7  C   UNL     1      49.683   7.990  12.967  0.00  0.00    +0.000 C 
BRANCH   7  10
ATOM      8  C   UNL     1      50.690   7.976  15.237  0.00  0.00    +0.000 C 
ATOM      9  O   UNL     1      50.206   9.059  15.534  0.00  0.00    +0.000 OA
ATOM     10  N   UNL     1      50.488   7.397  14.007  0.00  0.00    +0.000 N 
ATOM     11  H   UNL     1      50.905   6.504  13.814  0.00  0.00    +0.000 HD
BRANCH   8  19
ATOM     12  C   UNL     1      50.290   5.017  16.968  0.00  0.00    +0.000 A 
ATOM     13  N   UNL     1      50.402   3.899  17.709  0.00  0.00    +0.000 NA
ATOM     14  C   UNL     1      51.523   3.713  18.400  0.00  0.00    +0.000 A 
ATOM     15  N   UNL     1      52.576   4.527  18.445  0.00  0.00    +0.000 NA
ATOM     16  C   UNL     1      52.428   5.625  17.682  0.00  0.00    +0.000 A 
ATOM     17  S   UNL     1      53.671   6.779  17.615  0.00  0.00    +0.000 S 
ATOM     18  C   UNL     1      52.785   7.750  16.534  0.00  0.00    +0.000 A 
ATOM     19  C   UNL     1      51.543   7.222  16.192  0.00  0.00    +0.000 A 
ATOM     20  C   UNL     1      51.330   5.959  16.897  0.00  0.00    +0.000 A 
BRANCH  12  22
ATOM     21  C   UNL     1      47.973   5.104  17.054  0.00  0.00    +0.000 C 
ATOM     22  O   UNL     1      49.136   5.182  16.235  0.00  0.00    +0.000 OA
ENDBRANCH  12  22
ENDBRANCH   8  19
ENDBRANCH   7  10
ENDBRANCH   1   7
BRANCH   4  23
ATOM     23  O   UNL     1      44.181   6.471  12.901  0.00  0.00    +0.000 OA
BRANCH  23  24
ATOM     24  C   UNL     1      43.997   5.071  13.141  0.00  0.00    +0.000 C 
BRANCH  24  25
ATOM     25  C   UNL     1      43.184   4.433  11.996  0.00  0.00    +0.000 C 
ATOM     26  C   UNL     1      43.593   2.960  11.787  0.00  0.00    +0.000 C 
ATOM     27  C   UNL     1      44.980   2.831  11.152  0.00  0.00    +0.000 C 
ATOM     28  N   UNL     1      45.032   3.586   9.903  0.00  0.00    +0.000 N 
ATOM     29  C   UNL     1      45.286   3.085   8.636  0.00  0.00    +0.000 C 
ATOM     30  C   UNL     1      45.542   1.610   8.438  0.00  0.00    +0.000 C 
ATOM     31  O   UNL     1      45.307   3.814   7.641  0.00  0.00    +0.000 OA
ATOM     32  C   UNL     1      44.726   5.013  10.044  0.00  0.00    +0.000 C 
ATOM     33  C   UNL     1      43.344   5.208  10.672  0.00  0.00    +0.000 C 
ENDBRANCH  24  25
ENDBRANCH  23  24
ENDBRANCH   4  23
TORSDOF 7
ENDMDL
MODEL 5
REMARK VINA RESULT:    -6.477      2.232      2.879
REMARK INTER + INTRA:          -9.859
REMARK INTER:                  -9.416
REMARK INTRA:                  -0.443
REMARK UNBOUND:                -0.732
REMARK  Name = 
REMARK  9 active torsions:
REMARK  status: ('A' for Active; 'I' for Inactive)
REMARK    1  A    between atoms: C_1  and  O_2
REMARK    2  A    between atoms: O_2  and  C_3
REMARK    3  A    between atoms: C_10  and  C_11
REMARK    4  A    between atoms: N_13  and  C_14
REMARK    5  A    between atoms: C_14  and  C_15
REMARK    6  A    between atoms: C_18  and  O_19
REMARK    7  A    between atoms: O_19  and  C_20
REMARK    8  A    between atoms: C_20  and  C_21
REMARK    9  A    between atoms: C_25  and  C_26
REMARK                            x       y       z     vdW  Elec       q    Type
REMARK                         _______ _______ _______ _____ _____    ______ ____
ROOT
ATOM      1  C   UNL     1      46.580   8.229  12.922  0.00  0.00    +0.000 A 
ATOM      2  C   UNL     1      46.320   6.904  13.296  0.00  0.00    +0.000 A 
ATOM      3  C   UNL     1      45.199   6.219  12.807  0.00  0.00    +0.000 A 
ATOM      4  C   UNL     1      44.365   6.812  11.862  0.00  0.00    +0.000 A 
ATOM      5  C   UNL     1      44.688   8.086  11.392  0.00  0.00    +0.000 A 
ATOM      6  C   UNL     1      45.775   8.798  11.928  0.00  0.00    +0.000 A 
ENDROOT
BRANCH   1   7
ATOM      7  C   UNL     1      47.672   9.015  13.608  0.00  0.00    +0.000 C 
BRANCH   7  10
ATOM      8  C   UNL     1      48.694   8.157  15.703  0.00  0.00    +0.000 C 
ATOM      9  O   UNL     1      48.006   8.874  16.415  0.00  0.00    +0.000 OA
ATOM     10  N   UNL     1      48.596   8.176  14.332  0.00  0.00    +0.000 N 
ATOM     11  H   UNL     1      49.181   7.564  13.792  0.00  0.00    +0.000 HD
BRANCH   8  19
ATOM     12  C   UNL     1      52.077   7.689  15.211  0.00  0.00    +0.000 A 
ATOM     13  N   UNL     1      53.377   7.336  15.237  0.00  0.00    +0.000 NA
ATOM     14  C   UNL     1      53.745   6.361  16.064  0.00  0.00    +0.000 A 
ATOM     15  N   UNL     1      52.958   5.676  16.890  0.00  0.00    +0.000 NA
ATOM     16  C   UNL     1      51.672   6.068  16.841  0.00  0.00    +0.000 A 
ATOM     17  S   UNL     1      50.520   5.305  17.827  0.00  0.00    +0.000 S 
ATOM     18  C   UNL     1      49.271   6.294  17.226  0.00  0.00    +0.000 A 
ATOM     19  C   UNL     1      49.696   7.225  16.281  0.00  0.00    +0.000 A 
ATOM     20  C   UNL     1      51.131   7.071  16.045  0.00  0.00    +0.000 A 
BRANCH  12  22
ATOM     21  C   UNL     1      51.902   9.991  14.983  0.00  0.00    +0.000 C 
ATOM     22  O   UNL     1      51.715   8.718  14.371  0.00  0.00    +0.000 OA
ENDBRANCH  12  22
ENDBRANCH   8  19
ENDBRANCH   7  10
ENDBRANCH   1   7
BRANCH   4  23
ATOM     23  O   UNL     1      43.247   6.232  11.316  0.00  0.00    +0.000 OA
BRANCH  23  24
ATOM     24  C   UNL     1      43.472   5.017  10.592  0.00  0.00    +0.000 C 
BRANCH  24  25
ATOM     25  C   UNL     1      44.970   4.650  10.610  0.00  0.00    +0.000 C 
ATOM     26  C   UNL     1      45.650   5.050   9.285  0.00  0.00    +0.000 C 
ATOM     27  C   UNL     1      45.230   4.144   8.125  0.00  0.00    +0.000 C 
ATOM     28  N   UNL     1      45.488   2.747   8.461  0.00  0.00    +0.000 N 
ATOM     29  C   UNL     1      46.325   1.869   7.791  0.00  0.00    +0.000 C 
ATOM     30  C   UNL     1      47.095   2.328   6.576  0.00  0.00    +0.000 C 
ATOM     31  O   UNL     1      46.474   0.701   8.161  0.00  0.00    +0.000 OA
ATOM     32  C   UNL     1      44.809   2.280   9.674  0.00  0.00    +0.000 C 
ATOM     33  C   UNL     1      45.193   3.148  10.874  0.00  0.00    +0.000 C 
ENDBRANCH  24  25
ENDBRANCH  23  24
ENDBRANCH   4  23
TORSDOF 7
ENDMDL
MODEL 6
REMARK VINA RESULT:    -6.466      2.645      8.525
REMARK INTER + INTRA:          -9.844
REMARK INTER:                  -8.674
REMARK INTRA:                  -1.170
REMARK UNBOUND:                -0.732
REMARK  Name = 
REMARK  9 active torsions:
REMARK  status: ('A' for Active; 'I' for Inactive)
REMARK    1  A    between atoms: C_1  and  O_2
REMARK    2  A    between atoms: O_2  and  C_3
REMARK    3  A    between atoms: C_10  and  C_11
REMARK    4  A    between atoms: N_13  and  C_14
REMARK    5  A    between atoms: C_14  and  C_15
REMARK    6  A    between atoms: C_18  and  O_19
REMARK    7  A    between atoms: O_19  and  C_20
REMARK    8  A    between atoms: C_20  and  C_21
REMARK    9  A    between atoms: C_25  and  C_26
REMARK                            x       y       z     vdW  Elec       q    Type
REMARK                         _______ _______ _______ _____ _____    ______ ____
ROOT
ATOM      1  C   UNL     1      48.663   8.319  12.888  0.00  0.00    +0.000 A 
ATOM      2  C   UNL     1      47.899   8.950  13.878  0.00  0.00    +0.000 A 
ATOM      3  C   UNL     1      48.399   9.131  15.175  0.00  0.00    +0.000 A 
ATOM      4  C   UNL     1      49.707   8.768  15.486  0.00  0.00    +0.000 A 
ATOM      5  C   UNL     1      50.515   8.251  14.471  0.00  0.00    +0.000 A 
ATOM      6  C   UNL     1      49.995   8.010  13.188  0.00  0.00    +0.000 A 
ENDROOT
BRANCH   1   7
ATOM      7  C   UNL     1      48.041   7.952  11.561  0.00  0.00    +0.000 C 
BRANCH   7  10
ATOM      8  C   UNL     1      45.772   6.942  11.569  0.00  0.00    +0.000 C 
ATOM      9  O   UNL     1      45.216   8.021  11.418  0.00  0.00    +0.000 OA
ATOM     10  N   UNL     1      47.139   6.830  11.658  0.00  0.00    +0.000 N 
ATOM     11  H   UNL     1      47.547   5.921  11.779  0.00  0.00    +0.000 HD
BRANCH   8  19
ATOM     12  C   UNL     1      45.266   4.257   9.462  0.00  0.00    +0.000 A 
ATOM     13  N   UNL     1      44.946   3.095   8.862  0.00  0.00    +0.000 NA
ATOM     14  C   UNL     1      44.169   2.241   9.521  0.00  0.00    +0.000 A 
ATOM     15  N   UNL     1      43.656   2.406  10.739  0.00  0.00    +0.000 NA
ATOM     16  C   UNL     1      44.009   3.573  11.307  0.00  0.00    +0.000 A 
ATOM     17  S   UNL     1      43.449   3.958  12.862  0.00  0.00    +0.000 S 
ATOM     18  C   UNL     1      44.273   5.447  12.850  0.00  0.00    +0.000 A 
ATOM     19  C   UNL     1      44.996   5.681  11.683  0.00  0.00    +0.000 A 
ATOM     20  C   UNL     1      44.819   4.562  10.758  0.00  0.00    +0.000 A 
BRANCH  12  22
ATOM     21  C   UNL     1      46.656   4.508   7.622  0.00  0.00    +0.000 C 
ATOM     22  O   UNL     1      46.095   5.119   8.779  0.00  0.00    +0.000 OA
ENDBRANCH  12  22
ENDBRANCH   8  19
ENDBRANCH   7  10
ENDBRANCH   1   7
BRANCH   4  23
ATOM     23  O   UNL     1      50.296   8.904  16.717  0.00  0.00    +0.000 OA
BRANCH  23  24
ATOM     24  C   UNL     1      49.495   8.501  17.834  0.00  0.00    +0.000 C 
BRANCH  24  25
ATOM     25  C   UNL     1      50.225   7.420  18.657  0.00  0.00    +0.000 C 
ATOM     26  C   UNL     1      50.985   6.446  17.733  0.00  0.00    +0.000 C 
ATOM     27  C   UNL     1      50.038   5.519  16.968  0.00  0.00    +0.000 C 
ATOM     28  N   UNL     1      49.170   4.807  17.901  0.00  0.00    +0.000 N 
ATOM     29  C   UNL     1      49.082   3.435  18.077  0.00  0.00    +0.000 C 
ATOM     30  C   UNL     1      49.945   2.505  17.258  0.00  0.00    +0.000 C 
ATOM     31  O   UNL     1      48.311   2.932  18.899  0.00  0.00    +0.000 OA
ATOM     32  C   UNL     1      48.361   5.676  18.761  0.00  0.00    +0.000 C 
ATOM     33  C   UNL     1      49.256   6.629  19.558  0.00  0.00    +0.000 C 
ENDBRANCH  24  25
ENDBRANCH  23  24
ENDBRANCH   4  23
TORSDOF 7
ENDMDL
MODEL 7
REMARK VINA RESULT:    -6.260      3.446      7.843
REMARK INTER + INTRA:          -9.554
REMARK INTER:                  -8.487
REMARK INTRA:                  -1.067
REMARK UNBOUND:                -0.732
REMARK  Name = 
REMARK  9 active torsions:
REMARK  status: ('A' for Active; 'I' for Inactive)
REMARK    1  A    between atoms: C_1  and  O_2
REMARK    2  A    between atoms: O_2  and  C_3
REMARK    3  A    between atoms: C_10  and  C_11
REMARK    4  A    between atoms: N_13  and  C_14
REMARK    5  A    between atoms: C_14  and  C_15
REMARK    6  A    between atoms: C_18  and  O_19
REMARK    7  A    between atoms: O_19  and  C_20
REMARK    8  A    between atoms: C_20  and  C_21
REMARK    9  A    between atoms: C_25  and  C_26
REMARK                            x       y       z     vdW  Elec       q    Type
REMARK                         _______ _______ _______ _____ _____    ______ ____
ROOT
ATOM      1  C   UNL     1      49.002   9.054  14.273  0.00  0.00    +0.000 A 
ATOM      2  C   UNL     1      48.198   9.402  15.366  0.00  0.00    +0.000 A 
ATOM      3  C   UNL     1      48.529   9.001  16.667  0.00  0.00    +0.000 A 
ATOM      4  C   UNL     1      49.719   8.322  16.917  0.00  0.00    +0.000 A 
ATOM      5  C   UNL     1      50.586   8.079  15.849  0.00  0.00    +0.000 A 
ATOM      6  C   UNL     1      50.225   8.424  14.535  0.00  0.00    +0.000 A 
ENDROOT
BRANCH   1   7
ATOM      7  C   UNL     1      48.531   9.318  12.862  0.00  0.00    +0.000 C 
BRANCH   7  10
ATOM      8  C   UNL     1      47.121   7.388  12.189  0.00  0.00    +0.000 C 
ATOM      9  O   UNL     1      48.083   6.646  12.047  0.00  0.00    +0.000 OA
ATOM     10  N   UNL     1      47.259   8.700  12.573  0.00  0.00    +0.000 N 
ATOM     11  H   UNL     1      46.437   9.267  12.679  0.00  0.00    +0.000 HD
BRANCH   8  19
ATOM     12  C   UNL     1      45.488   4.398  12.737  0.00  0.00    +0.000 A 
ATOM     13  N   UNL     1      44.625   3.374  12.878  0.00  0.00    +0.000 NA
ATOM     14  C   UNL     1      43.371   3.550  12.470  0.00  0.00    +0.000 A 
ATOM     15  N   UNL     1      42.857   4.650  11.924  0.00  0.00    +0.000 NA
ATOM     16  C   UNL     1      43.750   5.651  11.811  0.00  0.00    +0.000 A 
ATOM     17  S   UNL     1      43.273   7.133  11.136  0.00  0.00    +0.000 S 
ATOM     18  C   UNL     1      44.829   7.790  11.345  0.00  0.00    +0.000 A 
ATOM     19  C   UNL     1      45.735   6.914  11.938  0.00  0.00    +0.000 A 
ATOM     20  C   UNL     1      45.085   5.630  12.198  0.00  0.00    +0.000 A 
BRANCH  12  22
ATOM     21  C   UNL     1      46.905   4.547  14.568  0.00  0.00    +0.000 C 
ATOM     22  O   UNL     1      46.775   4.211  13.190  0.00  0.00    +0.000 OA
ENDBRANCH  12  22
ENDBRANCH   8  19
ENDBRANCH   7  10
ENDBRANCH   1   7
BRANCH   4  23
ATOM     23  O   UNL     1      50.141   7.888  18.148  0.00  0.00    +0.000 OA
BRANCH  23  24
ATOM     24  C   UNL     1      49.110   7.696  19.123  0.00  0.00    +0.000 C 
BRANCH  24  25
ATOM     25  C   UNL     1      49.206   6.285  19.737  0.00  0.00    +0.000 C 
ATOM     26  C   UNL     1      50.156   5.391  18.913  0.00  0.00    +0.000 C 
ATOM     27  C   UNL     1      49.547   4.989  17.567  0.00  0.00    +0.000 C 
ATOM     28  N   UNL     1      48.251   4.349  17.774  0.00  0.00    +0.000 N 
ATOM     29  C   UNL     1      47.890   3.061  17.415  0.00  0.00    +0.000 C 
ATOM     30  C   UNL     1      48.887   2.152  16.736  0.00  0.00    +0.000 C 
ATOM     31  O   UNL     1      46.762   2.614  17.638  0.00  0.00    +0.000 OA
ATOM     32  C   UNL     1      47.274   5.176  18.489  0.00  0.00    +0.000 C 
ATOM     33  C   UNL     1      47.825   5.608  19.849  0.00  0.00    +0.000 C 
ENDBRANCH  24  25
ENDBRANCH  23  24
ENDBRANCH   4  23
TORSDOF 7
ENDMDL
MODEL 8
REMARK VINA RESULT:    -6.099      5.466      7.196
REMARK INTER + INTRA:          -9.327
REMARK INTER:                  -8.054
REMARK INTRA:                  -1.273
REMARK UNBOUND:                -0.732
REMARK  Name = 
REMARK  9 active torsions:
REMARK  status: ('A' for Active; 'I' for Inactive)
REMARK    1  A    between atoms: C_1  and  O_2
REMARK    2  A    between atoms: O_2  and  C_3
REMARK    3  A    between atoms: C_10  and  C_11
REMARK    4  A    between atoms: N_13  and  C_14
REMARK    5  A    between atoms: C_14  and  C_15
REMARK    6  A    between atoms: C_18  and  O_19
REMARK    7  A    between atoms: O_19  and  C_20
REMARK    8  A    between atoms: C_20  and  C_21
REMARK    9  A    between atoms: C_25  and  C_26
REMARK                            x       y       z     vdW  Elec       q    Type
REMARK                         _______ _______ _______ _____ _____    ______ ____
ROOT
ATOM      1  C   UNL     1      49.386  10.066  11.811  0.00  0.00    +0.000 A 
ATOM      2  C   UNL     1      50.266   9.228  12.507  0.00  0.00    +0.000 A 
ATOM      3  C   UNL     1      51.599   9.077  12.100  0.00  0.00    +0.000 A 
ATOM      4  C   UNL     1      52.105   9.831  11.045  0.00  0.00    +0.000 A 
ATOM      5  C   UNL     1      51.267  10.760  10.425  0.00  0.00    +0.000 A 
ATOM      6  C   UNL     1      49.914  10.865  10.790  0.00  0.00    +0.000 A 
ENDROOT
BRANCH   1   7
ATOM      7  C   UNL     1      47.911  10.064  12.136  0.00  0.00    +0.000 C 
BRANCH   7  10
ATOM      8  C   UNL     1      46.028   8.473  12.442  0.00  0.00    +0.000 C 
ATOM      9  O   UNL     1      45.257   9.349  12.808  0.00  0.00    +0.000 OA
ATOM     10  N   UNL     1      47.334   8.741  12.108  0.00  0.00    +0.000 N 
ATOM     11  H   UNL     1      47.926   7.987  11.810  0.00  0.00    +0.000 HD
BRANCH   8  19
ATOM     12  C   UNL     1      47.307   5.513  13.671  0.00  0.00    +0.000 A 
ATOM     13  N   UNL     1      47.567   4.250  14.059  0.00  0.00    +0.000 NA
ATOM     14  C   UNL     1      46.731   3.290  13.672  0.00  0.00    +0.000 A 
ATOM     15  N   UNL     1      45.639   3.438  12.926  0.00  0.00    +0.000 NA
ATOM     16  C   UNL     1      45.409   4.715  12.571  0.00  0.00    +0.000 A 
ATOM     17  S   UNL     1      44.058   5.095  11.617  0.00  0.00    +0.000 S 
ATOM     18  C   UNL     1      44.452   6.751  11.622  0.00  0.00    +0.000 A 
ATOM     19  C   UNL     1      45.599   7.054  12.351  0.00  0.00    +0.000 A 
ATOM     20  C   UNL     1      46.175   5.827  12.901  0.00  0.00    +0.000 A 
BRANCH  12  22
ATOM     21  C   UNL     1      48.522   6.330  15.471  0.00  0.00    +0.000 C 
ATOM     22  O   UNL     1      48.164   6.500  14.103  0.00  0.00    +0.000 OA
ENDBRANCH  12  22
ENDBRANCH   8  19
ENDBRANCH   7  10
ENDBRANCH   1   7
BRANCH   4  23
ATOM     23  O   UNL     1      53.391   9.766  10.569  0.00  0.00    +0.000 OA
BRANCH  23  24
ATOM     24  C   UNL     1      53.836   8.465  10.168  0.00  0.00    +0.000 C 
BRANCH  24  25
ATOM     25  C   UNL     1      52.765   7.775   9.299  0.00  0.00    +0.000 C 
ATOM     26  C   UNL     1      52.796   6.246   9.500  0.00  0.00    +0.000 C 
ATOM     27  C   UNL     1      54.028   5.604   8.856  0.00  0.00    +0.000 C 
ATOM     28  N   UNL     1      54.099   5.962   7.443  0.00  0.00    +0.000 N 
ATOM     29  C   UNL     1      54.074   5.096   6.361  0.00  0.00    +0.000 C 
ATOM     30  C   UNL     1      53.958   3.606   6.581  0.00  0.00    +0.000 C 
ATOM     31  O   UNL     1      54.139   5.504   5.199  0.00  0.00    +0.000 OA
ATOM     32  C   UNL     1      54.147   7.404   7.184  0.00  0.00    +0.000 C 
ATOM     33  C   UNL     1      52.935   8.104   7.803  0.00  0.00    +0.000 C 
ENDBRANCH  24  25
ENDBRANCH  23  24
ENDBRANCH   4  23
TORSDOF 7
ENDMDL
MODEL 9
REMARK VINA RESULT:    -5.433      3.680      9.292
REMARK INTER + INTRA:          -8.388
REMARK INTER:                  -7.563
REMARK INTRA:                  -0.825
REMARK UNBOUND:                -0.732
REMARK  Name = 
REMARK  9 active torsions:
REMARK  status: ('A' for Active; 'I' for Inactive)
REMARK    1  A    between atoms: C_1  and  O_2
REMARK    2  A    between atoms: O_2  and  C_3
REMARK    3  A    between atoms: C_10  and  C_11
REMARK    4  A    between atoms: N_13  and  C_14
REMARK    5  A    between atoms: C_14  and  C_15
REMARK    6  A    between atoms: C_18  and  O_19
REMARK    7  A    between atoms: O_19  and  C_20
REMARK    8  A    between atoms: C_20  and  C_21
REMARK    9  A    between atoms: C_25  and  C_26
REMARK                            x       y       z     vdW  Elec       q    Type
REMARK                         _______ _______ _______ _____ _____    ______ ____
ROOT
ATOM      1  C   UNL     1      48.559   7.669  13.487  0.00  0.00    +0.000 A 
ATOM      2  C   UNL     1      47.914   6.893  14.460  0.00  0.00    +0.000 A 
ATOM      3  C   UNL     1      48.617   6.373  15.556  0.00  0.00    +0.000 A 
ATOM      4  C   UNL     1      49.957   6.693  15.752  0.00  0.00    +0.000 A 
ATOM      5  C   UNL     1      50.574   7.566  14.854  0.00  0.00    +0.000 A 
ATOM      6  C   UNL     1      49.889   8.037  13.721  0.00  0.00    +0.000 A 
ENDROOT
BRANCH   1   7
ATOM      7  C   UNL     1      47.839   8.051  12.215  0.00  0.00    +0.000 C 
BRANCH   7  10
ATOM      8  C   UNL     1      45.984   6.764  11.181  0.00  0.00    +0.000 C 
ATOM      9  O   UNL     1      45.142   7.597  11.488  0.00  0.00    +0.000 OA
ATOM     10  N   UNL     1      47.311   6.910  11.507  0.00  0.00    +0.000 N 
ATOM     11  H   UNL     1      47.963   6.199  11.229  0.00  0.00    +0.000 HD
BRANCH   8  19
ATOM     12  C   UNL     1      44.224   3.919  12.028  0.00  0.00    +0.000 A 
ATOM     13  N   UNL     1      43.556   2.752  12.087  0.00  0.00    +0.000 NA
ATOM     14  C   UNL     1      43.525   1.990  10.997  0.00  0.00    +0.000 A 
ATOM     15  N   UNL     1      44.094   2.255   9.823  0.00  0.00    +0.000 NA
ATOM     16  C   UNL     1      44.740   3.435   9.803  0.00  0.00    +0.000 A 
ATOM     17  S   UNL     1      45.527   3.942   8.387  0.00  0.00    +0.000 S 
ATOM     18  C   UNL     1      46.036   5.390   9.124  0.00  0.00    +0.000 A 
ATOM     19  C   UNL     1      45.615   5.528  10.444  0.00  0.00    +0.000 A 
ATOM     20  C   UNL     1      44.854   4.346  10.848  0.00  0.00    +0.000 A 
BRANCH  12  22
ATOM     21  C   UNL     1      43.023   5.469  13.268  0.00  0.00    +0.000 C 
ATOM     22  O   UNL     1      44.223   4.711  13.155  0.00  0.00    +0.000 OA
ENDBRANCH  12  22
ENDBRANCH   8  19
ENDBRANCH   7  10
ENDBRANCH   1   7
BRANCH   4  23
ATOM     23  O   UNL     1      50.736   6.245  16.789  0.00  0.00    +0.000 OA
BRANCH  23  24
ATOM     24  C   UNL     1      50.098   6.208  18.071  0.00  0.00    +0.000 C 
BRANCH  24  25
ATOM     25  C   UNL     1      50.126   4.777  18.645  0.00  0.00    +0.000 C 
ATOM     26  C   UNL     1      50.673   4.774  20.087  0.00  0.00    +0.000 C 
ATOM     27  C   UNL     1      52.179   5.045  20.134  0.00  0.00    +0.000 C 
ATOM     28  N   UNL     1      52.887   4.088  19.289  0.00  0.00    +0.000 N 
ATOM     29  C   UNL     1      53.850   3.175  19.689  0.00  0.00    +0.000 C 
ATOM     30  C   UNL     1      54.265   3.092  21.139  0.00  0.00    +0.000 C 
ATOM     31  O   UNL     1      54.389   2.405  18.890  0.00  0.00    +0.000 OA
ATOM     32  C   UNL     1      52.466   4.091  17.885  0.00  0.00    +0.000 C 
ATOM     33  C   UNL     1      50.964   3.821  17.771  0.00  0.00    +0.000 C 
ENDBRANCH  24  25
ENDBRANCH  23  24
ENDBRANCH   4  23
TORSDOF 7
ENDMDL
