MODEL 1
REMARK VINA RESULT:    -8.592      0.000      0.000
REMARK INTER + INTRA:         -12.644
REMARK INTER:                 -11.605
REMARK INTRA:                  -1.039
REMARK UNBOUND:                -1.039
REMARK  Name = 
REMARK  7 active torsions:
REMARK  status: ('A' for Active; 'I' for Inactive)
REMARK    1  A    between atoms: C_1  and  C_2
REMARK    2  A    between atoms: C_2  and  C_3
REMARK    3  A    between atoms: C_2  and  C_15
REMARK    4  A    between atoms: C_3  and  N_4
REMARK    5  A    between atoms: N_4  and  C_5
REMARK    6  A    between atoms: C_8  and  C_9
REMARK    7  A    between atoms: C_19  and  C_20
REMARK                            x       y       z     vdW  Elec       q    Type
REMARK                         _______ _______ _______ _____ _____    ______ ____
ROOT
ATOM      1  N   UNL     1      43.754   4.825  10.066  0.00  0.00    +0.000 N 
ATOM      2  H   UNL     1      43.051   5.267   9.470  0.00  0.00    +0.000 HD
ENDROOT
BRANCH   1   3
ATOM      3  C   UNL     1      44.604   4.015   9.289  0.00  0.00    +0.000 A 
ATOM      4  C   UNL     1      45.530   4.558   8.393  0.00  0.00    +0.000 A 
ATOM      5  C   UNL     1      46.398   3.743   7.661  0.00  0.00    +0.000 A 
ATOM      6  C   UNL     1      46.387   2.357   7.837  0.00  0.00    +0.000 A 
ATOM      7  C   UNL     1      45.504   1.800   8.768  0.00  0.00    +0.000 A 
ATOM      8  C   UNL     1      44.639   2.625   9.487  0.00  0.00    +0.000 A 
ATOM      9  F   UNL     1      43.800   2.063  10.373  0.00  0.00    +0.000 F 
BRANCH   6  10
ATOM     10  C   UNL     1      47.289   1.448   7.078  0.00  0.00    +0.000 C 
ATOM     11  N   UNL     1      48.366   1.981   6.430  0.00  0.00    +0.000 N 
ATOM     12  O   UNL     1      47.076   0.242   7.024  0.00  0.00    +0.000 OA
ATOM     13  H   UNL     1      48.627   2.955   6.422  0.00  0.00    +0.000 HD
ATOM     14  H   UNL     1      48.960   1.336   5.926  0.00  0.00    +0.000 HD
ENDBRANCH   6  10
ENDBRANCH   1   3
BRANCH   1  15
ATOM     15  C   UNL     1      44.398   5.773  10.968  0.00  0.00    +0.000 C 
BRANCH  15  17
ATOM     16  C   UNL     1      43.429   4.337  12.863  0.00  0.00    +0.000 C 
ATOM     17  C   UNL     1      44.574   5.110  12.292  0.00  0.00    +0.000 C 
BRANCH  17  18
ATOM     18  C   UNL     1      45.745   5.422  13.117  0.00  0.00    +0.000 A 
ATOM     19  C   UNL     1      46.480   6.585  12.871  0.00  0.00    +0.000 A 
ATOM     20  C   UNL     1      47.616   6.880  13.621  0.00  0.00    +0.000 A 
ATOM     21  C   UNL     1      48.017   6.027  14.646  0.00  0.00    +0.000 A 
ATOM     22  C   UNL     1      47.283   4.868  14.933  0.00  0.00    +0.000 A 
ATOM     23  C   UNL     1      46.153   4.568  14.151  0.00  0.00    +0.000 A 
BRANCH  22  24
ATOM     24  C   UNL     1      47.674   3.959  16.072  0.00  0.00    +0.000 C 
ATOM     25  F   UNL     1      47.937   2.680  15.683  0.00  0.00    +0.000 F 
ATOM     26  F   UNL     1      48.794   4.389  16.717  0.00  0.00    +0.000 F 
ATOM     27  F   UNL     1      46.708   3.869  17.026  0.00  0.00    +0.000 F 
ENDBRANCH  22  24
ENDBRANCH  17  18
ENDBRANCH  15  17
ENDBRANCH   1  15
TORSDOF 6
ENDMDL
MODEL 2
REMARK VINA RESULT:    -8.337      2.341      2.925
REMARK INTER + INTRA:         -12.300
REMARK INTER:                 -11.120
REMARK INTRA:                  -1.180
REMARK UNBOUND:                -1.039
REMARK  Name = 
REMARK  7 active torsions:
REMARK  status: ('A' for Active; 'I' for Inactive)
REMARK    1  A    between atoms: C_1  and  C_2
REMARK    2  A    between atoms: C_2  and  C_3
REMARK    3  A    between atoms: C_2  and  C_15
REMARK    4  A    between atoms: C_3  and  N_4
REMARK    5  A    between atoms: N_4  and  C_5
REMARK    6  A    between atoms: C_8  and  C_9
REMARK    7  A    between atoms: C_19  and  C_20
REMARK                            x       y       z     vdW  Elec       q    Type
REMARK                         _______ _______ _______ _____ _____    ______ ____
ROOT
ATOM      1  N   UNL     1      43.583   4.666   9.995  0.00  0.00    +0.000 N 
ATOM      2  H   UNL     1      42.829   5.014   9.399  0.00  0.00    +0.000 HD
ENDROOT
BRANCH   1   3
ATOM      3  C   UNL     1      44.495   3.916   9.228  0.00  0.00    +0.000 A 
ATOM      4  C   UNL     1      45.404   4.523   8.356  0.00  0.00    +0.000 A 
ATOM      5  C   UNL     1      46.335   3.771   7.634  0.00  0.00    +0.000 A 
ATOM      6  C   UNL     1      46.403   2.385   7.796  0.00  0.00    +0.000 A 
ATOM      7  C   UNL     1      45.537   1.765   8.703  0.00  0.00    +0.000 A 
ATOM      8  C   UNL     1      44.609   2.529   9.413  0.00  0.00    +0.000 A 
ATOM      9  F   UNL     1      43.788   1.908  10.276  0.00  0.00    +0.000 F 
BRANCH   6  10
ATOM     10  C   UNL     1      47.373   1.539   7.047  0.00  0.00    +0.000 C 
ATOM     11  N   UNL     1      48.491   2.125   6.527  0.00  0.00    +0.000 N 
ATOM     12  O   UNL     1      47.180   0.338   6.891  0.00  0.00    +0.000 OA
ATOM     13  H   UNL     1      48.739   3.098   6.609  0.00  0.00    +0.000 HD
ATOM     14  H   UNL     1      49.130   1.522   6.026  0.00  0.00    +0.000 HD
ENDBRANCH   6  10
ENDBRANCH   1   3
BRANCH   1  15
ATOM     15  C   UNL     1      44.145   5.705  10.849  0.00  0.00    +0.000 C 
BRANCH  15  17
ATOM     16  C   UNL     1      43.687   4.165  12.852  0.00  0.00    +0.000 C 
ATOM     17  C   UNL     1      44.622   5.065  12.109  0.00  0.00    +0.000 C 
BRANCH  17  18
ATOM     18  C   UNL     1      45.876   5.507  12.727  0.00  0.00    +0.000 A 
ATOM     19  C   UNL     1      46.313   4.913  13.915  0.00  0.00    +0.000 A 
ATOM     20  C   UNL     1      47.483   5.343  14.536  0.00  0.00    +0.000 A 
ATOM     21  C   UNL     1      48.245   6.358  13.962  0.00  0.00    +0.000 A 
ATOM     22  C   UNL     1      47.845   6.952  12.757  0.00  0.00    +0.000 A 
ATOM     23  C   UNL     1      46.648   6.526  12.154  0.00  0.00    +0.000 A 
BRANCH  22  24
ATOM     24  C   UNL     1      48.684   8.017  12.096  0.00  0.00    +0.000 C 
ATOM     25  F   UNL     1      47.959   9.069  11.624  0.00  0.00    +0.000 F 
ATOM     26  F   UNL     1      49.605   8.552  12.945  0.00  0.00    +0.000 F 
ATOM     27  F   UNL     1      49.390   7.543  11.033  0.00  0.00    +0.000 F 
ENDBRANCH  22  24
ENDBRANCH  17  18
ENDBRANCH  15  17
ENDBRANCH   1  15
TORSDOF 6
ENDMDL
MODEL 3
REMARK VINA RESULT:    -8.121      1.273      1.758
REMARK INTER + INTRA:         -12.008
REMARK INTER:                 -10.934
REMARK INTRA:                  -1.074
REMARK UNBOUND:                -1.039
REMARK  Name = 
REMARK  7 active torsions:
REMARK  status: ('A' for Active; 'I' for Inactive)
REMARK    1  A    between atoms: C_1  and  C_2
REMARK    2  A    between atoms: C_2  and  C_3
REMARK    3  A    between atoms: C_2  and  C_15
REMARK    4  A    between atoms: C_3  and  N_4
REMARK    5  A    between atoms: N_4  and  C_5
REMARK    6  A    between atoms: C_8  and  C_9
REMARK    7  A    between atoms: C_19  and  C_20
REMARK                            x       y       z     vdW  Elec       q    Type
REMARK                         _______ _______ _______ _____ _____    ______ ____
ROOT
ATOM      1  N   UNL     1      43.972   4.824  10.217  0.00  0.00    +0.000 N 
ATOM      2  H   UNL     1      43.099   5.067   9.744  0.00  0.00    +0.000 HD
ENDROOT
BRANCH   1   3
ATOM      3  C   UNL     1      44.802   4.092   9.347  0.00  0.00    +0.000 A 
ATOM      4  C   UNL     1      45.719   4.717   8.496  0.00  0.00    +0.000 A 
ATOM      5  C   UNL     1      46.570   3.976   7.671  0.00  0.00    +0.000 A 
ATOM      6  C   UNL     1      46.549   2.580   7.703  0.00  0.00    +0.000 A 
ATOM      7  C   UNL     1      45.675   1.936   8.586  0.00  0.00    +0.000 A 
ATOM      8  C   UNL     1      44.828   2.689   9.401  0.00  0.00    +0.000 A 
ATOM      9  F   UNL     1      43.998   2.045  10.237  0.00  0.00    +0.000 F 
BRANCH   6  10
ATOM     10  C   UNL     1      47.431   1.747   6.841  0.00  0.00    +0.000 C 
ATOM     11  N   UNL     1      48.544   2.318   6.293  0.00  0.00    +0.000 N 
ATOM     12  O   UNL     1      47.171   0.570   6.615  0.00  0.00    +0.000 OA
ATOM     13  H   UNL     1      48.844   3.271   6.426  0.00  0.00    +0.000 HD
ATOM     14  H   UNL     1      49.123   1.724   5.714  0.00  0.00    +0.000 HD
ENDBRANCH   6  10
ENDBRANCH   1   3
BRANCH   1  15
ATOM     15  C   UNL     1      44.577   5.965  10.893  0.00  0.00    +0.000 C 
BRANCH  15  17
ATOM     16  C   UNL     1      44.812   4.404  12.918  0.00  0.00    +0.000 C 
ATOM     17  C   UNL     1      45.398   5.452  12.028  0.00  0.00    +0.000 C 
BRANCH  17  18
ATOM     18  C   UNL     1      46.638   6.138  12.404  0.00  0.00    +0.000 A 
ATOM     19  C   UNL     1      47.322   6.906  11.458  0.00  0.00    +0.000 A 
ATOM     20  C   UNL     1      48.520   7.537  11.786  0.00  0.00    +0.000 A 
ATOM     21  C   UNL     1      49.035   7.428  13.076  0.00  0.00    +0.000 A 
ATOM     22  C   UNL     1      48.355   6.688  14.052  0.00  0.00    +0.000 A 
ATOM     23  C   UNL     1      47.160   6.034  13.700  0.00  0.00    +0.000 A 
BRANCH  22  24
ATOM     24  C   UNL     1      48.874   6.600  15.466  0.00  0.00    +0.000 C 
ATOM     25  F   UNL     1      50.233   6.599  15.551  0.00  0.00    +0.000 F 
ATOM     26  F   UNL     1      48.454   7.642  16.237  0.00  0.00    +0.000 F 
ATOM     27  F   UNL     1      48.458   5.473  16.107  0.00  0.00    +0.000 F 
ENDBRANCH  22  24
ENDBRANCH  17  18
ENDBRANCH  15  17
ENDBRANCH   1  15
TORSDOF 6
ENDMDL
MODEL 4
REMARK VINA RESULT:    -7.733      1.841      2.526
REMARK INTER + INTRA:         -11.484
REMARK INTER:                 -10.395
REMARK INTRA:                  -1.089
REMARK UNBOUND:                -1.039
REMARK  Name = 
REMARK  7 active torsions:
REMARK  status: ('A' for Active; 'I' for Inactive)
REMARK    1  A    between atoms: C_1  and  C_2
REMARK    2  A    between atoms: C_2  and  C_3
REMARK    3  A    between atoms: C_2  and  C_15
REMARK    4  A    between atoms: C_3  and  N_4
REMARK    5  A    between atoms: N_4  and  C_5
REMARK    6  A    between atoms: C_8  and  C_9
REMARK    7  A    between atoms: C_19  and  C_20
REMARK                            x       y       z     vdW  Elec       q    Type
REMARK                         _______ _______ _______ _____ _____    ______ ____
ROOT
ATOM      1  N   UNL     1      43.975   3.152  10.550  0.00  0.00    +0.000 N 
ATOM      2  H   UNL     1      43.230   3.779  10.237  0.00  0.00    +0.000 HD
ENDROOT
BRANCH   1   3
ATOM      3  C   UNL     1      44.885   2.924   9.500  0.00  0.00    +0.000 A 
ATOM      4  C   UNL     1      45.239   1.634   9.093  0.00  0.00    +0.000 A 
ATOM      5  C   UNL     1      46.108   1.421   8.019  0.00  0.00    +0.000 A 
ATOM      6  C   UNL     1      46.619   2.503   7.298  0.00  0.00    +0.000 A 
ATOM      7  C   UNL     1      46.235   3.799   7.656  0.00  0.00    +0.000 A 
ATOM      8  C   UNL     1      45.370   3.996   8.734  0.00  0.00    +0.000 A 
ATOM      9  F   UNL     1      45.020   5.251   9.057  0.00  0.00    +0.000 F 
BRANCH   6  10
ATOM     10  C   UNL     1      47.551   2.328   6.150  0.00  0.00    +0.000 C 
ATOM     11  N   UNL     1      47.534   3.252   5.144  0.00  0.00    +0.000 N 
ATOM     12  O   UNL     1      48.321   1.376   6.096  0.00  0.00    +0.000 OA
ATOM     13  H   UNL     1      46.945   4.068   5.103  0.00  0.00    +0.000 HD
ATOM     14  H   UNL     1      48.182   3.105   4.380  0.00  0.00    +0.000 HD
ENDBRANCH   6  10
ENDBRANCH   1   3
BRANCH   1  15
ATOM     15  C   UNL     1      44.541   3.556  11.831  0.00  0.00    +0.000 C 
BRANCH  15  17
ATOM     16  C   UNL     1      42.561   5.179  12.033  0.00  0.00    +0.000 C 
ATOM     17  C   UNL     1      44.028   4.918  12.159  0.00  0.00    +0.000 C 
BRANCH  17  18
ATOM     18  C   UNL     1      44.967   6.028  12.351  0.00  0.00    +0.000 A 
ATOM     19  C   UNL     1      44.727   7.256  11.728  0.00  0.00    +0.000 A 
ATOM     20  C   UNL     1      45.625   8.312  11.870  0.00  0.00    +0.000 A 
ATOM     21  C   UNL     1      46.763   8.159  12.659  0.00  0.00    +0.000 A 
ATOM     22  C   UNL     1      47.013   6.948  13.317  0.00  0.00    +0.000 A 
ATOM     23  C   UNL     1      46.112   5.881  13.144  0.00  0.00    +0.000 A 
BRANCH  22  24
ATOM     24  C   UNL     1      48.215   6.781  14.214  0.00  0.00    +0.000 C 
ATOM     25  F   UNL     1      49.395   6.709  13.539  0.00  0.00    +0.000 F 
ATOM     26  F   UNL     1      48.351   7.813  15.093  0.00  0.00    +0.000 F 
ATOM     27  F   UNL     1      48.148   5.653  14.973  0.00  0.00    +0.000 F 
ENDBRANCH  22  24
ENDBRANCH  17  18
ENDBRANCH  15  17
ENDBRANCH   1  15
TORSDOF 6
ENDMDL
MODEL 5
REMARK VINA RESULT:    -7.535      3.881      7.023
REMARK INTER + INTRA:         -11.217
REMARK INTER:                  -9.945
REMARK INTRA:                  -1.272
REMARK UNBOUND:                -1.039
REMARK  Name = 
REMARK  7 active torsions:
REMARK  status: ('A' for Active; 'I' for Inactive)
REMARK    1  A    between atoms: C_1  and  C_2
REMARK    2  A    between atoms: C_2  and  C_3
REMARK    3  A    between atoms: C_2  and  C_15
REMARK    4  A    between atoms: C_3  and  N_4
REMARK    5  A    between atoms: N_4  and  C_5
REMARK    6  A    between atoms: C_8  and  C_9
REMARK    7  A    between atoms: C_19  and  C_20
REMARK                            x       y       z     vdW  Elec       q    Type
REMARK                         _______ _______ _______ _____ _____    ______ ____
ROOT
ATOM      1  N   UNL     1      45.085   4.165  13.392  0.00  0.00    +0.000 N 
ATOM      2  H   UNL     1      45.152   3.900  14.377  0.00  0.00    +0.000 HD
ENDROOT
BRANCH   1   3
ATOM      3  C   UNL     1      45.720   5.404  13.183  0.00  0.00    +0.000 A 
ATOM      4  C   UNL     1      47.082   5.592  13.443  0.00  0.00    +0.000 A 
ATOM      5  C   UNL     1      47.710   6.814  13.188  0.00  0.00    +0.000 A 
ATOM      6  C   UNL     1      46.994   7.875  12.628  0.00  0.00    +0.000 A 
ATOM      7  C   UNL     1      45.644   7.689  12.312  0.00  0.00    +0.000 A 
ATOM      8  C   UNL     1      45.029   6.465  12.577  0.00  0.00    +0.000 A 
ATOM      9  F   UNL     1      43.731   6.315  12.265  0.00  0.00    +0.000 F 
BRANCH   6  10
ATOM     10  C   UNL     1      47.617   9.196  12.342  0.00  0.00    +0.000 C 
ATOM     11  N   UNL     1      47.139  10.301  12.987  0.00  0.00    +0.000 N 
ATOM     12  O   UNL     1      48.540   9.305  11.542  0.00  0.00    +0.000 OA
ATOM     13  H   UNL     1      46.393  10.312  13.664  0.00  0.00    +0.000 HD
ATOM     14  H   UNL     1      47.586  11.183  12.772  0.00  0.00    +0.000 HD
ENDBRANCH   6  10
ENDBRANCH   1   3
BRANCH   1  15
ATOM     15  C   UNL     1      45.458   3.078  12.495  0.00  0.00    +0.000 C 
BRANCH  15  17
ATOM     16  C   UNL     1      43.151   2.841  11.391  0.00  0.00    +0.000 C 
ATOM     17  C   UNL     1      44.605   3.169  11.274  0.00  0.00    +0.000 C 
BRANCH  17  18
ATOM     18  C   UNL     1      45.227   3.329   9.956  0.00  0.00    +0.000 A 
ATOM     19  C   UNL     1      45.311   4.598   9.376  0.00  0.00    +0.000 A 
ATOM     20  C   UNL     1      45.867   4.766   8.110  0.00  0.00    +0.000 A 
ATOM     21  C   UNL     1      46.370   3.667   7.418  0.00  0.00    +0.000 A 
ATOM     22  C   UNL     1      46.324   2.387   7.987  0.00  0.00    +0.000 A 
ATOM     23  C   UNL     1      45.737   2.228   9.256  0.00  0.00    +0.000 A 
BRANCH  22  24
ATOM     24  C   UNL     1      46.908   1.193   7.273  0.00  0.00    +0.000 C 
ATOM     25  F   UNL     1      46.497  -0.002   7.780  0.00  0.00    +0.000 F 
ATOM     26  F   UNL     1      46.580   1.170   5.951  0.00  0.00    +0.000 F 
ATOM     27  F   UNL     1      48.269   1.170   7.318  0.00  0.00    +0.000 F 
ENDBRANCH  22  24
ENDBRANCH  17  18
ENDBRANCH  15  17
ENDBRANCH   1  15
TORSDOF 6
ENDMDL
MODEL 6
REMARK VINA RESULT:    -7.141      3.619      7.172
REMARK INTER + INTRA:         -10.685
REMARK INTER:                 -10.094
REMARK INTRA:                  -0.591
REMARK UNBOUND:                -1.039
REMARK  Name = 
REMARK  7 active torsions:
REMARK  status: ('A' for Active; 'I' for Inactive)
REMARK    1  A    between atoms: C_1  and  C_2
REMARK    2  A    between atoms: C_2  and  C_3
REMARK    3  A    between atoms: C_2  and  C_15
REMARK    4  A    between atoms: C_3  and  N_4
REMARK    5  A    between atoms: N_4  and  C_5
REMARK    6  A    between atoms: C_8  and  C_9
REMARK    7  A    between atoms: C_19  and  C_20
REMARK                            x       y       z     vdW  Elec       q    Type
REMARK                         _______ _______ _______ _____ _____    ______ ____
ROOT
ATOM      1  N   UNL     1      46.234   5.971  11.297  0.00  0.00    +0.000 N 
ATOM      2  H   UNL     1      46.885   6.391  10.630  0.00  0.00    +0.000 HD
ENDROOT
BRANCH   1   3
ATOM      3  C   UNL     1      46.841   5.874  12.564  0.00  0.00    +0.000 A 
ATOM      4  C   UNL     1      47.573   6.929  13.119  0.00  0.00    +0.000 A 
ATOM      5  C   UNL     1      48.130   6.836  14.397  0.00  0.00    +0.000 A 
ATOM      6  C   UNL     1      47.937   5.690  15.172  0.00  0.00    +0.000 A 
ATOM      7  C   UNL     1      47.164   4.645  14.655  0.00  0.00    +0.000 A 
ATOM      8  C   UNL     1      46.617   4.750  13.376  0.00  0.00    +0.000 A 
ATOM      9  F   UNL     1      45.881   3.731  12.904  0.00  0.00    +0.000 F 
BRANCH   6  10
ATOM     10  C   UNL     1      48.515   5.541  16.536  0.00  0.00    +0.000 C 
ATOM     11  N   UNL     1      48.116   6.404  17.516  0.00  0.00    +0.000 N 
ATOM     12  O   UNL     1      49.336   4.666  16.786  0.00  0.00    +0.000 OA
ATOM     13  H   UNL     1      47.444   7.147  17.410  0.00  0.00    +0.000 HD
ATOM     14  H   UNL     1      48.526   6.274  18.432  0.00  0.00    +0.000 HD
ENDBRANCH   6  10
ENDBRANCH   1   3
BRANCH   1  15
ATOM     15  C   UNL     1      44.912   6.584  11.249  0.00  0.00    +0.000 C 
BRANCH  15  17
ATOM     16  C   UNL     1      42.568   5.578  11.543  0.00  0.00    +0.000 C 
ATOM     17  C   UNL     1      43.920   5.524  10.907  0.00  0.00    +0.000 C 
BRANCH  17  18
ATOM     18  C   UNL     1      44.347   4.331  10.170  0.00  0.00    +0.000 A 
ATOM     19  C   UNL     1      43.840   3.077  10.522  0.00  0.00    +0.000 A 
ATOM     20  C   UNL     1      44.260   1.928   9.857  0.00  0.00    +0.000 A 
ATOM     21  C   UNL     1      45.175   2.022   8.811  0.00  0.00    +0.000 A 
ATOM     22  C   UNL     1      45.679   3.270   8.418  0.00  0.00    +0.000 A 
ATOM     23  C   UNL     1      45.266   4.420   9.116  0.00  0.00    +0.000 A 
BRANCH  22  24
ATOM     24  C   UNL     1      46.632   3.396   7.256  0.00  0.00    +0.000 C 
ATOM     25  F   UNL     1      47.643   2.483   7.277  0.00  0.00    +0.000 F 
ATOM     26  F   UNL     1      46.009   3.234   6.055  0.00  0.00    +0.000 F 
ATOM     27  F   UNL     1      47.232   4.617   7.200  0.00  0.00    +0.000 F 
ENDBRANCH  22  24
ENDBRANCH  17  18
ENDBRANCH  15  17
ENDBRANCH   1  15
TORSDOF 6
ENDMDL
MODEL 7
REMARK VINA RESULT:    -7.093      3.591      7.032
REMARK INTER + INTRA:         -10.619
REMARK INTER:                  -9.657
REMARK INTRA:                  -0.962
REMARK UNBOUND:                -1.039
REMARK  Name = 
REMARK  7 active torsions:
REMARK  status: ('A' for Active; 'I' for Inactive)
REMARK    1  A    between atoms: C_1  and  C_2
REMARK    2  A    between atoms: C_2  and  C_3
REMARK    3  A    between atoms: C_2  and  C_15
REMARK    4  A    between atoms: C_3  and  N_4
REMARK    5  A    between atoms: N_4  and  C_5
REMARK    6  A    between atoms: C_8  and  C_9
REMARK    7  A    between atoms: C_19  and  C_20
REMARK                            x       y       z     vdW  Elec       q    Type
REMARK                         _______ _______ _______ _____ _____    ______ ____
ROOT
ATOM      1  N   UNL     1      45.376   4.036  13.015  0.00  0.00    +0.000 N 
ATOM      2  H   UNL     1      45.779   3.129  12.770  0.00  0.00    +0.000 HD
ENDROOT
BRANCH   1   3
ATOM      3  C   UNL     1      46.398   4.994  13.155  0.00  0.00    +0.000 A 
ATOM      4  C   UNL     1      46.656   5.953  12.169  0.00  0.00    +0.000 A 
ATOM      5  C   UNL     1      47.643   6.927  12.342  0.00  0.00    +0.000 A 
ATOM      6  C   UNL     1      48.377   6.989  13.529  0.00  0.00    +0.000 A 
ATOM      7  C   UNL     1      48.098   6.072  14.547  0.00  0.00    +0.000 A 
ATOM      8  C   UNL     1      47.112   5.101  14.359  0.00  0.00    +0.000 A 
ATOM      9  F   UNL     1      46.866   4.232  15.352  0.00  0.00    +0.000 F 
BRANCH   6  10
ATOM     10  C   UNL     1      49.442   8.004  13.758  0.00  0.00    +0.000 C 
ATOM     11  N   UNL     1      50.740   7.664  13.504  0.00  0.00    +0.000 N 
ATOM     12  O   UNL     1      49.171   9.127  14.169  0.00  0.00    +0.000 OA
ATOM     13  H   UNL     1      51.059   6.773  13.158  0.00  0.00    +0.000 HD
ATOM     14  H   UNL     1      51.438   8.377  13.668  0.00  0.00    +0.000 HD
ENDBRANCH   6  10
ENDBRANCH   1   3
BRANCH   1  15
ATOM     15  C   UNL     1      44.253   4.397  12.158  0.00  0.00    +0.000 C 
BRANCH  15  17
ATOM     16  C   UNL     1      43.364   2.107  11.407  0.00  0.00    +0.000 C 
ATOM     17  C   UNL     1      44.125   3.356  11.096  0.00  0.00    +0.000 C 
BRANCH  17  18
ATOM     18  C   UNL     1      44.935   3.449   9.878  0.00  0.00    +0.000 A 
ATOM     19  C   UNL     1      45.211   4.701   9.320  0.00  0.00    +0.000 A 
ATOM     20  C   UNL     1      45.949   4.808   8.144  0.00  0.00    +0.000 A 
ATOM     21  C   UNL     1      46.442   3.662   7.523  0.00  0.00    +0.000 A 
ATOM     22  C   UNL     1      46.204   2.397   8.075  0.00  0.00    +0.000 A 
ATOM     23  C   UNL     1      45.435   2.301   9.250  0.00  0.00    +0.000 A 
BRANCH  22  24
ATOM     24  C   UNL     1      46.772   1.150   7.443  0.00  0.00    +0.000 C 
ATOM     25  F   UNL     1      46.537   1.060   6.104  0.00  0.00    +0.000 F 
ATOM     26  F   UNL     1      48.124   1.065   7.590  0.00  0.00    +0.000 F 
ATOM     27  F   UNL     1      46.267   0.010   7.989  0.00  0.00    +0.000 F 
ENDBRANCH  22  24
ENDBRANCH  17  18
ENDBRANCH  15  17
ENDBRANCH   1  15
TORSDOF 6
ENDMDL
MODEL 8
REMARK VINA RESULT:    -6.915      3.697      7.229
REMARK INTER + INTRA:         -10.380
REMARK INTER:                  -9.246
REMARK INTRA:                  -1.134
REMARK UNBOUND:                -1.039
REMARK  Name = 
REMARK  7 active torsions:
REMARK  status: ('A' for Active; 'I' for Inactive)
REMARK    1  A    between atoms: C_1  and  C_2
REMARK    2  A    between atoms: C_2  and  C_3
REMARK    3  A    between atoms: C_2  and  C_15
REMARK    4  A    between atoms: C_3  and  N_4
REMARK    5  A    between atoms: N_4  and  C_5
REMARK    6  A    between atoms: C_8  and  C_9
REMARK    7  A    between atoms: C_19  and  C_20
REMARK                            x       y       z     vdW  Elec       q    Type
REMARK                         _______ _______ _______ _____ _____    ______ ____
ROOT
ATOM      1  N   UNL     1      47.112   6.538  12.776  0.00  0.00    +0.000 N 
ATOM      2  H   UNL     1      47.958   6.837  12.286  0.00  0.00    +0.000 HD
ENDROOT
BRANCH   1   3
ATOM      3  C   UNL     1      47.456   5.879  13.972  0.00  0.00    +0.000 A 
ATOM      4  C   UNL     1      48.250   6.486  14.951  0.00  0.00    +0.000 A 
ATOM      5  C   UNL     1      48.546   5.838  16.153  0.00  0.00    +0.000 A 
ATOM      6  C   UNL     1      48.020   4.572  16.423  0.00  0.00    +0.000 A 
ATOM      7  C   UNL     1      47.182   3.971  15.479  0.00  0.00    +0.000 A 
ATOM      8  C   UNL     1      46.899   4.628  14.281  0.00  0.00    +0.000 A 
ATOM      9  F   UNL     1      46.092   4.027  13.391  0.00  0.00    +0.000 F 
BRANCH   6  10
ATOM     10  C   UNL     1      48.310   3.839  17.686  0.00  0.00    +0.000 C 
ATOM     11  N   UNL     1      47.384   2.953  18.159  0.00  0.00    +0.000 N 
ATOM     12  O   UNL     1      49.355   4.021  18.301  0.00  0.00    +0.000 OA
ATOM     13  H   UNL     1      46.504   2.731  17.722  0.00  0.00    +0.000 HD
ATOM     14  H   UNL     1      47.613   2.470  19.018  0.00  0.00    +0.000 HD
ENDBRANCH   6  10
ENDBRANCH   1   3
BRANCH   1  15
ATOM     15  C   UNL     1      46.121   7.603  12.877  0.00  0.00    +0.000 C 
BRANCH  15  17
ATOM     16  C   UNL     1      44.576   8.745  11.172  0.00  0.00    +0.000 C 
ATOM     17  C   UNL     1      45.204   7.497  11.705  0.00  0.00    +0.000 C 
BRANCH  17  18
ATOM     18  C   UNL     1      44.739   6.181  11.255  0.00  0.00    +0.000 A 
ATOM     19  C   UNL     1      43.711   5.534  11.945  0.00  0.00    +0.000 A 
ATOM     20  C   UNL     1      43.279   4.268  11.555  0.00  0.00    +0.000 A 
ATOM     21  C   UNL     1      43.855   3.645  10.450  0.00  0.00    +0.000 A 
ATOM     22  C   UNL     1      44.868   4.284   9.722  0.00  0.00    +0.000 A 
ATOM     23  C   UNL     1      45.313   5.550  10.143  0.00  0.00    +0.000 A 
BRANCH  22  24
ATOM     24  C   UNL     1      45.468   3.644   8.494  0.00  0.00    +0.000 C 
ATOM     25  F   UNL     1      46.492   4.360   7.951  0.00  0.00    +0.000 F 
ATOM     26  F   UNL     1      45.975   2.406   8.751  0.00  0.00    +0.000 F 
ATOM     27  F   UNL     1      44.559   3.474   7.495  0.00  0.00    +0.000 F 
ENDBRANCH  22  24
ENDBRANCH  17  18
ENDBRANCH  15  17
ENDBRANCH   1  15
TORSDOF 6
ENDMDL
MODEL 9
REMARK VINA RESULT:    -6.572      2.956      4.691
REMARK INTER + INTRA:          -9.916
REMARK INTER:                  -8.903
REMARK INTRA:                  -1.013
REMARK UNBOUND:                -1.039
REMARK  Name = 
REMARK  7 active torsions:
REMARK  status: ('A' for Active; 'I' for Inactive)
REMARK    1  A    between atoms: C_1  and  C_2
REMARK    2  A    between atoms: C_2  and  C_3
REMARK    3  A    between atoms: C_2  and  C_15
REMARK    4  A    between atoms: C_3  and  N_4
REMARK    5  A    between atoms: N_4  and  C_5
REMARK    6  A    between atoms: C_8  and  C_9
REMARK    7  A    between atoms: C_19  and  C_20
REMARK                            x       y       z     vdW  Elec       q    Type
REMARK                         _______ _______ _______ _____ _____    ______ ____
ROOT
ATOM      1  N   UNL     1      46.755   7.276  13.596  0.00  0.00    +0.000 N 
ATOM      2  H   UNL     1      46.380   8.148  13.216  0.00  0.00    +0.000 HD
ENDROOT
BRANCH   1   3
ATOM      3  C   UNL     1      46.167   6.175  12.946  0.00  0.00    +0.000 A 
ATOM      4  C   UNL     1      46.207   4.886  13.487  0.00  0.00    +0.000 A 
ATOM      5  C   UNL     1      45.579   3.810  12.853  0.00  0.00    +0.000 A 
ATOM      6  C   UNL     1      44.859   4.006  11.672  0.00  0.00    +0.000 A 
ATOM      7  C   UNL     1      44.763   5.297  11.144  0.00  0.00    +0.000 A 
ATOM      8  C   UNL     1      45.399   6.361  11.785  0.00  0.00    +0.000 A 
ATOM      9  F   UNL     1      45.293   7.590  11.254  0.00  0.00    +0.000 F 
BRANCH   6  10
ATOM     10  C   UNL     1      44.177   2.892  10.958  0.00  0.00    +0.000 C 
ATOM     11  N   UNL     1      44.802   2.318   9.888  0.00  0.00    +0.000 N 
ATOM     12  O   UNL     1      43.074   2.491  11.311  0.00  0.00    +0.000 OA
ATOM     13  H   UNL     1      45.709   2.571   9.529  0.00  0.00    +0.000 HD
ATOM     14  H   UNL     1      44.313   1.562   9.426  0.00  0.00    +0.000 HD
ENDBRANCH   6  10
ENDBRANCH   1   3
BRANCH   1  15
ATOM     15  C   UNL     1      48.211   7.285  13.681  0.00  0.00    +0.000 C 
BRANCH  15  17
ATOM     16  C   UNL     1      48.648   9.029  15.515  0.00  0.00    +0.000 C 
ATOM     17  C   UNL     1      48.593   7.597  15.089  0.00  0.00    +0.000 C 
BRANCH  17  18
ATOM     18  C   UNL     1      49.141   6.545  15.950  0.00  0.00    +0.000 A 
ATOM     19  C   UNL     1      50.444   6.659  16.443  0.00  0.00    +0.000 A 
ATOM     20  C   UNL     1      50.995   5.653  17.234  0.00  0.00    +0.000 A 
ATOM     21  C   UNL     1      50.239   4.531  17.563  0.00  0.00    +0.000 A 
ATOM     22  C   UNL     1      48.920   4.404  17.106  0.00  0.00    +0.000 A 
ATOM     23  C   UNL     1      48.385   5.414  16.286  0.00  0.00    +0.000 A 
BRANCH  22  24
ATOM     24  C   UNL     1      48.071   3.219  17.493  0.00  0.00    +0.000 C 
ATOM     25  F   UNL     1      48.209   2.850  18.797  0.00  0.00    +0.000 F 
ATOM     26  F   UNL     1      46.741   3.454  17.312  0.00  0.00    +0.000 F 
ATOM     27  F   UNL     1      48.355   2.108  16.758  0.00  0.00    +0.000 F 
ENDBRANCH  22  24
ENDBRANCH  17  18
ENDBRANCH  15  17
ENDBRANCH   1  15
TORSDOF 6
ENDMDL
