MODEL 1
REMARK VINA RESULT:    -7.004      0.000      0.000
REMARK INTER + INTRA:          -9.464
REMARK INTER:                  -8.846
REMARK INTRA:                  -0.618
REMARK UNBOUND:                -0.618
REMARK  Name = 
REMARK  6 active torsions:
REMARK  status: ('A' for Active; 'I' for Inactive)
REMARK    1  A    between atoms: C_1  and  O_2
REMARK    2  A    between atoms: O_2  and  C_3
REMARK    3  A    between atoms: C_8  and  C_9
REMARK    4  A    between atoms: C_9  and  N_10
REMARK    5  A    between atoms: C_15  and  C_16
REMARK    6  A    between atoms: C_16  and  O_17
REMARK                            x       y       z     vdW  Elec       q    Type
REMARK                         _______ _______ _______ _____ _____    ______ ____
ROOT
ATOM      1  N   UNL     1      44.156   4.388  10.541  0.00  0.00    +0.000 N 
ATOM      2  C   UNL     1      43.614   3.278  11.144  0.00  0.00    +0.000 A 
ATOM      3  C   UNL     1      44.099   2.166  10.496  0.00  0.00    +0.000 A 
ATOM      4  C   UNL     1      44.949   2.610   9.449  0.00  0.00    +0.000 A 
ATOM      5  C   UNL     1      45.706   1.945   8.461  0.00  0.00    +0.000 A 
ATOM      6  C   UNL     1      46.467   2.682   7.537  0.00  0.00    +0.000 A 
ATOM      7  C   UNL     1      46.502   4.077   7.639  0.00  0.00    +0.000 A 
ATOM      8  C   UNL     1      45.759   4.761   8.607  0.00  0.00    +0.000 A 
ATOM      9  C   UNL     1      44.981   4.005   9.501  0.00  0.00    +0.000 A 
ENDROOT
BRANCH   1  10
ATOM     10  C   UNL     1      43.873   5.766  10.944  0.00  0.00    +0.000 C 
BRANCH  10  16
ATOM     11  C   UNL     1      45.010   7.822  11.818  0.00  0.00    +0.000 A 
ATOM     12  N   UNL     1      45.900   8.521  12.559  0.00  0.00    +0.000 NA
ATOM     13  C   UNL     1      46.855   7.813  13.193  0.00  0.00    +0.000 A 
ATOM     14  C   UNL     1      46.967   6.438  13.109  0.00  0.00    +0.000 A 
ATOM     15  C   UNL     1      46.017   5.741  12.367  0.00  0.00    +0.000 A 
ATOM     16  C   UNL     1      44.986   6.429  11.716  0.00  0.00    +0.000 A 
BRANCH  11  18
ATOM     17  C   UNL     1      44.299   9.933  11.146  0.00  0.00    +0.000 C 
ATOM     18  O   UNL     1      44.056   8.527  11.109  0.00  0.00    +0.000 OA
ENDBRANCH  11  18
ENDBRANCH  10  16
ENDBRANCH   1  10
BRANCH   6  19
ATOM     19  C   UNL     1      47.290   1.953   6.504  0.00  0.00    +0.000 C 
BRANCH  19  20
ATOM     20  O   UNL     1      48.611   2.473   6.418  0.00  0.00    +0.000 OA
ATOM     21  H   UNL     1      48.863   2.739   7.319  0.00  0.00    +0.000 HD
ENDBRANCH  19  20
ENDBRANCH   6  19
TORSDOF 5
ENDMDL
MODEL 2
REMARK VINA RESULT:    -6.974      2.119      2.877
REMARK INTER + INTRA:          -9.427
REMARK INTER:                  -9.193
REMARK INTRA:                  -0.234
REMARK UNBOUND:                -0.618
REMARK  Name = 
REMARK  6 active torsions:
REMARK  status: ('A' for Active; 'I' for Inactive)
REMARK    1  A    between atoms: C_1  and  O_2
REMARK    2  A    between atoms: O_2  and  C_3
REMARK    3  A    between atoms: C_8  and  C_9
REMARK    4  A    between atoms: C_9  and  N_10
REMARK    5  A    between atoms: C_15  and  C_16
REMARK    6  A    between atoms: C_16  and  O_17
REMARK                            x       y       z     vdW  Elec       q    Type
REMARK                         _______ _______ _______ _____ _____    ______ ____
ROOT
ATOM      1  N   UNL     1      44.307   4.724  12.063  0.00  0.00    +0.000 N 
ATOM      2  C   UNL     1      43.537   3.646  12.427  0.00  0.00    +0.000 A 
ATOM      3  C   UNL     1      43.539   2.753  11.380  0.00  0.00    +0.000 A 
ATOM      4  C   UNL     1      44.319   3.313  10.333  0.00  0.00    +0.000 A 
ATOM      5  C   UNL     1      44.667   2.877   9.038  0.00  0.00    +0.000 A 
ATOM      6  C   UNL     1      45.475   3.678   8.213  0.00  0.00    +0.000 A 
ATOM      7  C   UNL     1      45.968   4.890   8.711  0.00  0.00    +0.000 A 
ATOM      8  C   UNL     1      45.636   5.348   9.991  0.00  0.00    +0.000 A 
ATOM      9  C   UNL     1      44.801   4.543  10.785  0.00  0.00    +0.000 A 
ENDROOT
BRANCH   1  10
ATOM     10  C   UNL     1      44.542   5.893  12.912  0.00  0.00    +0.000 C 
BRANCH  10  16
ATOM     11  C   UNL     1      46.898   5.537  13.691  0.00  0.00    +0.000 A 
ATOM     12  N   UNL     1      48.229   5.773  13.750  0.00  0.00    +0.000 NA
ATOM     13  C   UNL     1      48.680   6.878  13.125  0.00  0.00    +0.000 A 
ATOM     14  C   UNL     1      47.858   7.765  12.456  0.00  0.00    +0.000 A 
ATOM     15  C   UNL     1      46.497   7.480  12.383  0.00  0.00    +0.000 A 
ATOM     16  C   UNL     1      45.985   6.326  12.989  0.00  0.00    +0.000 A 
BRANCH  11  18
ATOM     17  C   UNL     1      47.137   4.180  15.566  0.00  0.00    +0.000 C 
ATOM     18  O   UNL     1      46.400   4.443  14.372  0.00  0.00    +0.000 OA
ENDBRANCH  11  18
ENDBRANCH  10  16
ENDBRANCH   1  10
BRANCH   6  19
ATOM     19  C   UNL     1      45.857   3.183   6.840  0.00  0.00    +0.000 C 
BRANCH  19  20
ATOM     20  O   UNL     1      46.784   4.056   6.204  0.00  0.00    +0.000 OA
ATOM     21  H   UNL     1      47.123   4.651   6.894  0.00  0.00    +0.000 HD
ENDBRANCH  19  20
ENDBRANCH   6  19
TORSDOF 5
ENDMDL
MODEL 3
REMARK VINA RESULT:    -6.099      2.486      6.256
REMARK INTER + INTRA:          -8.321
REMARK INTER:                  -7.715
REMARK INTRA:                  -0.606
REMARK UNBOUND:                -0.618
REMARK  Name = 
REMARK  6 active torsions:
REMARK  status: ('A' for Active; 'I' for Inactive)
REMARK    1  A    between atoms: C_1  and  O_2
REMARK    2  A    between atoms: O_2  and  C_3
REMARK    3  A    between atoms: C_8  and  C_9
REMARK    4  A    between atoms: C_9  and  N_10
REMARK    5  A    between atoms: C_15  and  C_16
REMARK    6  A    between atoms: C_16  and  O_17
REMARK                            x       y       z     vdW  Elec       q    Type
REMARK                         _______ _______ _______ _____ _____    ______ ____
ROOT
ATOM      1  N   UNL     1      44.637   6.790  11.655  0.00  0.00    +0.000 N 
ATOM      2  C   UNL     1      44.578   8.131  11.362  0.00  0.00    +0.000 A 
ATOM      3  C   UNL     1      45.593   8.758  12.047  0.00  0.00    +0.000 A 
ATOM      4  C   UNL     1      46.282   7.771  12.801  0.00  0.00    +0.000 A 
ATOM      5  C   UNL     1      47.380   7.813  13.685  0.00  0.00    +0.000 A 
ATOM      6  C   UNL     1      47.843   6.634  14.296  0.00  0.00    +0.000 A 
ATOM      7  C   UNL     1      47.232   5.416  13.979  0.00  0.00    +0.000 A 
ATOM      8  C   UNL     1      46.139   5.347  13.108  0.00  0.00    +0.000 A 
ATOM      9  C   UNL     1      45.675   6.543  12.533  0.00  0.00    +0.000 A 
ENDROOT
BRANCH   1  10
ATOM     10  C   UNL     1      43.713   5.788  11.122  0.00  0.00    +0.000 C 
BRANCH  10  16
ATOM     11  C   UNL     1      43.941   3.439  10.278  0.00  0.00    +0.000 A 
ATOM     12  N   UNL     1      44.376   2.460   9.451  0.00  0.00    +0.000 NA
ATOM     13  C   UNL     1      45.310   2.799   8.543  0.00  0.00    +0.000 A 
ATOM     14  C   UNL     1      45.840   4.071   8.431  0.00  0.00    +0.000 A 
ATOM     15  C   UNL     1      45.350   5.066   9.273  0.00  0.00    +0.000 A 
ATOM     16  C   UNL     1      44.356   4.771  10.212  0.00  0.00    +0.000 A 
BRANCH  11  18
ATOM     17  C   UNL     1      43.658   2.521  12.397  0.00  0.00    +0.000 C 
ATOM     18  O   UNL     1      43.027   3.106  11.258  0.00  0.00    +0.000 OA
ENDBRANCH  11  18
ENDBRANCH  10  16
ENDBRANCH   1  10
BRANCH   6  19
ATOM     19  C   UNL     1      49.034   6.695  15.220  0.00  0.00    +0.000 C 
BRANCH  19  20
ATOM     20  O   UNL     1      49.130   5.532  16.034  0.00  0.00    +0.000 OA
ATOM     21  H   UNL     1      48.255   5.109  16.018  0.00  0.00    +0.000 HD
ENDBRANCH  19  20
ENDBRANCH   6  19
TORSDOF 5
ENDMDL
MODEL 4
REMARK VINA RESULT:    -6.081      2.720      6.084
REMARK INTER + INTRA:          -8.299
REMARK INTER:                  -7.535
REMARK INTRA:                  -0.764
REMARK UNBOUND:                -0.618
REMARK  Name = 
REMARK  6 active torsions:
REMARK  status: ('A' for Active; 'I' for Inactive)
REMARK    1  A    between atoms: C_1  and  O_2
REMARK    2  A    between atoms: O_2  and  C_3
REMARK    3  A    between atoms: C_8  and  C_9
REMARK    4  A    between atoms: C_9  and  N_10
REMARK    5  A    between atoms: C_15  and  C_16
REMARK    6  A    between atoms: C_16  and  O_17
REMARK                            x       y       z     vdW  Elec       q    Type
REMARK                         _______ _______ _______ _____ _____    ______ ____
ROOT
ATOM      1  N   UNL     1      45.750   5.823  12.287  0.00  0.00    +0.000 N 
ATOM      2  C   UNL     1      45.624   4.934  13.327  0.00  0.00    +0.000 A 
ATOM      3  C   UNL     1      46.717   5.086  14.147  0.00  0.00    +0.000 A 
ATOM      4  C   UNL     1      47.550   6.086  13.579  0.00  0.00    +0.000 A 
ATOM      5  C   UNL     1      48.786   6.652  13.956  0.00  0.00    +0.000 A 
ATOM      6  C   UNL     1      49.378   7.652  13.164  0.00  0.00    +0.000 A 
ATOM      7  C   UNL     1      48.703   8.110  12.026  0.00  0.00    +0.000 A 
ATOM      8  C   UNL     1      47.478   7.564  11.629  0.00  0.00    +0.000 A 
ATOM      9  C   UNL     1      46.921   6.544  12.420  0.00  0.00    +0.000 A 
ENDROOT
BRANCH   1  10
ATOM     10  C   UNL     1      44.783   5.958  11.196  0.00  0.00    +0.000 C 
BRANCH  10  16
ATOM     11  C   UNL     1      44.096   3.840  10.044  0.00  0.00    +0.000 A 
ATOM     12  N   UNL     1      44.087   2.921   9.051  0.00  0.00    +0.000 NA
ATOM     13  C   UNL     1      45.004   3.068   8.076  0.00  0.00    +0.000 A 
ATOM     14  C   UNL     1      45.938   4.086   8.054  0.00  0.00    +0.000 A 
ATOM     15  C   UNL     1      45.903   5.037   9.070  0.00  0.00    +0.000 A 
ATOM     16  C   UNL     1      44.948   4.946  10.090  0.00  0.00    +0.000 A 
BRANCH  11  18
ATOM     17  C   UNL     1      43.382   2.428  11.749  0.00  0.00    +0.000 C 
ATOM     18  O   UNL     1      43.206   3.681  11.088  0.00  0.00    +0.000 OA
ENDBRANCH  11  18
ENDBRANCH  10  16
ENDBRANCH   1  10
BRANCH   6  19
ATOM     19  C   UNL     1      50.688   8.263  13.595  0.00  0.00    +0.000 C 
BRANCH  19  20
ATOM     20  O   UNL     1      51.334   7.478  14.590  0.00  0.00    +0.000 OA
ATOM     21  H   UNL     1      51.058   6.558  14.440  0.00  0.00    +0.000 HD
ENDBRANCH  19  20
ENDBRANCH   6  19
TORSDOF 5
ENDMDL
MODEL 5
REMARK VINA RESULT:    -5.498      3.833      5.986
REMARK INTER + INTRA:          -7.562
REMARK INTER:                  -6.909
REMARK INTRA:                  -0.653
REMARK UNBOUND:                -0.618
REMARK  Name = 
REMARK  6 active torsions:
REMARK  status: ('A' for Active; 'I' for Inactive)
REMARK    1  A    between atoms: C_1  and  O_2
REMARK    2  A    between atoms: O_2  and  C_3
REMARK    3  A    between atoms: C_8  and  C_9
REMARK    4  A    between atoms: C_9  and  N_10
REMARK    5  A    between atoms: C_15  and  C_16
REMARK    6  A    between atoms: C_16  and  O_17
REMARK                            x       y       z     vdW  Elec       q    Type
REMARK                         _______ _______ _______ _____ _____    ______ ____
ROOT
ATOM      1  N   UNL     1      47.288   6.889  13.499  0.00  0.00    +0.000 N 
ATOM      2  C   UNL     1      46.697   8.097  13.217  0.00  0.00    +0.000 A 
ATOM      3  C   UNL     1      45.470   7.845  12.650  0.00  0.00    +0.000 A 
ATOM      4  C   UNL     1      45.312   6.436  12.563  0.00  0.00    +0.000 A 
ATOM      5  C   UNL     1      44.289   5.599  12.073  0.00  0.00    +0.000 A 
ATOM      6  C   UNL     1      44.430   4.202  12.124  0.00  0.00    +0.000 A 
ATOM      7  C   UNL     1      45.577   3.653  12.710  0.00  0.00    +0.000 A 
ATOM      8  C   UNL     1      46.609   4.460  13.201  0.00  0.00    +0.000 A 
ATOM      9  C   UNL     1      46.458   5.855  13.111  0.00  0.00    +0.000 A 
ENDROOT
BRANCH   1  10
ATOM     10  C   UNL     1      48.612   6.740  14.104  0.00  0.00    +0.000 C 
BRANCH  10  16
ATOM     11  C   UNL     1      48.667   6.035  16.509  0.00  0.00    +0.000 A 
ATOM     12  N   UNL     1      48.806   6.207  17.844  0.00  0.00    +0.000 NA
ATOM     13  C   UNL     1      48.896   7.475  18.289  0.00  0.00    +0.000 A 
ATOM     14  C   UNL     1      48.840   8.580  17.461  0.00  0.00    +0.000 A 
ATOM     15  C   UNL     1      48.730   8.373  16.089  0.00  0.00    +0.000 A 
ATOM     16  C   UNL     1      48.665   7.073  15.574  0.00  0.00    +0.000 A 
BRANCH  11  18
ATOM     17  C   UNL     1      47.537   4.019  16.773  0.00  0.00    +0.000 C 
ATOM     18  O   UNL     1      48.513   4.749  16.030  0.00  0.00    +0.000 OA
ENDBRANCH  11  18
ENDBRANCH  10  16
ENDBRANCH   1  10
BRANCH   6  19
ATOM     19  C   UNL     1      43.314   3.322  11.618  0.00  0.00    +0.000 C 
BRANCH  19  20
ATOM     20  O   UNL     1      43.368   2.020  12.188  0.00  0.00    +0.000 OA
ATOM     21  H   UNL     1      43.786   2.117  13.061  0.00  0.00    +0.000 HD
ENDBRANCH  19  20
ENDBRANCH   6  19
TORSDOF 5
ENDMDL
MODEL 6
REMARK VINA RESULT:    -5.384      3.432      5.079
REMARK INTER + INTRA:          -7.418
REMARK INTER:                  -6.712
REMARK INTRA:                  -0.706
REMARK UNBOUND:                -0.618
REMARK  Name = 
REMARK  6 active torsions:
REMARK  status: ('A' for Active; 'I' for Inactive)
REMARK    1  A    between atoms: C_1  and  O_2
REMARK    2  A    between atoms: O_2  and  C_3
REMARK    3  A    between atoms: C_8  and  C_9
REMARK    4  A    between atoms: C_9  and  N_10
REMARK    5  A    between atoms: C_15  and  C_16
REMARK    6  A    between atoms: C_16  and  O_17
REMARK                            x       y       z     vdW  Elec       q    Type
REMARK                         _______ _______ _______ _____ _____    ______ ____
ROOT
ATOM      1  N   UNL     1      47.132   6.417  13.570  0.00  0.00    +0.000 N 
ATOM      2  C   UNL     1      47.549   5.600  14.594  0.00  0.00    +0.000 A 
ATOM      3  C   UNL     1      46.993   4.358  14.397  0.00  0.00    +0.000 A 
ATOM      4  C   UNL     1      46.193   4.421  13.225  0.00  0.00    +0.000 A 
ATOM      5  C   UNL     1      45.388   3.484  12.545  0.00  0.00    +0.000 A 
ATOM      6  C   UNL     1      44.697   3.858  11.379  0.00  0.00    +0.000 A 
ATOM      7  C   UNL     1      44.856   5.155  10.878  0.00  0.00    +0.000 A 
ATOM      8  C   UNL     1      45.646   6.105  11.535  0.00  0.00    +0.000 A 
ATOM      9  C   UNL     1      46.302   5.716  12.716  0.00  0.00    +0.000 A 
ENDROOT
BRANCH   1  10
ATOM     10  C   UNL     1      47.508   7.824  13.433  0.00  0.00    +0.000 C 
BRANCH  10  16
ATOM     11  C   UNL     1      49.868   8.603  13.757  0.00  0.00    +0.000 A 
ATOM     12  N   UNL     1      51.172   8.763  13.433  0.00  0.00    +0.000 NA
ATOM     13  C   UNL     1      51.539   8.404  12.188  0.00  0.00    +0.000 A 
ATOM     14  C   UNL     1      50.658   7.905  11.247  0.00  0.00    +0.000 A 
ATOM     15  C   UNL     1      49.329   7.720  11.619  0.00  0.00    +0.000 A 
ATOM     16  C   UNL     1      48.905   8.048  12.912  0.00  0.00    +0.000 A 
BRANCH  11  18
ATOM     17  C   UNL     1      49.658  10.417  15.199  0.00  0.00    +0.000 C 
ATOM     18  O   UNL     1      49.452   9.018  15.008  0.00  0.00    +0.000 OA
ENDBRANCH  11  18
ENDBRANCH  10  16
ENDBRANCH   1  10
BRANCH   6  19
ATOM     19  C   UNL     1      43.860   2.835  10.651  0.00  0.00    +0.000 C 
BRANCH  19  20
ATOM     20  O   UNL     1      42.989   2.139  11.535  0.00  0.00    +0.000 OA
ATOM     21  H   UNL     1      43.552   1.739  12.220  0.00  0.00    +0.000 HD
ENDBRANCH  19  20
ENDBRANCH   6  19
TORSDOF 5
ENDMDL
MODEL 7
REMARK VINA RESULT:    -5.365      4.752      6.728
REMARK INTER + INTRA:          -7.395
REMARK INTER:                  -6.973
REMARK INTRA:                  -0.421
REMARK UNBOUND:                -0.618
REMARK  Name = 
REMARK  6 active torsions:
REMARK  status: ('A' for Active; 'I' for Inactive)
REMARK    1  A    between atoms: C_1  and  O_2
REMARK    2  A    between atoms: O_2  and  C_3
REMARK    3  A    between atoms: C_8  and  C_9
REMARK    4  A    between atoms: C_9  and  N_10
REMARK    5  A    between atoms: C_15  and  C_16
REMARK    6  A    between atoms: C_16  and  O_17
REMARK                            x       y       z     vdW  Elec       q    Type
REMARK                         _______ _______ _______ _____ _____    ______ ____
ROOT
ATOM      1  N   UNL     1      47.344   4.820  14.897  0.00  0.00    +0.000 N 
ATOM      2  C   UNL     1      47.977   6.040  14.910  0.00  0.00    +0.000 A 
ATOM      3  C   UNL     1      47.663   6.692  13.741  0.00  0.00    +0.000 A 
ATOM      4  C   UNL     1      46.827   5.834  12.977  0.00  0.00    +0.000 A 
ATOM      5  C   UNL     1      46.210   5.948  11.713  0.00  0.00    +0.000 A 
ATOM      6  C   UNL     1      45.422   4.898  11.212  0.00  0.00    +0.000 A 
ATOM      7  C   UNL     1      45.218   3.760  12.002  0.00  0.00    +0.000 A 
ATOM      8  C   UNL     1      45.821   3.621  13.257  0.00  0.00    +0.000 A 
ATOM      9  C   UNL     1      46.630   4.671  13.724  0.00  0.00    +0.000 A 
ENDROOT
BRANCH   1  10
ATOM     10  C   UNL     1      47.441   3.830  15.970  0.00  0.00    +0.000 C 
BRANCH  10  16
ATOM     11  C   UNL     1      49.317   4.173  17.597  0.00  0.00    +0.000 A 
ATOM     12  N   UNL     1      49.927   4.692  18.687  0.00  0.00    +0.000 NA
ATOM     13  C   UNL     1      49.160   5.405  19.534  0.00  0.00    +0.000 A 
ATOM     14  C   UNL     1      47.806   5.612  19.347  0.00  0.00    +0.000 A 
ATOM     15  C   UNL     1      47.211   5.094  18.199  0.00  0.00    +0.000 A 
ATOM     16  C   UNL     1      47.974   4.373  17.272  0.00  0.00    +0.000 A 
BRANCH  11  18
ATOM     17  C   UNL     1      50.515   2.191  17.377  0.00  0.00    +0.000 C 
ATOM     18  O   UNL     1      50.067   3.388  16.742  0.00  0.00    +0.000 OA
ENDBRANCH  11  18
ENDBRANCH  10  16
ENDBRANCH   1  10
BRANCH   6  19
ATOM     19  C   UNL     1      44.750   5.048   9.870  0.00  0.00    +0.000 C 
BRANCH  19  20
ATOM     20  O   UNL     1      43.342   5.208  10.000  0.00  0.00    +0.000 OA
ATOM     21  H   UNL     1      43.011   5.469   9.124  0.00  0.00    +0.000 HD
ENDBRANCH  19  20
ENDBRANCH   6  19
TORSDOF 5
ENDMDL
MODEL 8
REMARK VINA RESULT:    -5.220      2.625      6.619
REMARK INTER + INTRA:          -7.212
REMARK INTER:                  -6.685
REMARK INTRA:                  -0.527
REMARK UNBOUND:                -0.618
REMARK  Name = 
REMARK  6 active torsions:
REMARK  status: ('A' for Active; 'I' for Inactive)
REMARK    1  A    between atoms: C_1  and  O_2
REMARK    2  A    between atoms: O_2  and  C_3
REMARK    3  A    between atoms: C_8  and  C_9
REMARK    4  A    between atoms: C_9  and  N_10
REMARK    5  A    between atoms: C_15  and  C_16
REMARK    6  A    between atoms: C_16  and  O_17
REMARK                            x       y       z     vdW  Elec       q    Type
REMARK                         _______ _______ _______ _____ _____    ______ ____
ROOT
ATOM      1  N   UNL     1      45.924   7.232  11.620  0.00  0.00    +0.000 N 
ATOM      2  C   UNL     1      45.037   8.270  11.780  0.00  0.00    +0.000 A 
ATOM      3  C   UNL     1      45.504   9.071  12.796  0.00  0.00    +0.000 A 
ATOM      4  C   UNL     1      46.705   8.494  13.287  0.00  0.00    +0.000 A 
ATOM      5  C   UNL     1      47.610   8.851  14.309  0.00  0.00    +0.000 A 
ATOM      6  C   UNL     1      48.739   8.054  14.566  0.00  0.00    +0.000 A 
ATOM      7  C   UNL     1      48.978   6.931  13.765  0.00  0.00    +0.000 A 
ATOM      8  C   UNL     1      48.095   6.553  12.747  0.00  0.00    +0.000 A 
ATOM      9  C   UNL     1      46.957   7.348  12.530  0.00  0.00    +0.000 A 
ENDROOT
BRANCH   1  10
ATOM     10  C   UNL     1      45.768   6.160  10.637  0.00  0.00    +0.000 C 
BRANCH  10  16
ATOM     11  C   UNL     1      44.590   3.992  10.191  0.00  0.00    +0.000 A 
ATOM     12  N   UNL     1      43.858   2.898  10.500  0.00  0.00    +0.000 NA
ATOM     13  C   UNL     1      43.300   2.865  11.726  0.00  0.00    +0.000 A 
ATOM     14  C   UNL     1      43.430   3.883  12.652  0.00  0.00    +0.000 A 
ATOM     15  C   UNL     1      44.217   4.982  12.318  0.00  0.00    +0.000 A 
ATOM     16  C   UNL     1      44.844   5.048  11.069  0.00  0.00    +0.000 A 
BRANCH  11  18
ATOM     17  C   UNL     1      44.761   2.962   8.112  0.00  0.00    +0.000 C 
ATOM     18  O   UNL     1      45.125   4.081   8.920  0.00  0.00    +0.000 OA
ENDBRANCH  11  18
ENDBRANCH  10  16
ENDBRANCH   1  10
BRANCH   6  19
ATOM     19  C   UNL     1      49.709   8.465  15.646  0.00  0.00    +0.000 C 
BRANCH  19  20
ATOM     20  O   UNL     1      51.035   8.042  15.353  0.00  0.00    +0.000 OA
ATOM     21  H   UNL     1      51.342   8.588  14.609  0.00  0.00    +0.000 HD
ENDBRANCH  19  20
ENDBRANCH   6  19
TORSDOF 5
ENDMDL
MODEL 9
REMARK VINA RESULT:    -5.080      3.467      6.928
REMARK INTER + INTRA:          -7.034
REMARK INTER:                  -6.279
REMARK INTRA:                  -0.755
REMARK UNBOUND:                -0.618
REMARK  Name = 
REMARK  6 active torsions:
REMARK  status: ('A' for Active; 'I' for Inactive)
REMARK    1  A    between atoms: C_1  and  O_2
REMARK    2  A    between atoms: O_2  and  C_3
REMARK    3  A    between atoms: C_8  and  C_9
REMARK    4  A    between atoms: C_9  and  N_10
REMARK    5  A    between atoms: C_15  and  C_16
REMARK    6  A    between atoms: C_16  and  O_17
REMARK                            x       y       z     vdW  Elec       q    Type
REMARK                         _______ _______ _______ _____ _____    ______ ____
ROOT
ATOM      1  N   UNL     1      48.828   7.104  13.601  0.00  0.00    +0.000 N 
ATOM      2  C   UNL     1      49.753   7.928  14.198  0.00  0.00    +0.000 A 
ATOM      3  C   UNL     1      49.891   7.528  15.507  0.00  0.00    +0.000 A 
ATOM      4  C   UNL     1      49.006   6.438  15.724  0.00  0.00    +0.000 A 
ATOM      5  C   UNL     1      48.705   5.638  16.845  0.00  0.00    +0.000 A 
ATOM      6  C   UNL     1      47.754   4.606  16.745  0.00  0.00    +0.000 A 
ATOM      7  C   UNL     1      47.149   4.354  15.508  0.00  0.00    +0.000 A 
ATOM      8  C   UNL     1      47.428   5.135  14.381  0.00  0.00    +0.000 A 
ATOM      9  C   UNL     1      48.358   6.181  14.514  0.00  0.00    +0.000 A 
ENDROOT
BRANCH   1  10
ATOM     10  C   UNL     1      48.403   7.218  12.205  0.00  0.00    +0.000 C 
BRANCH  10  16
ATOM     11  C   UNL     1      45.978   7.286  11.575  0.00  0.00    +0.000 A 
ATOM     12  N   UNL     1      44.748   7.837  11.453  0.00  0.00    +0.000 NA
ATOM     13  C   UNL     1      44.640   9.152  11.721  0.00  0.00    +0.000 A 
ATOM     14  C   UNL     1      45.709   9.946  12.092  0.00  0.00    +0.000 A 
ATOM     15  C   UNL     1      46.957   9.346  12.242  0.00  0.00    +0.000 A 
ATOM     16  C   UNL     1      47.114   7.975  12.007  0.00  0.00    +0.000 A 
BRANCH  11  18
ATOM     17  C   UNL     1      44.877   5.328  10.969  0.00  0.00    +0.000 C 
ATOM     18  O   UNL     1      46.130   5.952  11.251  0.00  0.00    +0.000 OA
ENDBRANCH  11  18
ENDBRANCH  10  16
ENDBRANCH   1  10
BRANCH   6  19
ATOM     19  C   UNL     1      47.463   3.744  17.948  0.00  0.00    +0.000 C 
BRANCH  19  20
ATOM     20  O   UNL     1      46.432   2.800  17.684  0.00  0.00    +0.000 OA
ATOM     21  H   UNL     1      46.874   1.958  17.480  0.00  0.00    +0.000 HD
ENDBRANCH  19  20
ENDBRANCH   6  19
TORSDOF 5
ENDMDL
