MODEL 1
REMARK VINA RESULT:    -7.649      0.000      0.000
REMARK INTER + INTRA:          -9.789
REMARK INTER:                  -9.438
REMARK INTRA:                  -0.351
REMARK UNBOUND:                -0.351
REMARK  Name = 
REMARK  4 active torsions:
REMARK  status: ('A' for Active; 'I' for Inactive)
REMARK    1  A    between atoms: C_2  and  C_4
REMARK    2  A    between atoms: C_7  and  N_8
REMARK    3  A    between atoms: N_8  and  C_9
REMARK    4  A    between atoms: C_9  and  C_10
REMARK                            x       y       z     vdW  Elec       q    Type
REMARK                         _______ _______ _______ _____ _____    ______ ____
ROOT
ATOM      1  C   UNL     1      46.410   2.333   7.780  0.00  0.00    +0.000 A 
ATOM      2  C   UNL     1      46.406   3.696   7.543  0.00  0.00    +0.000 A 
ATOM      3  N   UNL     1      45.562   4.542   8.196  0.00  0.00    +0.000 NA
ATOM      4  C   UNL     1      44.694   3.990   9.068  0.00  0.00    +0.000 A 
ATOM      5  C   UNL     1      44.749   2.611   9.317  0.00  0.00    +0.000 A 
ATOM      6  N   UNL     1      45.584   1.747   8.687  0.00  0.00    +0.000 NA
ENDROOT
BRANCH   1   8
ATOM      7  N   UNL     1      48.468   2.051   6.548  0.00  0.00    +0.000 N 
ATOM      8  C   UNL     1      47.342   1.444   7.037  0.00  0.00    +0.000 C 
ATOM      9  O   UNL     1      47.123   0.250   6.872  0.00  0.00    +0.000 OA
ATOM     10  H   UNL     1      49.146   1.507   6.035  0.00  0.00    +0.000 HD
ATOM     11  H   UNL     1      48.626   3.036   6.725  0.00  0.00    +0.000 HD
ENDBRANCH   1   8
BRANCH   4  12
ATOM     12  N   UNL     1      43.834   4.868   9.722  0.00  0.00    +0.000 N 
ATOM     13  H   UNL     1      44.049   5.815   9.419  0.00  0.00    +0.000 HD
BRANCH  12  14
ATOM     14  C   UNL     1      43.787   4.777  11.175  0.00  0.00    +0.000 C 
BRANCH  14  15
ATOM     15  C   UNL     1      45.104   5.144  11.818  0.00  0.00    +0.000 A 
ATOM     16  C   UNL     1      45.797   6.316  11.483  0.00  0.00    +0.000 A 
ATOM     17  C   UNL     1      46.955   6.681  12.175  0.00  0.00    +0.000 A 
ATOM     18  C   UNL     1      47.424   5.887  13.219  0.00  0.00    +0.000 A 
ATOM     19  C   UNL     1      46.742   4.725  13.570  0.00  0.00    +0.000 A 
ATOM     20  C   UNL     1      45.589   4.356  12.875  0.00  0.00    +0.000 A 
ENDBRANCH  14  15
ENDBRANCH  12  14
ENDBRANCH   4  12
TORSDOF 4
ENDMDL
MODEL 2
REMARK VINA RESULT:    -7.616      3.141      5.918
REMARK INTER + INTRA:          -9.747
REMARK INTER:                  -9.407
REMARK INTRA:                  -0.341
REMARK UNBOUND:                -0.351
REMARK  Name = 
REMARK  4 active torsions:
REMARK  status: ('A' for Active; 'I' for Inactive)
REMARK    1  A    between atoms: C_2  and  C_4
REMARK    2  A    between atoms: C_7  and  N_8
REMARK    3  A    between atoms: N_8  and  C_9
REMARK    4  A    between atoms: C_9  and  C_10
REMARK                            x       y       z     vdW  Elec       q    Type
REMARK                         _______ _______ _______ _____ _____    ______ ____
ROOT
ATOM      1  C   UNL     1      46.509   4.574  13.619  0.00  0.00    +0.000 A 
ATOM      2  C   UNL     1      46.779   5.684  12.839  0.00  0.00    +0.000 A 
ATOM      3  N   UNL     1      46.163   5.898  11.643  0.00  0.00    +0.000 NA
ATOM      4  C   UNL     1      45.294   4.956  11.225  0.00  0.00    +0.000 A 
ATOM      5  C   UNL     1      45.009   3.862  12.055  0.00  0.00    +0.000 A 
ATOM      6  N   UNL     1      45.602   3.629  13.254  0.00  0.00    +0.000 NA
ENDROOT
BRANCH   1   8
ATOM      7  N   UNL     1      47.514   5.522  15.599  0.00  0.00    +0.000 N 
ATOM      8  C   UNL     1      47.212   4.375  14.913  0.00  0.00    +0.000 C 
ATOM      9  O   UNL     1      47.502   3.265  15.342  0.00  0.00    +0.000 OA
ATOM     10  H   UNL     1      47.991   5.461  16.487  0.00  0.00    +0.000 HD
ATOM     11  H   UNL     1      47.238   6.421  15.224  0.00  0.00    +0.000 HD
ENDBRANCH   1   8
BRANCH   4  12
ATOM     12  N   UNL     1      44.677   5.186   9.998  0.00  0.00    +0.000 N 
ATOM     13  H   UNL     1      43.942   5.875  10.132  0.00  0.00    +0.000 HD
BRANCH  12  14
ATOM     14  C   UNL     1      44.182   4.016   9.286  0.00  0.00    +0.000 C 
BRANCH  14  15
ATOM     15  C   UNL     1      45.282   3.269   8.570  0.00  0.00    +0.000 A 
ATOM     16  C   UNL     1      45.475   1.889   8.731  0.00  0.00    +0.000 A 
ATOM     17  C   UNL     1      46.430   1.209   7.971  0.00  0.00    +0.000 A 
ATOM     18  C   UNL     1      47.193   1.898   7.030  0.00  0.00    +0.000 A 
ATOM     19  C   UNL     1      47.008   3.266   6.852  0.00  0.00    +0.000 A 
ATOM     20  C   UNL     1      46.058   3.947   7.615  0.00  0.00    +0.000 A 
ENDBRANCH  14  15
ENDBRANCH  12  14
ENDBRANCH   4  12
TORSDOF 4
ENDMDL
MODEL 3
REMARK VINA RESULT:    -7.222      3.001      5.962
REMARK INTER + INTRA:          -9.261
REMARK INTER:                  -8.930
REMARK INTRA:                  -0.331
REMARK UNBOUND:                -0.351
REMARK  Name = 
REMARK  4 active torsions:
REMARK  status: ('A' for Active; 'I' for Inactive)
REMARK    1  A    between atoms: C_2  and  C_4
REMARK    2  A    between atoms: C_7  and  N_8
REMARK    3  A    between atoms: N_8  and  C_9
REMARK    4  A    between atoms: C_9  and  C_10
REMARK                            x       y       z     vdW  Elec       q    Type
REMARK                         _______ _______ _______ _____ _____    ______ ____
ROOT
ATOM      1  C   UNL     1      46.424   5.430  12.740  0.00  0.00    +0.000 A 
ATOM      2  C   UNL     1      45.782   4.222  12.949  0.00  0.00    +0.000 A 
ATOM      3  N   UNL     1      45.027   3.626  11.985  0.00  0.00    +0.000 NA
ATOM      4  C   UNL     1      44.896   4.283  10.816  0.00  0.00    +0.000 A 
ATOM      5  C   UNL     1      45.591   5.485  10.618  0.00  0.00    +0.000 A 
ATOM      6  N   UNL     1      46.355   6.097  11.558  0.00  0.00    +0.000 NA
ENDROOT
BRANCH   1   8
ATOM      7  N   UNL     1      47.139   7.414  13.916  0.00  0.00    +0.000 N 
ATOM      8  C   UNL     1      47.230   6.050  13.824  0.00  0.00    +0.000 C 
ATOM      9  O   UNL     1      47.929   5.392  14.585  0.00  0.00    +0.000 OA
ATOM     10  H   UNL     1      47.659   7.902  14.630  0.00  0.00    +0.000 HD
ATOM     11  H   UNL     1      46.533   7.922  13.283  0.00  0.00    +0.000 HD
ENDBRANCH   1   8
BRANCH   4  12
ATOM     12  N   UNL     1      44.116   3.664   9.843  0.00  0.00    +0.000 N 
ATOM     13  H   UNL     1      43.147   3.676  10.152  0.00  0.00    +0.000 HD
BRANCH  12  14
ATOM     14  C   UNL     1      44.523   2.326   9.433  0.00  0.00    +0.000 C 
BRANCH  14  15
ATOM     15  C   UNL     1      45.506   2.349   8.287  0.00  0.00    +0.000 A 
ATOM     16  C   UNL     1      45.674   3.477   7.470  0.00  0.00    +0.000 A 
ATOM     17  C   UNL     1      46.670   3.504   6.490  0.00  0.00    +0.000 A 
ATOM     18  C   UNL     1      47.518   2.411   6.325  0.00  0.00    +0.000 A 
ATOM     19  C   UNL     1      47.370   1.288   7.135  0.00  0.00    +0.000 A 
ATOM     20  C   UNL     1      46.372   1.257   8.110  0.00  0.00    +0.000 A 
ENDBRANCH  14  15
ENDBRANCH  12  14
ENDBRANCH   4  12
TORSDOF 4
ENDMDL
MODEL 4
REMARK VINA RESULT:    -7.052      3.325      6.298
REMARK INTER + INTRA:          -9.051
REMARK INTER:                  -8.691
REMARK INTRA:                  -0.361
REMARK UNBOUND:                -0.351
REMARK  Name = 
REMARK  4 active torsions:
REMARK  status: ('A' for Active; 'I' for Inactive)
REMARK    1  A    between atoms: C_2  and  C_4
REMARK    2  A    between atoms: C_7  and  N_8
REMARK    3  A    between atoms: N_8  and  C_9
REMARK    4  A    between atoms: C_9  and  C_10
REMARK                            x       y       z     vdW  Elec       q    Type
REMARK                         _______ _______ _______ _____ _____    ______ ____
ROOT
ATOM      1  C   UNL     1      45.504   6.672  12.386  0.00  0.00    +0.000 A 
ATOM      2  C   UNL     1      46.163   5.568  12.896  0.00  0.00    +0.000 A 
ATOM      3  N   UNL     1      45.955   4.312  12.412  0.00  0.00    +0.000 NA
ATOM      4  C   UNL     1      45.043   4.178  11.427  0.00  0.00    +0.000 A 
ATOM      5  C   UNL     1      44.421   5.320  10.902  0.00  0.00    +0.000 A 
ATOM      6  N   UNL     1      44.616   6.583  11.361  0.00  0.00    +0.000 NA
ENDROOT
BRANCH   1   8
ATOM      7  N   UNL     1      46.752   8.094  13.887  0.00  0.00    +0.000 N 
ATOM      8  C   UNL     1      45.753   8.024  12.952  0.00  0.00    +0.000 C 
ATOM      9  O   UNL     1      45.114   9.011  12.608  0.00  0.00    +0.000 OA
ATOM     10  H   UNL     1      46.977   8.982  14.312  0.00  0.00    +0.000 HD
ATOM     11  H   UNL     1      47.274   7.260  14.129  0.00  0.00    +0.000 HD
ENDBRANCH   1   8
BRANCH   4  12
ATOM     12  N   UNL     1      44.838   2.888  10.947  0.00  0.00    +0.000 N 
ATOM     13  H   UNL     1      45.695   2.355  11.080  0.00  0.00    +0.000 HD
BRANCH  12  14
ATOM     14  C   UNL     1      44.347   2.768   9.581  0.00  0.00    +0.000 C 
BRANCH  14  15
ATOM     15  C   UNL     1      45.468   2.629   8.577  0.00  0.00    +0.000 A 
ATOM     16  C   UNL     1      46.085   1.397   8.313  0.00  0.00    +0.000 A 
ATOM     17  C   UNL     1      47.040   1.282   7.300  0.00  0.00    +0.000 A 
ATOM     18  C   UNL     1      47.378   2.393   6.529  0.00  0.00    +0.000 A 
ATOM     19  C   UNL     1      46.768   3.620   6.773  0.00  0.00    +0.000 A 
ATOM     20  C   UNL     1      45.818   3.738   7.789  0.00  0.00    +0.000 A 
ENDBRANCH  14  15
ENDBRANCH  12  14
ENDBRANCH   4  12
TORSDOF 4
ENDMDL
MODEL 5
REMARK VINA RESULT:    -5.854      4.127      5.906
REMARK INTER + INTRA:          -7.574
REMARK INTER:                  -7.275
REMARK INTRA:                  -0.299
REMARK UNBOUND:                -0.351
REMARK  Name = 
REMARK  4 active torsions:
REMARK  status: ('A' for Active; 'I' for Inactive)
REMARK    1  A    between atoms: C_2  and  C_4
REMARK    2  A    between atoms: C_7  and  N_8
REMARK    3  A    between atoms: N_8  and  C_9
REMARK    4  A    between atoms: C_9  and  C_10
REMARK                            x       y       z     vdW  Elec       q    Type
REMARK                         _______ _______ _______ _____ _____    ______ ____
ROOT
ATOM      1  C   UNL     1      45.189   4.329  11.792  0.00  0.00    +0.000 A 
ATOM      2  C   UNL     1      45.704   3.305  12.568  0.00  0.00    +0.000 A 
ATOM      3  N   UNL     1      46.378   3.542  13.727  0.00  0.00    +0.000 NA
ATOM      4  C   UNL     1      46.559   4.832  14.077  0.00  0.00    +0.000 A 
ATOM      5  C   UNL     1      45.991   5.847  13.294  0.00  0.00    +0.000 A 
ATOM      6  N   UNL     1      45.309   5.638  12.139  0.00  0.00    +0.000 NA
ENDROOT
BRANCH   1   8
ATOM      7  N   UNL     1      45.121   4.387   9.379  0.00  0.00    +0.000 N 
ATOM      8  C   UNL     1      44.469   4.026  10.528  0.00  0.00    +0.000 C 
ATOM      9  O   UNL     1      43.368   3.489  10.509  0.00  0.00    +0.000 OA
ATOM     10  H   UNL     1      44.691   4.210   8.483  0.00  0.00    +0.000 HD
ATOM     11  H   UNL     1      46.041   4.809   9.434  0.00  0.00    +0.000 HD
ENDBRANCH   1   8
BRANCH   4  12
ATOM     12  N   UNL     1      47.255   5.057  15.262  0.00  0.00    +0.000 N 
ATOM     13  H   UNL     1      48.222   5.271  15.031  0.00  0.00    +0.000 HD
BRANCH  12  14
ATOM     14  C   UNL     1      47.173   4.015  16.277  0.00  0.00    +0.000 C 
BRANCH  14  15
ATOM     15  C   UNL     1      48.531   3.627  16.815  0.00  0.00    +0.000 A 
ATOM     16  C   UNL     1      49.028   2.320  16.713  0.00  0.00    +0.000 A 
ATOM     17  C   UNL     1      50.331   2.020  17.121  0.00  0.00    +0.000 A 
ATOM     18  C   UNL     1      51.155   3.026  17.621  0.00  0.00    +0.000 A 
ATOM     19  C   UNL     1      50.679   4.331  17.720  0.00  0.00    +0.000 A 
ATOM     20  C   UNL     1      49.376   4.630  17.318  0.00  0.00    +0.000 A 
ENDBRANCH  14  15
ENDBRANCH  12  14
ENDBRANCH   4  12
TORSDOF 4
ENDMDL
MODEL 6
REMARK VINA RESULT:    -5.852      3.730      6.232
REMARK INTER + INTRA:          -7.571
REMARK INTER:                  -7.219
REMARK INTRA:                  -0.352
REMARK UNBOUND:                -0.351
REMARK  Name = 
REMARK  4 active torsions:
REMARK  status: ('A' for Active; 'I' for Inactive)
REMARK    1  A    between atoms: C_2  and  C_4
REMARK    2  A    between atoms: C_7  and  N_8
REMARK    3  A    between atoms: N_8  and  C_9
REMARK    4  A    between atoms: C_9  and  C_10
REMARK                            x       y       z     vdW  Elec       q    Type
REMARK                         _______ _______ _______ _____ _____    ______ ____
ROOT
ATOM      1  C   UNL     1      47.757   7.037  12.795  0.00  0.00    +0.000 A 
ATOM      2  C   UNL     1      47.551   5.819  13.420  0.00  0.00    +0.000 A 
ATOM      3  N   UNL     1      46.558   4.968  13.040  0.00  0.00    +0.000 NA
ATOM      4  C   UNL     1      45.748   5.378  12.043  0.00  0.00    +0.000 A 
ATOM      5  C   UNL     1      46.005   6.598  11.401  0.00  0.00    +0.000 A 
ATOM      6  N   UNL     1      46.992   7.461  11.755  0.00  0.00    +0.000 NA
ENDROOT
BRANCH   1   8
ATOM      7  N   UNL     1      50.007   7.317  13.624  0.00  0.00    +0.000 N 
ATOM      8  C   UNL     1      48.847   7.940  13.249  0.00  0.00    +0.000 C 
ATOM      9  O   UNL     1      48.722   9.158  13.284  0.00  0.00    +0.000 OA
ATOM     10  H   UNL     1      50.791   7.869  13.942  0.00  0.00    +0.000 HD
ATOM     11  H   UNL     1      50.081   6.308  13.560  0.00  0.00    +0.000 HD
ENDBRANCH   1   8
BRANCH   4  12
ATOM     12  N   UNL     1      44.735   4.499  11.671  0.00  0.00    +0.000 N 
ATOM     13  H   UNL     1      45.023   3.554  11.912  0.00  0.00    +0.000 HD
BRANCH  12  14
ATOM     14  C   UNL     1      44.276   4.576  10.291  0.00  0.00    +0.000 C 
BRANCH  14  15
ATOM     15  C   UNL     1      45.139   3.765   9.352  0.00  0.00    +0.000 A 
ATOM     16  C   UNL     1      45.186   2.364   9.404  0.00  0.00    +0.000 A 
ATOM     17  C   UNL     1      45.907   1.640   8.450  0.00  0.00    +0.000 A 
ATOM     18  C   UNL     1      46.575   2.307   7.426  0.00  0.00    +0.000 A 
ATOM     19  C   UNL     1      46.530   3.697   7.355  0.00  0.00    +0.000 A 
ATOM     20  C   UNL     1      45.816   4.421   8.310  0.00  0.00    +0.000 A 
ENDBRANCH  14  15
ENDBRANCH  12  14
ENDBRANCH   4  12
TORSDOF 4
ENDMDL
MODEL 7
REMARK VINA RESULT:    -5.660      4.576      6.748
REMARK INTER + INTRA:          -7.335
REMARK INTER:                  -7.135
REMARK INTRA:                  -0.199
REMARK UNBOUND:                -0.351
REMARK  Name = 
REMARK  4 active torsions:
REMARK  status: ('A' for Active; 'I' for Inactive)
REMARK    1  A    between atoms: C_2  and  C_4
REMARK    2  A    between atoms: C_7  and  N_8
REMARK    3  A    between atoms: N_8  and  C_9
REMARK    4  A    between atoms: C_9  and  C_10
REMARK                            x       y       z     vdW  Elec       q    Type
REMARK                         _______ _______ _______ _____ _____    ______ ____
ROOT
ATOM      1  C   UNL     1      47.478   4.374  15.929  0.00  0.00    +0.000 A 
ATOM      2  C   UNL     1      48.227   5.531  15.807  0.00  0.00    +0.000 A 
ATOM      3  N   UNL     1      48.253   6.261  14.657  0.00  0.00    +0.000 NA
ATOM      4  C   UNL     1      47.538   5.788  13.616  0.00  0.00    +0.000 A 
ATOM      5  C   UNL     1      46.756   4.636  13.781  0.00  0.00    +0.000 A 
ATOM      6  N   UNL     1      46.707   3.895  14.917  0.00  0.00    +0.000 NA
ENDROOT
BRANCH   1   8
ATOM      7  N   UNL     1      48.599   3.771  17.980  0.00  0.00    +0.000 N 
ATOM      8  C   UNL     1      47.487   3.602  17.199  0.00  0.00    +0.000 C 
ATOM      9  O   UNL     1      46.566   2.866  17.529  0.00  0.00    +0.000 OA
ATOM     10  H   UNL     1      48.673   3.279  18.858  0.00  0.00    +0.000 HD
ATOM     11  H   UNL     1      49.331   4.407  17.684  0.00  0.00    +0.000 HD
ENDBRANCH   1   8
BRANCH   4  12
ATOM     12  N   UNL     1      47.580   6.543  12.446  0.00  0.00    +0.000 N 
ATOM     13  H   UNL     1      48.342   7.212  12.522  0.00  0.00    +0.000 HD
BRANCH  12  14
ATOM     14  C   UNL     1      46.341   7.195  12.045  0.00  0.00    +0.000 C 
BRANCH  14  15
ATOM     15  C   UNL     1      45.462   6.296  11.208  0.00  0.00    +0.000 A 
ATOM     16  C   UNL     1      45.958   5.578  10.110  0.00  0.00    +0.000 A 
ATOM     17  C   UNL     1      45.145   4.671   9.426  0.00  0.00    +0.000 A 
ATOM     18  C   UNL     1      43.831   4.459   9.840  0.00  0.00    +0.000 A 
ATOM     19  C   UNL     1      43.327   5.157  10.934  0.00  0.00    +0.000 A 
ATOM     20  C   UNL     1      44.136   6.068  11.615  0.00  0.00    +0.000 A 
ENDBRANCH  14  15
ENDBRANCH  12  14
ENDBRANCH   4  12
TORSDOF 4
ENDMDL
MODEL 8
REMARK VINA RESULT:    -5.621      4.807      7.329
REMARK INTER + INTRA:          -7.286
REMARK INTER:                  -7.007
REMARK INTRA:                  -0.279
REMARK UNBOUND:                -0.351
REMARK  Name = 
REMARK  4 active torsions:
REMARK  status: ('A' for Active; 'I' for Inactive)
REMARK    1  A    between atoms: C_2  and  C_4
REMARK    2  A    between atoms: C_7  and  N_8
REMARK    3  A    between atoms: N_8  and  C_9
REMARK    4  A    between atoms: C_9  and  C_10
REMARK                            x       y       z     vdW  Elec       q    Type
REMARK                         _______ _______ _______ _____ _____    ______ ____
ROOT
ATOM      1  C   UNL     1      48.241   5.723  15.938  0.00  0.00    +0.000 A 
ATOM      2  C   UNL     1      47.591   4.564  16.323  0.00  0.00    +0.000 A 
ATOM      3  N   UNL     1      46.860   3.819  15.448  0.00  0.00    +0.000 NA
ATOM      4  C   UNL     1      46.762   4.278  14.184  0.00  0.00    +0.000 A 
ATOM      5  C   UNL     1      47.465   5.433  13.813  0.00  0.00    +0.000 A 
ATOM      6  N   UNL     1      48.206   6.190  14.662  0.00  0.00    +0.000 NA
ENDROOT
BRANCH   1   8
ATOM      7  N   UNL     1      48.278   7.139  17.894  0.00  0.00    +0.000 N 
ATOM      8  C   UNL     1      49.020   6.512  16.928  0.00  0.00    +0.000 C 
ATOM      9  O   UNL     1      50.241   6.598  16.889  0.00  0.00    +0.000 OA
ATOM     10  H   UNL     1      48.742   7.691  18.601  0.00  0.00    +0.000 HD
ATOM     11  H   UNL     1      47.271   7.026  17.908  0.00  0.00    +0.000 HD
ENDBRANCH   1   8
BRANCH   4  12
ATOM     12  N   UNL     1      46.007   3.508  13.305  0.00  0.00    +0.000 N 
ATOM     13  H   UNL     1      46.641   3.032  12.668  0.00  0.00    +0.000 HD
BRANCH  12  14
ATOM     14  C   UNL     1      44.946   4.194  12.580  0.00  0.00    +0.000 C 
BRANCH  14  15
ATOM     15  C   UNL     1      45.018   3.954  11.090  0.00  0.00    +0.000 A 
ATOM     16  C   UNL     1      44.517   2.787  10.497  0.00  0.00    +0.000 A 
ATOM     17  C   UNL     1      44.499   2.645   9.107  0.00  0.00    +0.000 A 
ATOM     18  C   UNL     1      44.967   3.676   8.294  0.00  0.00    +0.000 A 
ATOM     19  C   UNL     1      45.459   4.845   8.867  0.00  0.00    +0.000 A 
ATOM     20  C   UNL     1      45.483   4.985  10.256  0.00  0.00    +0.000 A 
ENDBRANCH  14  15
ENDBRANCH  12  14
ENDBRANCH   4  12
TORSDOF 4
ENDMDL
MODEL 9
REMARK VINA RESULT:    -5.525      3.231      4.977
REMARK INTER + INTRA:          -7.168
REMARK INTER:                  -6.877
REMARK INTRA:                  -0.291
REMARK UNBOUND:                -0.351
REMARK  Name = 
REMARK  4 active torsions:
REMARK  status: ('A' for Active; 'I' for Inactive)
REMARK    1  A    between atoms: C_2  and  C_4
REMARK    2  A    between atoms: C_7  and  N_8
REMARK    3  A    between atoms: N_8  and  C_9
REMARK    4  A    between atoms: C_9  and  C_10
REMARK                            x       y       z     vdW  Elec       q    Type
REMARK                         _______ _______ _______ _____ _____    ______ ____
ROOT
ATOM      1  C   UNL     1      44.480   4.068  11.668  0.00  0.00    +0.000 A 
ATOM      2  C   UNL     1      44.486   5.285  11.010  0.00  0.00    +0.000 A 
ATOM      3  N   UNL     1      45.072   6.394  11.542  0.00  0.00    +0.000 NA
ATOM      4  C   UNL     1      45.620   6.268  12.768  0.00  0.00    +0.000 A 
ATOM      5  C   UNL     1      45.635   5.013  13.393  0.00  0.00    +0.000 A 
ATOM      6  N   UNL     1      45.066   3.892  12.882  0.00  0.00    +0.000 NA
ENDROOT
BRANCH   1   8
ATOM      7  N   UNL     1      44.237   2.572   9.788  0.00  0.00    +0.000 N 
ATOM      8  C   UNL     1      43.820   2.886  11.055  0.00  0.00    +0.000 C 
ATOM      9  O   UNL     1      42.964   2.232  11.638  0.00  0.00    +0.000 OA
ATOM     10  H   UNL     1      43.832   1.780   9.311  0.00  0.00    +0.000 HD
ATOM     11  H   UNL     1      44.964   3.123   9.347  0.00  0.00    +0.000 HD
ENDBRANCH   1   8
BRANCH   4  12
ATOM     12  N   UNL     1      46.209   7.412  13.300  0.00  0.00    +0.000 N 
ATOM     13  H   UNL     1      45.649   7.725  14.089  0.00  0.00    +0.000 HD
BRANCH  12  14
ATOM     14  C   UNL     1      46.471   8.505  12.373  0.00  0.00    +0.000 C 
BRANCH  14  15
ATOM     15  C   UNL     1      47.942   8.659  12.066  0.00  0.00    +0.000 A 
ATOM     16  C   UNL     1      48.809   7.559  11.996  0.00  0.00    +0.000 A 
ATOM     17  C   UNL     1      50.139   7.725  11.600  0.00  0.00    +0.000 A 
ATOM     18  C   UNL     1      50.613   8.989  11.256  0.00  0.00    +0.000 A 
ATOM     19  C   UNL     1      49.762  10.089  11.311  0.00  0.00    +0.000 A 
ATOM     20  C   UNL     1      48.435   9.926  11.712  0.00  0.00    +0.000 A 
ENDBRANCH  14  15
ENDBRANCH  12  14
ENDBRANCH   4  12
TORSDOF 4
ENDMDL
