MODEL 1
REMARK VINA RESULT:    -8.509      0.000      0.000
REMARK INTER + INTRA:         -11.199
REMARK INTER:                 -10.499
REMARK INTRA:                  -0.700
REMARK UNBOUND:                -0.700
REMARK  Name = 
REMARK  4 active torsions:
REMARK  status: ('A' for Active; 'I' for Inactive)
REMARK    1  A    between atoms: C_2  and  C_4
REMARK    2  A    between atoms: C_7  and  N_8
REMARK    3  A    between atoms: N_8  and  C_9
REMARK    4  A    between atoms: C_9  and  C_10
REMARK                            x       y       z     vdW  Elec       q    Type
REMARK                         _______ _______ _______ _____ _____    ______ ____
ROOT
ATOM      1  C   UNL     1      46.366   2.281   7.770  0.00  0.00    +0.000 A 
ATOM      2  C   UNL     1      45.451   1.754   8.685  0.00  0.00    +0.000 A 
ATOM      3  C   UNL     1      44.598   2.612   9.395  0.00  0.00    +0.000 A 
ATOM      4  C   UNL     1      44.668   4.001   9.220  0.00  0.00    +0.000 A 
ATOM      5  C   UNL     1      45.543   4.506   8.256  0.00  0.00    +0.000 A 
ATOM      6  C   UNL     1      46.402   3.660   7.551  0.00  0.00    +0.000 A 
ENDROOT
BRANCH   1   8
ATOM      7  N   UNL     1      48.457   2.037   6.541  0.00  0.00    +0.000 N 
ATOM      8  C   UNL     1      47.336   1.431   7.036  0.00  0.00    +0.000 C 
ATOM      9  O   UNL     1      47.162   0.227   6.899  0.00  0.00    +0.000 OA
ATOM     10  H   UNL     1      49.154   1.417   6.148  0.00  0.00    +0.000 HD
ATOM     11  H   UNL     1      48.761   2.946   6.857  0.00  0.00    +0.000 HD
ENDBRANCH   1   8
BRANCH   4  12
ATOM     12  N   UNL     1      43.817   4.839   9.983  0.00  0.00    +0.000 N 
ATOM     13  H   UNL     1      42.863   4.835   9.634  0.00  0.00    +0.000 HD
BRANCH  12  14
ATOM     14  C   UNL     1      43.943   4.880  11.465  0.00  0.00    +0.000 C 
ATOM     15  C   UNL     1      43.120   3.875  12.258  0.00  0.00    +0.000 C 
ATOM     16  C   UNL     1      42.735   5.315  12.297  0.00  0.00    +0.000 C 
BRANCH  14  17
ATOM     17  C   UNL     1      45.258   5.477  11.981  0.00  0.00    +0.000 A 
ATOM     18  C   UNL     1      45.934   4.876  13.061  0.00  0.00    +0.000 A 
ATOM     19  C   UNL     1      47.205   5.296  13.463  0.00  0.00    +0.000 A 
ATOM     20  C   UNL     1      47.835   6.337  12.789  0.00  0.00    +0.000 A 
ATOM     21  C   UNL     1      47.176   6.982  11.748  0.00  0.00    +0.000 A 
ATOM     22  C   UNL     1      45.898   6.565  11.361  0.00  0.00    +0.000 A 
ENDBRANCH  14  17
ENDBRANCH  12  14
ENDBRANCH   4  12
TORSDOF 4
ENDMDL
MODEL 2
REMARK VINA RESULT:    -8.470      0.125      1.112
REMARK INTER + INTRA:         -11.151
REMARK INTER:                 -10.411
REMARK INTRA:                  -0.740
REMARK UNBOUND:                -0.700
REMARK  Name = 
REMARK  4 active torsions:
REMARK  status: ('A' for Active; 'I' for Inactive)
REMARK    1  A    between atoms: C_2  and  C_4
REMARK    2  A    between atoms: C_7  and  N_8
REMARK    3  A    between atoms: N_8  and  C_9
REMARK    4  A    between atoms: C_9  and  C_10
REMARK                            x       y       z     vdW  Elec       q    Type
REMARK                         _______ _______ _______ _____ _____    ______ ____
ROOT
ATOM      1  C   UNL     1      46.436   2.354   7.726  0.00  0.00    +0.000 A 
ATOM      2  C   UNL     1      46.474   3.744   7.586  0.00  0.00    +0.000 A 
ATOM      3  C   UNL     1      45.626   4.549   8.363  0.00  0.00    +0.000 A 
ATOM      4  C   UNL     1      44.717   3.975   9.264  0.00  0.00    +0.000 A 
ATOM      5  C   UNL     1      44.738   2.589   9.437  0.00  0.00    +0.000 A 
ATOM      6  C   UNL     1      45.572   1.781   8.660  0.00  0.00    +0.000 A 
ENDROOT
BRANCH   1   8
ATOM      7  N   UNL     1      48.308   2.003   6.205  0.00  0.00    +0.000 N 
ATOM      8  C   UNL     1      47.262   1.449   6.889  0.00  0.00    +0.000 C 
ATOM      9  O   UNL     1      47.042   0.246   6.830  0.00  0.00    +0.000 OA
ATOM     10  H   UNL     1      48.922   1.349   5.737  0.00  0.00    +0.000 HD
ATOM     11  H   UNL     1      48.677   2.914   6.433  0.00  0.00    +0.000 HD
ENDBRANCH   1   8
BRANCH   4  12
ATOM     12  N   UNL     1      43.851   4.817  10.004  0.00  0.00    +0.000 N 
ATOM     13  H   UNL     1      42.899   4.795   9.647  0.00  0.00    +0.000 HD
BRANCH  12  14
ATOM     14  C   UNL     1      43.963   4.888  11.486  0.00  0.00    +0.000 C 
ATOM     15  C   UNL     1      43.109   3.919  12.292  0.00  0.00    +0.000 C 
ATOM     16  C   UNL     1      42.758   5.368  12.296  0.00  0.00    +0.000 C 
BRANCH  14  17
ATOM     17  C   UNL     1      45.287   5.465  12.002  0.00  0.00    +0.000 A 
ATOM     18  C   UNL     1      45.967   4.839  13.064  0.00  0.00    +0.000 A 
ATOM     19  C   UNL     1      47.244   5.242  13.462  0.00  0.00    +0.000 A 
ATOM     20  C   UNL     1      47.876   6.291  12.804  0.00  0.00    +0.000 A 
ATOM     21  C   UNL     1      47.213   6.962  11.782  0.00  0.00    +0.000 A 
ATOM     22  C   UNL     1      45.929   6.561  11.398  0.00  0.00    +0.000 A 
ENDBRANCH  14  17
ENDBRANCH  12  14
ENDBRANCH   4  12
TORSDOF 4
ENDMDL
MODEL 3
REMARK VINA RESULT:    -6.246      3.231      6.164
REMARK INTER + INTRA:          -8.406
REMARK INTER:                  -8.231
REMARK INTRA:                  -0.175
REMARK UNBOUND:                -0.700
REMARK  Name = 
REMARK  4 active torsions:
REMARK  status: ('A' for Active; 'I' for Inactive)
REMARK    1  A    between atoms: C_2  and  C_4
REMARK    2  A    between atoms: C_7  and  N_8
REMARK    3  A    between atoms: N_8  and  C_9
REMARK    4  A    between atoms: C_9  and  C_10
REMARK                            x       y       z     vdW  Elec       q    Type
REMARK                         _______ _______ _______ _____ _____    ______ ____
ROOT
ATOM      1  C   UNL     1      47.460   6.788  13.621  0.00  0.00    +0.000 A 
ATOM      2  C   UNL     1      47.611   5.590  14.325  0.00  0.00    +0.000 A 
ATOM      3  C   UNL     1      46.956   4.431  13.882  0.00  0.00    +0.000 A 
ATOM      4  C   UNL     1      46.125   4.462  12.753  0.00  0.00    +0.000 A 
ATOM      5  C   UNL     1      46.037   5.651  12.025  0.00  0.00    +0.000 A 
ATOM      6  C   UNL     1      46.679   6.811  12.464  0.00  0.00    +0.000 A 
ENDROOT
BRANCH   1   8
ATOM      7  N   UNL     1      47.290   8.923  14.785  0.00  0.00    +0.000 N 
ATOM      8  C   UNL     1      48.077   8.059  14.075  0.00  0.00    +0.000 C 
ATOM      9  O   UNL     1      49.252   8.321  13.853  0.00  0.00    +0.000 OA
ATOM     10  H   UNL     1      47.764   9.724  15.180  0.00  0.00    +0.000 HD
ATOM     11  H   UNL     1      46.422   8.634  15.210  0.00  0.00    +0.000 HD
ENDBRANCH   1   8
BRANCH   4  12
ATOM     12  N   UNL     1      45.449   3.281  12.357  0.00  0.00    +0.000 N 
ATOM     13  H   UNL     1      45.207   2.695  13.151  0.00  0.00    +0.000 HD
BRANCH  12  14
ATOM     14  C   UNL     1      44.425   3.332  11.280  0.00  0.00    +0.000 C 
ATOM     15  C   UNL     1      43.122   4.052  11.596  0.00  0.00    +0.000 C 
ATOM     16  C   UNL     1      43.114   2.567  11.470  0.00  0.00    +0.000 C 
BRANCH  14  17
ATOM     17  C   UNL     1      44.983   3.200   9.858  0.00  0.00    +0.000 A 
ATOM     18  C   UNL     1      45.237   4.350   9.085  0.00  0.00    +0.000 A 
ATOM     19  C   UNL     1      45.883   4.281   7.849  0.00  0.00    +0.000 A 
ATOM     20  C   UNL     1      46.292   3.049   7.349  0.00  0.00    +0.000 A 
ATOM     21  C   UNL     1      46.014   1.889   8.064  0.00  0.00    +0.000 A 
ATOM     22  C   UNL     1      45.354   1.966   9.295  0.00  0.00    +0.000 A 
ENDBRANCH  14  17
ENDBRANCH  12  14
ENDBRANCH   4  12
TORSDOF 4
ENDMDL
MODEL 4
REMARK VINA RESULT:    -5.942      3.506      6.164
REMARK INTER + INTRA:          -8.031
REMARK INTER:                  -7.815
REMARK INTRA:                  -0.216
REMARK UNBOUND:                -0.700
REMARK  Name = 
REMARK  4 active torsions:
REMARK  status: ('A' for Active; 'I' for Inactive)
REMARK    1  A    between atoms: C_2  and  C_4
REMARK    2  A    between atoms: C_7  and  N_8
REMARK    3  A    between atoms: N_8  and  C_9
REMARK    4  A    between atoms: C_9  and  C_10
REMARK                            x       y       z     vdW  Elec       q    Type
REMARK                         _______ _______ _______ _____ _____    ______ ____
ROOT
ATOM      1  C   UNL     1      48.745   7.451  12.986  0.00  0.00    +0.000 A 
ATOM      2  C   UNL     1      48.037   7.408  11.782  0.00  0.00    +0.000 A 
ATOM      3  C   UNL     1      46.945   6.538  11.643  0.00  0.00    +0.000 A 
ATOM      4  C   UNL     1      46.566   5.687  12.691  0.00  0.00    +0.000 A 
ATOM      5  C   UNL     1      47.244   5.789  13.908  0.00  0.00    +0.000 A 
ATOM      6  C   UNL     1      48.338   6.645  14.051  0.00  0.00    +0.000 A 
ENDROOT
BRANCH   1   8
ATOM      7  N   UNL     1      51.055   7.719  13.718  0.00  0.00    +0.000 N 
ATOM      8  C   UNL     1      49.945   8.303  13.172  0.00  0.00    +0.000 C 
ATOM      9  O   UNL     1      49.962   9.477  12.826  0.00  0.00    +0.000 OA
ATOM     10  H   UNL     1      51.891   8.288  13.726  0.00  0.00    +0.000 HD
ATOM     11  H   UNL     1      51.167   6.717  13.765  0.00  0.00    +0.000 HD
ENDBRANCH   1   8
BRANCH   4  12
ATOM     12  N   UNL     1      45.482   4.795  12.501  0.00  0.00    +0.000 N 
ATOM     13  H   UNL     1      45.019   4.564  13.376  0.00  0.00    +0.000 HD
BRANCH  12  14
ATOM     14  C   UNL     1      44.573   4.961  11.335  0.00  0.00    +0.000 C 
ATOM     15  C   UNL     1      43.776   6.255  11.257  0.00  0.00    +0.000 C 
ATOM     16  C   UNL     1      43.063   4.984  11.572  0.00  0.00    +0.000 C 
BRANCH  14  17
ATOM     17  C   UNL     1      44.962   4.142  10.098  0.00  0.00    +0.000 A 
ATOM     18  C   UNL     1      45.564   4.771   8.991  0.00  0.00    +0.000 A 
ATOM     19  C   UNL     1      46.069   4.042   7.911  0.00  0.00    +0.000 A 
ATOM     20  C   UNL     1      45.981   2.655   7.911  0.00  0.00    +0.000 A 
ATOM     21  C   UNL     1      45.350   2.005   8.966  0.00  0.00    +0.000 A 
ATOM     22  C   UNL     1      44.835   2.743  10.037  0.00  0.00    +0.000 A 
ENDBRANCH  14  17
ENDBRANCH  12  14
ENDBRANCH   4  12
TORSDOF 4
ENDMDL
MODEL 5
REMARK VINA RESULT:    -5.771      2.611      4.291
REMARK INTER + INTRA:          -7.820
REMARK INTER:                  -7.342
REMARK INTRA:                  -0.478
REMARK UNBOUND:                -0.700
REMARK  Name = 
REMARK  4 active torsions:
REMARK  status: ('A' for Active; 'I' for Inactive)
REMARK    1  A    between atoms: C_2  and  C_4
REMARK    2  A    between atoms: C_7  and  N_8
REMARK    3  A    between atoms: N_8  and  C_9
REMARK    4  A    between atoms: C_9  and  C_10
REMARK                            x       y       z     vdW  Elec       q    Type
REMARK                         _______ _______ _______ _____ _____    ______ ____
ROOT
ATOM      1  C   UNL     1      45.009   3.761  10.097  0.00  0.00    +0.000 A 
ATOM      2  C   UNL     1      44.916   3.320  11.420  0.00  0.00    +0.000 A 
ATOM      3  C   UNL     1      45.226   4.195  12.472  0.00  0.00    +0.000 A 
ATOM      4  C   UNL     1      45.655   5.505  12.215  0.00  0.00    +0.000 A 
ATOM      5  C   UNL     1      45.680   5.948  10.891  0.00  0.00    +0.000 A 
ATOM      6  C   UNL     1      45.383   5.081   9.837  0.00  0.00    +0.000 A 
ENDROOT
BRANCH   1   8
ATOM      7  N   UNL     1      44.659   1.525   9.192  0.00  0.00    +0.000 N 
ATOM      8  C   UNL     1      44.754   2.866   8.942  0.00  0.00    +0.000 C 
ATOM      9  O   UNL     1      44.605   3.303   7.808  0.00  0.00    +0.000 OA
ATOM     10  H   UNL     1      44.370   0.952   8.410  0.00  0.00    +0.000 HD
ATOM     11  H   UNL     1      44.510   1.161  10.122  0.00  0.00    +0.000 HD
ENDBRANCH   1   8
BRANCH   4  12
ATOM     12  N   UNL     1      45.997   6.347  13.302  0.00  0.00    +0.000 N 
ATOM     13  H   UNL     1      45.932   5.866  14.194  0.00  0.00    +0.000 HD
BRANCH  12  14
ATOM     14  C   UNL     1      47.137   7.296  13.182  0.00  0.00    +0.000 C 
ATOM     15  C   UNL     1      48.524   6.693  13.007  0.00  0.00    +0.000 C 
ATOM     16  C   UNL     1      48.178   7.345  14.302  0.00  0.00    +0.000 C 
BRANCH  14  17
ATOM     17  C   UNL     1      46.760   8.690  12.668  0.00  0.00    +0.000 A 
ATOM     18  C   UNL     1      47.744   9.531  12.111  0.00  0.00    +0.000 A 
ATOM     19  C   UNL     1      47.418  10.742  11.496  0.00  0.00    +0.000 A 
ATOM     20  C   UNL     1      46.090  11.147  11.424  0.00  0.00    +0.000 A 
ATOM     21  C   UNL     1      45.099  10.364  12.005  0.00  0.00    +0.000 A 
ATOM     22  C   UNL     1      45.435   9.159  12.631  0.00  0.00    +0.000 A 
ENDBRANCH  14  17
ENDBRANCH  12  14
ENDBRANCH   4  12
TORSDOF 4
ENDMDL
MODEL 6
REMARK VINA RESULT:    -5.611      3.055      5.208
REMARK INTER + INTRA:          -7.623
REMARK INTER:                  -7.031
REMARK INTRA:                  -0.593
REMARK UNBOUND:                -0.700
REMARK  Name = 
REMARK  4 active torsions:
REMARK  status: ('A' for Active; 'I' for Inactive)
REMARK    1  A    between atoms: C_2  and  C_4
REMARK    2  A    between atoms: C_7  and  N_8
REMARK    3  A    between atoms: N_8  and  C_9
REMARK    4  A    between atoms: C_9  and  C_10
REMARK                            x       y       z     vdW  Elec       q    Type
REMARK                         _______ _______ _______ _____ _____    ______ ____
ROOT
ATOM      1  C   UNL     1      44.741   4.123  11.388  0.00  0.00    +0.000 A 
ATOM      2  C   UNL     1      45.185   5.204  10.621  0.00  0.00    +0.000 A 
ATOM      3  C   UNL     1      45.679   6.355  11.252  0.00  0.00    +0.000 A 
ATOM      4  C   UNL     1      45.711   6.449  12.651  0.00  0.00    +0.000 A 
ATOM      5  C   UNL     1      45.324   5.336  13.401  0.00  0.00    +0.000 A 
ATOM      6  C   UNL     1      44.822   4.190  12.780  0.00  0.00    +0.000 A 
ENDROOT
BRANCH   1   8
ATOM      7  N   UNL     1      44.854   2.299   9.776  0.00  0.00    +0.000 N 
ATOM      8  C   UNL     1      44.151   2.905  10.780  0.00  0.00    +0.000 C 
ATOM      9  O   UNL     1      43.091   2.437  11.174  0.00  0.00    +0.000 OA
ATOM     10  H   UNL     1      44.489   1.410   9.460  0.00  0.00    +0.000 HD
ATOM     11  H   UNL     1      45.831   2.490   9.612  0.00  0.00    +0.000 HD
ENDBRANCH   1   8
BRANCH   4  12
ATOM     12  N   UNL     1      46.181   7.642  13.254  0.00  0.00    +0.000 N 
ATOM     13  H   UNL     1      45.730   7.823  14.147  0.00  0.00    +0.000 HD
BRANCH  12  14
ATOM     14  C   UNL     1      47.628   7.986  13.202  0.00  0.00    +0.000 C 
ATOM     15  C   UNL     1      48.614   6.890  13.581  0.00  0.00    +0.000 C 
ATOM     16  C   UNL     1      48.422   8.042  14.508  0.00  0.00    +0.000 C 
BRANCH  14  17
ATOM     17  C   UNL     1      47.979   9.135  12.249  0.00  0.00    +0.000 A 
ATOM     18  C   UNL     1      47.050  10.165  12.006  0.00  0.00    +0.000 A 
ATOM     19  C   UNL     1      47.385  11.302  11.267  0.00  0.00    +0.000 A 
ATOM     20  C   UNL     1      48.667  11.437  10.747  0.00  0.00    +0.000 A 
ATOM     21  C   UNL     1      49.595  10.417  10.927  0.00  0.00    +0.000 A 
ATOM     22  C   UNL     1      49.247   9.275  11.656  0.00  0.00    +0.000 A 
ENDBRANCH  14  17
ENDBRANCH  12  14
ENDBRANCH   4  12
TORSDOF 4
ENDMDL
MODEL 7
REMARK VINA RESULT:    -5.548      3.442      6.270
REMARK INTER + INTRA:          -7.546
REMARK INTER:                  -7.813
REMARK INTRA:                   0.267
REMARK UNBOUND:                -0.700
REMARK  Name = 
REMARK  4 active torsions:
REMARK  status: ('A' for Active; 'I' for Inactive)
REMARK    1  A    between atoms: C_2  and  C_4
REMARK    2  A    between atoms: C_7  and  N_8
REMARK    3  A    between atoms: N_8  and  C_9
REMARK    4  A    between atoms: C_9  and  C_10
REMARK                            x       y       z     vdW  Elec       q    Type
REMARK                         _______ _______ _______ _____ _____    ______ ____
ROOT
ATOM      1  C   UNL     1      47.834   7.754  13.659  0.00  0.00    +0.000 A 
ATOM      2  C   UNL     1      46.708   8.578  13.566  0.00  0.00    +0.000 A 
ATOM      3  C   UNL     1      45.648   8.221  12.719  0.00  0.00    +0.000 A 
ATOM      4  C   UNL     1      45.711   7.057  11.939  0.00  0.00    +0.000 A 
ATOM      5  C   UNL     1      46.814   6.214  12.092  0.00  0.00    +0.000 A 
ATOM      6  C   UNL     1      47.878   6.567  12.926  0.00  0.00    +0.000 A 
ENDROOT
BRANCH   1   8
ATOM      7  N   UNL     1      48.902   9.201  15.304  0.00  0.00    +0.000 N 
ATOM      8  C   UNL     1      49.012   8.109  14.488  0.00  0.00    +0.000 C 
ATOM      9  O   UNL     1      50.036   7.439  14.472  0.00  0.00    +0.000 OA
ATOM     10  H   UNL     1      49.673   9.351  15.941  0.00  0.00    +0.000 HD
ATOM     11  H   UNL     1      48.009   9.607  15.542  0.00  0.00    +0.000 HD
ENDBRANCH   1   8
BRANCH   4  12
ATOM     12  N   UNL     1      44.638   6.749  11.067  0.00  0.00    +0.000 N 
ATOM     13  H   UNL     1      44.780   7.132  10.136  0.00  0.00    +0.000 HD
BRANCH  12  14
ATOM     14  C   UNL     1      44.012   5.400  11.101  0.00  0.00    +0.000 C 
ATOM     15  C   UNL     1      42.577   5.315  11.601  0.00  0.00    +0.000 C 
ATOM     16  C   UNL     1      43.673   4.776  12.456  0.00  0.00    +0.000 C 
BRANCH  14  17
ATOM     17  C   UNL     1      44.617   4.387  10.121  0.00  0.00    +0.000 A 
ATOM     18  C   UNL     1      44.281   3.022  10.214  0.00  0.00    +0.000 A 
ATOM     19  C   UNL     1      44.690   2.094   9.253  0.00  0.00    +0.000 A 
ATOM     20  C   UNL     1      45.452   2.511   8.168  0.00  0.00    +0.000 A 
ATOM     21  C   UNL     1      45.841   3.843   8.071  0.00  0.00    +0.000 A 
ATOM     22  C   UNL     1      45.440   4.763   9.044  0.00  0.00    +0.000 A 
ENDBRANCH  14  17
ENDBRANCH  12  14
ENDBRANCH   4  12
TORSDOF 4
ENDMDL
