MODEL 1
REMARK VINA RESULT:    -8.149      0.000      0.000
REMARK INTER + INTRA:         -13.189
REMARK INTER:                 -12.198
REMARK INTRA:                  -0.991
REMARK UNBOUND:                -0.991
REMARK  Name = 
REMARK  9 active torsions:
REMARK  status: ('A' for Active; 'I' for Inactive)
REMARK    1  A    between atoms: N_1  and  C_2
REMARK    2  A    between atoms: C_2  and  C_3
REMARK    3  A    between atoms: C_3  and  N_4
REMARK    4  A    between atoms: N_4  and  C_5
REMARK    5  A    between atoms: C_5  and  C_6
REMARK    6  A    between atoms: C_9  and  C_10
REMARK    7  A    between atoms: C_10  and  N_11
REMARK    8  A    between atoms: C_12  and  C_14
REMARK    9  A    between atoms: C_21  and  C_23
REMARK                            x       y       z     vdW  Elec       q    Type
REMARK                         _______ _______ _______ _____ _____    ______ ____
ROOT
ATOM      1  N   UNL     1      45.826   7.304  12.025  0.00  0.00    +0.000 N 
ATOM      2  C   UNL     1      44.588   6.761  11.584  0.00  0.00    +0.000 C 
ATOM      3  O   UNL     1      43.659   7.541  11.370  0.00  0.00    +0.000 OA
ENDROOT
BRANCH   2   4
ATOM      4  C   UNL     1      44.346   5.299  11.409  0.00  0.00    +0.000 A 
ATOM      5  C   UNL     1      43.631   4.463  12.250  0.00  0.00    +0.000 A 
ATOM      6  S   UNL     1      43.425   2.864  11.716  0.00  0.00    +0.000 S 
ATOM      7  C   UNL     1      44.267   3.200  10.291  0.00  0.00    +0.000 A 
ATOM      8  N   UNL     1      44.395   2.227   9.353  0.00  0.00    +0.000 NA
ATOM      9  C   UNL     1      45.019   2.599   8.289  0.00  0.00    +0.000 A 
ATOM     10  N   UNL     1      45.549   3.847   8.098  0.00  0.00    +0.000 N 
ATOM     11  C   UNL     1      45.557   4.822   9.076  0.00  0.00    +0.000 A 
ATOM     12  O   UNL     1      46.268   5.809   8.933  0.00  0.00    +0.000 OA
ATOM     13  C   UNL     1      44.757   4.494  10.251  0.00  0.00    +0.000 A 
ATOM     14  H   UNL     1      46.102   4.048   7.279  0.00  0.00    +0.000 HD
ENDBRANCH   2   4
BRANCH   1  15
ATOM     15  C   UNL     1      45.892   8.788  12.027  0.00  0.00    +0.000 C 
BRANCH  15  16
ATOM     16  C   UNL     1      47.261   9.500  12.164  0.00  0.00    +0.000 C 
BRANCH  16  17
ATOM     17  N   UNL     1      47.627   9.916  13.523  0.00  0.00    +0.000 NA
ATOM     18  H   UNL     1      46.781  10.014  14.083  0.00  0.00    +0.000 HD
ATOM     19  H   UNL     1      48.075  10.831  13.503  0.00  0.00    +0.000 HD
ENDBRANCH  16  17
ENDBRANCH  15  16
ENDBRANCH   1  15
BRANCH   1  20
ATOM     20  C   UNL     1      47.092   6.577  12.090  0.00  0.00    +0.000 C 
BRANCH  20  21
ATOM     21  C   UNL     1      47.282   5.765  13.365  0.00  0.00    +0.000 A 
ATOM     22  C   UNL     1      46.790   4.461  13.544  0.00  0.00    +0.000 A 
ATOM     23  C   UNL     1      46.990   3.762  14.743  0.00  0.00    +0.000 A 
ATOM     24  C   UNL     1      47.614   4.384  15.826  0.00  0.00    +0.000 A 
ATOM     25  C   UNL     1      48.157   5.660  15.641  0.00  0.00    +0.000 A 
ATOM     26  C   UNL     1      48.010   6.329  14.422  0.00  0.00    +0.000 A 
BRANCH  24  27
ATOM     27  C   UNL     1      47.638   3.734  17.182  0.00  0.00    +0.000 C 
BRANCH  27  28
ATOM     28  N   UNL     1      48.959   3.350  17.604  0.00  0.00    +0.000 N 
ATOM     29  C   UNL     1      49.601   2.308  16.981  0.00  0.00    +0.000 C 
ATOM     30  O   UNL     1      49.079   1.650  16.088  0.00  0.00    +0.000 OA
ATOM     31  H   UNL     1      49.454   3.942  18.253  0.00  0.00    +0.000 HD
BRANCH  29  32
ATOM     32  C   UNL     1      50.935   2.037  17.445  0.00  0.00    +0.000 A 
ATOM     33  C   UNL     1      52.002   2.843  17.788  0.00  0.00    +0.000 A 
ATOM     34  C   UNL     1      53.022   1.957  18.175  0.00  0.00    +0.000 A 
ATOM     35  N   UNL     1      52.646   0.681  18.087  0.00  0.00    +0.000 NA
ATOM     36  N   UNL     1      51.377   0.758  17.648  0.00  0.00    +0.000 N 
ATOM     37  H   UNL     1      50.854  -0.103  17.504  0.00  0.00    +0.000 HD
ENDBRANCH  29  32
ENDBRANCH  27  28
ENDBRANCH  24  27
ENDBRANCH  20  21
ENDBRANCH   1  20
TORSDOF 9
ENDMDL
MODEL 2
REMARK VINA RESULT:    -8.111      1.369      2.174
REMARK INTER + INTRA:         -13.133
REMARK INTER:                 -11.646
REMARK INTRA:                  -1.488
REMARK UNBOUND:                -0.991
REMARK  Name = 
REMARK  9 active torsions:
REMARK  status: ('A' for Active; 'I' for Inactive)
REMARK    1  A    between atoms: N_1  and  C_2
REMARK    2  A    between atoms: C_2  and  C_3
REMARK    3  A    between atoms: C_3  and  N_4
REMARK    4  A    between atoms: N_4  and  C_5
REMARK    5  A    between atoms: C_5  and  C_6
REMARK    6  A    between atoms: C_9  and  C_10
REMARK    7  A    between atoms: C_10  and  N_11
REMARK    8  A    between atoms: C_12  and  C_14
REMARK    9  A    between atoms: C_21  and  C_23
REMARK                            x       y       z     vdW  Elec       q    Type
REMARK                         _______ _______ _______ _____ _____    ______ ____
ROOT
ATOM      1  N   UNL     1      46.487   7.484  12.467  0.00  0.00    +0.000 N 
ATOM      2  C   UNL     1      45.431   7.320  11.529  0.00  0.00    +0.000 C 
ATOM      3  O   UNL     1      44.675   8.275  11.339  0.00  0.00    +0.000 OA
ENDROOT
BRANCH   2   4
ATOM      4  C   UNL     1      45.168   6.046  10.800  0.00  0.00    +0.000 A 
ATOM      5  C   UNL     1      45.636   5.686   9.547  0.00  0.00    +0.000 A 
ATOM      6  S   UNL     1      45.265   4.111   9.034  0.00  0.00    +0.000 S 
ATOM      7  C   UNL     1      44.467   3.793  10.489  0.00  0.00    +0.000 A 
ATOM      8  N   UNL     1      43.953   2.556  10.705  0.00  0.00    +0.000 NA
ATOM      9  C   UNL     1      43.401   2.408  11.860  0.00  0.00    +0.000 A 
ATOM     10  N   UNL     1      43.295   3.399  12.800  0.00  0.00    +0.000 N 
ATOM     11  C   UNL     1      43.684   4.703  12.570  0.00  0.00    +0.000 A 
ATOM     12  O   UNL     1      43.325   5.581  13.345  0.00  0.00    +0.000 OA
ATOM     13  C   UNL     1      44.425   4.894  11.327  0.00  0.00    +0.000 A 
ATOM     14  H   UNL     1      42.774   3.243  13.649  0.00  0.00    +0.000 HD
ENDBRANCH   2   4
BRANCH   1  15
ATOM     15  C   UNL     1      46.643   8.862  12.999  0.00  0.00    +0.000 C 
BRANCH  15  16
ATOM     16  C   UNL     1      48.054   9.493  13.108  0.00  0.00    +0.000 C 
BRANCH  16  17
ATOM     17  N   UNL     1      48.365  10.134  14.392  0.00  0.00    +0.000 NA
ATOM     18  H   UNL     1      48.987  10.926  14.229  0.00  0.00    +0.000 HD
ATOM     19  H   UNL     1      48.866   9.485  14.997  0.00  0.00    +0.000 HD
ENDBRANCH  16  17
ENDBRANCH  15  16
ENDBRANCH   1  15
BRANCH   1  20
ATOM     20  C   UNL     1      47.613   6.568  12.640  0.00  0.00    +0.000 C 
BRANCH  20  21
ATOM     21  C   UNL     1      47.587   5.785  13.946  0.00  0.00    +0.000 A 
ATOM     22  C   UNL     1      48.299   6.162  15.099  0.00  0.00    +0.000 A 
ATOM     23  C   UNL     1      48.243   5.399  16.274  0.00  0.00    +0.000 A 
ATOM     24  C   UNL     1      47.541   4.192  16.299  0.00  0.00    +0.000 A 
ATOM     25  C   UNL     1      46.785   3.836  15.176  0.00  0.00    +0.000 A 
ATOM     26  C   UNL     1      46.793   4.634  14.028  0.00  0.00    +0.000 A 
BRANCH  24  27
ATOM     27  C   UNL     1      47.654   3.257  17.471  0.00  0.00    +0.000 C 
BRANCH  27  28
ATOM     28  N   UNL     1      49.015   2.962  17.833  0.00  0.00    +0.000 N 
ATOM     29  C   UNL     1      49.769   2.129  17.044  0.00  0.00    +0.000 C 
ATOM     30  O   UNL     1      49.319   1.581  16.044  0.00  0.00    +0.000 OA
ATOM     31  H   UNL     1      49.444   3.485  18.581  0.00  0.00    +0.000 HD
BRANCH  29  32
ATOM     32  C   UNL     1      51.131   1.940  17.467  0.00  0.00    +0.000 A 
ATOM     33  C   UNL     1      52.160   2.809  17.764  0.00  0.00    +0.000 A 
ATOM     34  C   UNL     1      53.240   1.988  18.129  0.00  0.00    +0.000 A 
ATOM     35  N   UNL     1      52.934   0.691  18.071  0.00  0.00    +0.000 NA
ATOM     36  N   UNL     1      51.650   0.691  17.673  0.00  0.00    +0.000 N 
ATOM     37  H   UNL     1      51.172  -0.200  17.558  0.00  0.00    +0.000 HD
ENDBRANCH  29  32
ENDBRANCH  27  28
ENDBRANCH  24  27
ENDBRANCH  20  21
ENDBRANCH   1  20
TORSDOF 9
ENDMDL
MODEL 3
REMARK VINA RESULT:    -7.691      3.308      8.194
REMARK INTER + INTRA:         -12.504
REMARK INTER:                 -11.054
REMARK INTRA:                  -1.450
REMARK UNBOUND:                -0.991
REMARK  Name = 
REMARK  9 active torsions:
REMARK  status: ('A' for Active; 'I' for Inactive)
REMARK    1  A    between atoms: N_1  and  C_2
REMARK    2  A    between atoms: C_2  and  C_3
REMARK    3  A    between atoms: C_3  and  N_4
REMARK    4  A    between atoms: N_4  and  C_5
REMARK    5  A    between atoms: C_5  and  C_6
REMARK    6  A    between atoms: C_9  and  C_10
REMARK    7  A    between atoms: C_10  and  N_11
REMARK    8  A    between atoms: C_12  and  C_14
REMARK    9  A    between atoms: C_21  and  C_23
REMARK                            x       y       z     vdW  Elec       q    Type
REMARK                         _______ _______ _______ _____ _____    ______ ____
ROOT
ATOM      1  N   UNL     1      48.670   7.236  13.737  0.00  0.00    +0.000 N 
ATOM      2  C   UNL     1      49.503   7.509  14.856  0.00  0.00    +0.000 C 
ATOM      3  O   UNL     1      50.724   7.428  14.701  0.00  0.00    +0.000 OA
ENDROOT
BRANCH   2   4
ATOM      4  C   UNL     1      48.977   7.845  16.211  0.00  0.00    +0.000 A 
ATOM      5  C   UNL     1      48.609   9.095  16.679  0.00  0.00    +0.000 A 
ATOM      6  S   UNL     1      47.926   9.140  18.233  0.00  0.00    +0.000 S 
ATOM      7  C   UNL     1      48.056   7.462  18.371  0.00  0.00    +0.000 A 
ATOM      8  N   UNL     1      47.578   6.850  19.485  0.00  0.00    +0.000 NA
ATOM      9  C   UNL     1      47.690   5.566  19.471  0.00  0.00    +0.000 A 
ATOM     10  N   UNL     1      48.264   4.850  18.455  0.00  0.00    +0.000 N 
ATOM     11  C   UNL     1      48.879   5.439  17.369  0.00  0.00    +0.000 A 
ATOM     12  O   UNL     1      49.591   4.758  16.640  0.00  0.00    +0.000 OA
ATOM     13  C   UNL     1      48.672   6.881  17.276  0.00  0.00    +0.000 A 
ATOM     14  H   UNL     1      48.400   3.855  18.545  0.00  0.00    +0.000 HD
ENDBRANCH   2   4
BRANCH   1  15
ATOM     15  C   UNL     1      49.393   7.031  12.455  0.00  0.00    +0.000 C 
BRANCH  15  16
ATOM     16  C   UNL     1      49.793   8.252  11.590  0.00  0.00    +0.000 C 
BRANCH  16  17
ATOM     17  N   UNL     1      51.161   8.747  11.784  0.00  0.00    +0.000 NA
ATOM     18  H   UNL     1      51.200   9.734  11.529  0.00  0.00    +0.000 HD
ATOM     19  H   UNL     1      51.804   8.258  11.164  0.00  0.00    +0.000 HD
ENDBRANCH  16  17
ENDBRANCH  15  16
ENDBRANCH   1  15
BRANCH   1  20
ATOM     20  C   UNL     1      47.238   7.517  13.661  0.00  0.00    +0.000 C 
BRANCH  20  21
ATOM     21  C   UNL     1      46.410   6.386  13.063  0.00  0.00    +0.000 A 
ATOM     22  C   UNL     1      46.452   5.058  13.521  0.00  0.00    +0.000 A 
ATOM     23  C   UNL     1      45.670   4.056  12.928  0.00  0.00    +0.000 A 
ATOM     24  C   UNL     1      44.892   4.340  11.805  0.00  0.00    +0.000 A 
ATOM     25  C   UNL     1      44.801   5.668  11.375  0.00  0.00    +0.000 A 
ATOM     26  C   UNL     1      45.532   6.677  12.010  0.00  0.00    +0.000 A 
BRANCH  24  27
ATOM     27  C   UNL     1      44.228   3.239  11.026  0.00  0.00    +0.000 C 
BRANCH  27  28
ATOM     28  N   UNL     1      45.095   2.631  10.051  0.00  0.00    +0.000 N 
ATOM     29  C   UNL     1      45.124   3.113   8.766  0.00  0.00    +0.000 C 
ATOM     30  O   UNL     1      44.407   4.032   8.389  0.00  0.00    +0.000 OA
ATOM     31  H   UNL     1      45.775   1.954  10.360  0.00  0.00    +0.000 HD
BRANCH  29  32
ATOM     32  C   UNL     1      46.060   2.468   7.884  0.00  0.00    +0.000 A 
ATOM     33  C   UNL     1      46.801   2.904   6.804  0.00  0.00    +0.000 A 
ATOM     34  C   UNL     1      47.534   1.781   6.385  0.00  0.00    +0.000 A 
ATOM     35  N   UNL     1      47.286   0.705   7.132  0.00  0.00    +0.000 NA
ATOM     36  N   UNL     1      46.395   1.150   8.035  0.00  0.00    +0.000 N 
ATOM     37  H   UNL     1      46.045   0.504   8.740  0.00  0.00    +0.000 HD
ENDBRANCH  29  32
ENDBRANCH  27  28
ENDBRANCH  24  27
ENDBRANCH  20  21
ENDBRANCH   1  20
TORSDOF 9
ENDMDL
MODEL 4
REMARK VINA RESULT:    -7.541      3.558      8.357
REMARK INTER + INTRA:         -12.280
REMARK INTER:                 -10.882
REMARK INTRA:                  -1.398
REMARK UNBOUND:                -0.991
REMARK  Name = 
REMARK  9 active torsions:
REMARK  status: ('A' for Active; 'I' for Inactive)
REMARK    1  A    between atoms: N_1  and  C_2
REMARK    2  A    between atoms: C_2  and  C_3
REMARK    3  A    between atoms: C_3  and  N_4
REMARK    4  A    between atoms: N_4  and  C_5
REMARK    5  A    between atoms: C_5  and  C_6
REMARK    6  A    between atoms: C_9  and  C_10
REMARK    7  A    between atoms: C_10  and  N_11
REMARK    8  A    between atoms: C_12  and  C_14
REMARK    9  A    between atoms: C_21  and  C_23
REMARK                            x       y       z     vdW  Elec       q    Type
REMARK                         _______ _______ _______ _____ _____    ______ ____
ROOT
ATOM      1  N   UNL     1      48.563   7.488  13.971  0.00  0.00    +0.000 N 
ATOM      2  C   UNL     1      49.273   6.915  15.062  0.00  0.00    +0.000 C 
ATOM      3  O   UNL     1      50.504   6.950  15.031  0.00  0.00    +0.000 OA
ENDROOT
BRANCH   2   4
ATOM      4  C   UNL     1      48.607   6.240  16.214  0.00  0.00    +0.000 A 
ATOM      5  C   UNL     1      48.143   4.937  16.265  0.00  0.00    +0.000 A 
ATOM      6  S   UNL     1      47.540   4.416  17.765  0.00  0.00    +0.000 S 
ATOM      7  C   UNL     1      47.893   5.915  18.460  0.00  0.00    +0.000 A 
ATOM      8  N   UNL     1      47.657   6.102  19.783  0.00  0.00    +0.000 NA
ATOM      9  C   UNL     1      47.998   7.266  20.221  0.00  0.00    +0.000 A 
ATOM     10  N   UNL     1      48.524   8.262  19.442  0.00  0.00    +0.000 N 
ATOM     11  C   UNL     1      48.657   8.159  18.072  0.00  0.00    +0.000 A 
ATOM     12  O   UNL     1      48.886   9.167  17.414  0.00  0.00    +0.000 OA
ATOM     13  C   UNL     1      48.401   6.822  17.546  0.00  0.00    +0.000 A 
ATOM     14  H   UNL     1      48.688   9.179  19.828  0.00  0.00    +0.000 HD
ENDBRANCH   2   4
BRANCH   1  15
ATOM     15  C   UNL     1      49.409   8.207  12.984  0.00  0.00    +0.000 C 
BRANCH  15  16
ATOM     16  C   UNL     1      49.719   7.556  11.612  0.00  0.00    +0.000 C 
BRANCH  16  17
ATOM     17  N   UNL     1      51.139   7.324  11.326  0.00  0.00    +0.000 NA
ATOM     18  H   UNL     1      51.223   6.677  10.543  0.00  0.00    +0.000 HD
ATOM     19  H   UNL     1      51.592   6.881  12.124  0.00  0.00    +0.000 HD
ENDBRANCH  16  17
ENDBRANCH  15  16
ENDBRANCH   1  15
BRANCH   1  20
ATOM     20  C   UNL     1      47.127   7.760  13.947  0.00  0.00    +0.000 C 
BRANCH  20  21
ATOM     21  C   UNL     1      46.334   6.847  13.020  0.00  0.00    +0.000 A 
ATOM     22  C   UNL     1      46.049   5.499  13.303  0.00  0.00    +0.000 A 
ATOM     23  C   UNL     1      45.319   4.704  12.409  0.00  0.00    +0.000 A 
ATOM     24  C   UNL     1      44.928   5.212  11.169  0.00  0.00    +0.000 A 
ATOM     25  C   UNL     1      45.157   6.566  10.901  0.00  0.00    +0.000 A 
ATOM     26  C   UNL     1      45.831   7.373  11.823  0.00  0.00    +0.000 A 
BRANCH  24  27
ATOM     27  C   UNL     1      44.345   4.313  10.114  0.00  0.00    +0.000 C 
BRANCH  27  28
ATOM     28  N   UNL     1      45.274   3.993   9.063  0.00  0.00    +0.000 N 
ATOM     29  C   UNL     1      45.433   2.689   8.663  0.00  0.00    +0.000 C 
ATOM     30  O   UNL     1      44.836   1.759   9.192  0.00  0.00    +0.000 OA
ATOM     31  H   UNL     1      45.690   4.745   8.536  0.00  0.00    +0.000 HD
BRANCH  29  32
ATOM     32  C   UNL     1      46.349   2.483   7.573  0.00  0.00    +0.000 A 
ATOM     33  C   UNL     1      46.697   3.239   6.471  0.00  0.00    +0.000 A 
ATOM     34  C   UNL     1      47.664   2.476   5.795  0.00  0.00    +0.000 A 
ATOM     35  N   UNL     1      47.920   1.320   6.408  0.00  0.00    +0.000 NA
ATOM     36  N   UNL     1      47.115   1.353   7.484  0.00  0.00    +0.000 N 
ATOM     37  H   UNL     1      47.129   0.568   8.132  0.00  0.00    +0.000 HD
ENDBRANCH  29  32
ENDBRANCH  27  28
ENDBRANCH  24  27
ENDBRANCH  20  21
ENDBRANCH   1  20
TORSDOF 9
ENDMDL
MODEL 5
REMARK VINA RESULT:    -6.834      3.820      8.213
REMARK INTER + INTRA:         -11.220
REMARK INTER:                  -9.506
REMARK INTRA:                  -1.714
REMARK UNBOUND:                -0.991
REMARK  Name = 
REMARK  9 active torsions:
REMARK  status: ('A' for Active; 'I' for Inactive)
REMARK    1  A    between atoms: N_1  and  C_2
REMARK    2  A    between atoms: C_2  and  C_3
REMARK    3  A    between atoms: C_3  and  N_4
REMARK    4  A    between atoms: N_4  and  C_5
REMARK    5  A    between atoms: C_5  and  C_6
REMARK    6  A    between atoms: C_9  and  C_10
REMARK    7  A    between atoms: C_10  and  N_11
REMARK    8  A    between atoms: C_12  and  C_14
REMARK    9  A    between atoms: C_21  and  C_23
REMARK                            x       y       z     vdW  Elec       q    Type
REMARK                         _______ _______ _______ _____ _____    ______ ____
ROOT
ATOM      1  N   UNL     1      49.317   9.593  13.473  0.00  0.00    +0.000 N 
ATOM      2  C   UNL     1      50.063   9.404  14.669  0.00  0.00    +0.000 C 
ATOM      3  O   UNL     1      51.273   9.190  14.567  0.00  0.00    +0.000 OA
ENDROOT
BRANCH   2   4
ATOM      4  C   UNL     1      49.452   9.409  16.030  0.00  0.00    +0.000 A 
ATOM      5  C   UNL     1      49.182  10.512  16.821  0.00  0.00    +0.000 A 
ATOM      6  S   UNL     1      48.365  10.206  18.278  0.00  0.00    +0.000 S 
ATOM      7  C   UNL     1      48.294   8.556  17.925  0.00  0.00    +0.000 A 
ATOM      8  N   UNL     1      47.649   7.723  18.781  0.00  0.00    +0.000 NA
ATOM      9  C   UNL     1      47.618   6.493  18.398  0.00  0.00    +0.000 A 
ATOM     10  N   UNL     1      48.202   6.024  17.251  0.00  0.00    +0.000 N 
ATOM     11  C   UNL     1      48.978   6.809  16.424  0.00  0.00    +0.000 A 
ATOM     12  O   UNL     1      49.676   6.274  15.570  0.00  0.00    +0.000 OA
ATOM     13  C   UNL     1      48.943   8.232  16.745  0.00  0.00    +0.000 A 
ATOM     14  H   UNL     1      48.218   5.035  17.053  0.00  0.00    +0.000 HD
ENDBRANCH   2   4
BRANCH   1  15
ATOM     15  C   UNL     1      50.131   9.661  12.232  0.00  0.00    +0.000 C 
BRANCH  15  16
ATOM     16  C   UNL     1      50.275   8.408  11.332  0.00  0.00    +0.000 C 
BRANCH  16  17
ATOM     17  N   UNL     1      50.443   7.134  12.040  0.00  0.00    +0.000 NA
ATOM     18  H   UNL     1      50.173   6.369  11.422  0.00  0.00    +0.000 HD
ATOM     19  H   UNL     1      49.823   7.094  12.847  0.00  0.00    +0.000 HD
ENDBRANCH  16  17
ENDBRANCH  15  16
ENDBRANCH   1  15
BRANCH   1  20
ATOM     20  C   UNL     1      47.946  10.094  13.403  0.00  0.00    +0.000 C 
BRANCH  20  21
ATOM     21  C   UNL     1      46.925   9.059  12.948  0.00  0.00    +0.000 A 
ATOM     22  C   UNL     1      47.009   7.689  13.251  0.00  0.00    +0.000 A 
ATOM     23  C   UNL     1      46.042   6.780  12.800  0.00  0.00    +0.000 A 
ATOM     24  C   UNL     1      45.010   7.206  11.961  0.00  0.00    +0.000 A 
ATOM     25  C   UNL     1      44.885   8.574  11.699  0.00  0.00    +0.000 A 
ATOM     26  C   UNL     1      45.817   9.487  12.204  0.00  0.00    +0.000 A 
BRANCH  24  27
ATOM     27  C   UNL     1      44.100   6.214  11.291  0.00  0.00    +0.000 C 
BRANCH  27  28
ATOM     28  N   UNL     1      44.793   5.319  10.402  0.00  0.00    +0.000 N 
ATOM     29  C   UNL     1      44.287   4.064  10.164  0.00  0.00    +0.000 C 
ATOM     30  O   UNL     1      43.274   3.645  10.710  0.00  0.00    +0.000 OA
ATOM     31  H   UNL     1      45.560   5.674   9.854  0.00  0.00    +0.000 HD
BRANCH  29  32
ATOM     32  C   UNL     1      45.028   3.268   9.222  0.00  0.00    +0.000 A 
ATOM     33  C   UNL     1      45.676   3.557   8.039  0.00  0.00    +0.000 A 
ATOM     34  C   UNL     1      46.219   2.334   7.609  0.00  0.00    +0.000 A 
ATOM     35  N   UNL     1      45.942   1.333   8.447  0.00  0.00    +0.000 NA
ATOM     36  N   UNL     1      45.226   1.927   9.417  0.00  0.00    +0.000 N 
ATOM     37  H   UNL     1      44.894   1.365  10.197  0.00  0.00    +0.000 HD
ENDBRANCH  29  32
ENDBRANCH  27  28
ENDBRANCH  24  27
ENDBRANCH  20  21
ENDBRANCH   1  20
TORSDOF 9
ENDMDL
MODEL 6
REMARK VINA RESULT:    -6.601      2.812      8.362
REMARK INTER + INTRA:         -10.872
REMARK INTER:                  -9.459
REMARK INTRA:                  -1.413
REMARK UNBOUND:                -0.991
REMARK  Name = 
REMARK  9 active torsions:
REMARK  status: ('A' for Active; 'I' for Inactive)
REMARK    1  A    between atoms: N_1  and  C_2
REMARK    2  A    between atoms: C_2  and  C_3
REMARK    3  A    between atoms: C_3  and  N_4
REMARK    4  A    between atoms: N_4  and  C_5
REMARK    5  A    between atoms: C_5  and  C_6
REMARK    6  A    between atoms: C_9  and  C_10
REMARK    7  A    between atoms: C_10  and  N_11
REMARK    8  A    between atoms: C_12  and  C_14
REMARK    9  A    between atoms: C_21  and  C_23
REMARK                            x       y       z     vdW  Elec       q    Type
REMARK                         _______ _______ _______ _____ _____    ______ ____
ROOT
ATOM      1  N   UNL     1      49.319   7.453  17.355  0.00  0.00    +0.000 N 
ATOM      2  C   UNL     1      48.626   6.417  18.039  0.00  0.00    +0.000 C 
ATOM      3  O   UNL     1      48.067   6.700  19.101  0.00  0.00    +0.000 OA
ENDROOT
BRANCH   2   4
ATOM      4  C   UNL     1      48.578   5.004  17.562  0.00  0.00    +0.000 A 
ATOM      5  C   UNL     1      47.554   4.394  16.857  0.00  0.00    +0.000 A 
ATOM      6  S   UNL     1      47.845   2.802  16.344  0.00  0.00    +0.000 S 
ATOM      7  C   UNL     1      49.394   2.837  17.018  0.00  0.00    +0.000 A 
ATOM      8  N   UNL     1      50.205   1.759  16.868  0.00  0.00    +0.000 NA
ATOM      9  C   UNL     1      51.377   1.904  17.384  0.00  0.00    +0.000 A 
ATOM     10  N   UNL     1      51.792   3.021  18.060  0.00  0.00    +0.000 N 
ATOM     11  C   UNL     1      50.959   4.082  18.349  0.00  0.00    +0.000 A 
ATOM     12  O   UNL     1      51.315   4.918  19.170  0.00  0.00    +0.000 OA
ATOM     13  C   UNL     1      49.662   4.021  17.683  0.00  0.00    +0.000 A 
ATOM     14  H   UNL     1      52.692   3.037  18.515  0.00  0.00    +0.000 HD
ENDBRANCH   2   4
BRANCH   1  15
ATOM     15  C   UNL     1      49.152   8.809  17.939  0.00  0.00    +0.000 C 
BRANCH  15  16
ATOM     16  C   UNL     1      50.232   9.378  18.892  0.00  0.00    +0.000 C 
BRANCH  16  17
ATOM     17  N   UNL     1      51.420   8.537  19.082  0.00  0.00    +0.000 NA
ATOM     18  H   UNL     1      51.125   7.588  19.314  0.00  0.00    +0.000 HD
ATOM     19  H   UNL     1      51.969   8.875  19.869  0.00  0.00    +0.000 HD
ENDBRANCH  16  17
ENDBRANCH  15  16
ENDBRANCH   1  15
BRANCH   1  20
ATOM     20  C   UNL     1      49.822   7.371  15.985  0.00  0.00    +0.000 C 
BRANCH  20  21
ATOM     21  C   UNL     1      48.739   7.436  14.916  0.00  0.00    +0.000 A 
ATOM     22  C   UNL     1      47.988   8.590  14.630  0.00  0.00    +0.000 A 
ATOM     23  C   UNL     1      46.998   8.590  13.638  0.00  0.00    +0.000 A 
ATOM     24  C   UNL     1      46.673   7.411  12.965  0.00  0.00    +0.000 A 
ATOM     25  C   UNL     1      47.450   6.272  13.202  0.00  0.00    +0.000 A 
ATOM     26  C   UNL     1      48.480   6.293  14.147  0.00  0.00    +0.000 A 
BRANCH  24  27
ATOM     27  C   UNL     1      45.471   7.341  12.064  0.00  0.00    +0.000 C 
BRANCH  27  28
ATOM     28  N   UNL     1      45.488   6.204  11.182  0.00  0.00    +0.000 N 
ATOM     29  C   UNL     1      44.370   5.418  11.057  0.00  0.00    +0.000 C 
ATOM     30  O   UNL     1      43.347   5.617  11.701  0.00  0.00    +0.000 OA
ATOM     31  H   UNL     1      46.271   6.085  10.557  0.00  0.00    +0.000 HD
BRANCH  29  32
ATOM     32  C   UNL     1      44.475   4.337  10.113  0.00  0.00    +0.000 A 
ATOM     33  C   UNL     1      44.395   2.965  10.230  0.00  0.00    +0.000 A 
ATOM     34  C   UNL     1      44.571   2.475   8.924  0.00  0.00    +0.000 A 
ATOM     35  N   UNL     1      44.753   3.452   8.035  0.00  0.00    +0.000 NA
ATOM     36  N   UNL     1      44.684   4.569   8.780  0.00  0.00    +0.000 N 
ATOM     37  H   UNL     1      44.788   5.472   8.323  0.00  0.00    +0.000 HD
ENDBRANCH  29  32
ENDBRANCH  27  28
ENDBRANCH  24  27
ENDBRANCH  20  21
ENDBRANCH   1  20
TORSDOF 9
ENDMDL
MODEL 7
REMARK VINA RESULT:    -6.579      3.546      8.951
REMARK INTER + INTRA:         -10.840
REMARK INTER:                 -10.861
REMARK INTRA:                   0.022
REMARK UNBOUND:                -0.991
REMARK  Name = 
REMARK  9 active torsions:
REMARK  status: ('A' for Active; 'I' for Inactive)
REMARK    1  A    between atoms: N_1  and  C_2
REMARK    2  A    between atoms: C_2  and  C_3
REMARK    3  A    between atoms: C_3  and  N_4
REMARK    4  A    between atoms: N_4  and  C_5
REMARK    5  A    between atoms: C_5  and  C_6
REMARK    6  A    between atoms: C_9  and  C_10
REMARK    7  A    between atoms: C_10  and  N_11
REMARK    8  A    between atoms: C_12  and  C_14
REMARK    9  A    between atoms: C_21  and  C_23
REMARK                            x       y       z     vdW  Elec       q    Type
REMARK                         _______ _______ _______ _____ _____    ______ ____
ROOT
ATOM      1  N   UNL     1      47.907   5.327  16.094  0.00  0.00    +0.000 N 
ATOM      2  C   UNL     1      48.623   5.946  17.155  0.00  0.00    +0.000 C 
ATOM      3  O   UNL     1      48.591   5.409  18.264  0.00  0.00    +0.000 OA
ENDROOT
BRANCH   2   4
ATOM      4  C   UNL     1      49.372   7.228  17.005  0.00  0.00    +0.000 A 
ATOM      5  C   UNL     1      50.565   7.426  16.331  0.00  0.00    +0.000 A 
ATOM      6  S   UNL     1      51.109   9.031  16.230  0.00  0.00    +0.000 S 
ATOM      7  C   UNL     1      49.748   9.576  17.069  0.00  0.00    +0.000 A 
ATOM      8  N   UNL     1      49.584  10.909  17.269  0.00  0.00    +0.000 NA
ATOM      9  C   UNL     1      48.495  11.220  17.884  0.00  0.00    +0.000 A 
ATOM     10  N   UNL     1      47.576  10.312  18.339  0.00  0.00    +0.000 N 
ATOM     11  C   UNL     1      47.768   8.947  18.275  0.00  0.00    +0.000 A 
ATOM     12  O   UNL     1      47.040   8.207  18.926  0.00  0.00    +0.000 OA
ATOM     13  C   UNL     1      48.923   8.543  17.480  0.00  0.00    +0.000 A 
ATOM     14  H   UNL     1      46.788  10.615  18.890  0.00  0.00    +0.000 HD
ENDBRANCH   2   4
BRANCH   1  15
ATOM     15  C   UNL     1      47.322   4.002  16.424  0.00  0.00    +0.000 C 
BRANCH  15  16
ATOM     16  C   UNL     1      48.232   2.868  16.959  0.00  0.00    +0.000 C 
BRANCH  16  17
ATOM     17  N   UNL     1      49.032   2.165  15.949  0.00  0.00    +0.000 NA
ATOM     18  H   UNL     1      48.460   1.445  15.510  0.00  0.00    +0.000 HD
ATOM     19  H   UNL     1      49.818   1.690  16.390  0.00  0.00    +0.000 HD
ENDBRANCH  16  17
ENDBRANCH  15  16
ENDBRANCH   1  15
BRANCH   1  20
ATOM     20  C   UNL     1      48.027   5.672  14.679  0.00  0.00    +0.000 C 
BRANCH  20  21
ATOM     21  C   UNL     1      46.982   5.016  13.785  0.00  0.00    +0.000 A 
ATOM     22  C   UNL     1      46.885   3.628  13.582  0.00  0.00    +0.000 A 
ATOM     23  C   UNL     1      45.906   3.080  12.742  0.00  0.00    +0.000 A 
ATOM     24  C   UNL     1      45.052   3.913  12.015  0.00  0.00    +0.000 A 
ATOM     25  C   UNL     1      45.104   5.290  12.251  0.00  0.00    +0.000 A 
ATOM     26  C   UNL     1      46.041   5.829  13.139  0.00  0.00    +0.000 A 
BRANCH  24  27
ATOM     27  C   UNL     1      44.153   3.354  10.947  0.00  0.00    +0.000 C 
BRANCH  27  28
ATOM     28  N   UNL     1      44.870   2.700   9.885  0.00  0.00    +0.000 N 
ATOM     29  C   UNL     1      45.339   3.433   8.823  0.00  0.00    +0.000 C 
ATOM     30  O   UNL     1      45.141   4.637   8.712  0.00  0.00    +0.000 OA
ATOM     31  H   UNL     1      45.146   1.738  10.005  0.00  0.00    +0.000 HD
BRANCH  29  32
ATOM     32  C   UNL     1      46.086   2.692   7.842  0.00  0.00    +0.000 A 
ATOM     33  C   UNL     1      46.590   3.008   6.596  0.00  0.00    +0.000 A 
ATOM     34  C   UNL     1      47.236   1.840   6.155  0.00  0.00    +0.000 A 
ATOM     35  N   UNL     1      47.155   0.849   7.043  0.00  0.00    +0.000 NA
ATOM     36  N   UNL     1      46.459   1.393   8.056  0.00  0.00    +0.000 N 
ATOM     37  H   UNL     1      46.265   0.826   8.879  0.00  0.00    +0.000 HD
ENDBRANCH  29  32
ENDBRANCH  27  28
ENDBRANCH  24  27
ENDBRANCH  20  21
ENDBRANCH   1  20
TORSDOF 9
ENDMDL
MODEL 8
REMARK VINA RESULT:    -6.531      3.521      8.032
REMARK INTER + INTRA:         -10.768
REMARK INTER:                  -8.927
REMARK INTRA:                  -1.841
REMARK UNBOUND:                -0.991
REMARK  Name = 
REMARK  9 active torsions:
REMARK  status: ('A' for Active; 'I' for Inactive)
REMARK    1  A    between atoms: N_1  and  C_2
REMARK    2  A    between atoms: C_2  and  C_3
REMARK    3  A    between atoms: C_3  and  N_4
REMARK    4  A    between atoms: N_4  and  C_5
REMARK    5  A    between atoms: C_5  and  C_6
REMARK    6  A    between atoms: C_9  and  C_10
REMARK    7  A    between atoms: C_10  and  N_11
REMARK    8  A    between atoms: C_12  and  C_14
REMARK    9  A    between atoms: C_21  and  C_23
REMARK                            x       y       z     vdW  Elec       q    Type
REMARK                         _______ _______ _______ _____ _____    ______ ____
ROOT
ATOM      1  N   UNL     1      48.631   7.996  18.164  0.00  0.00    +0.000 N 
ATOM      2  C   UNL     1      48.552   6.664  18.654  0.00  0.00    +0.000 C 
ATOM      3  O   UNL     1      47.613   6.378  19.400  0.00  0.00    +0.000 OA
ENDROOT
BRANCH   2   4
ATOM      4  C   UNL     1      49.564   5.612  18.347  0.00  0.00    +0.000 A 
ATOM      5  C   UNL     1      50.873   5.554  18.796  0.00  0.00    +0.000 A 
ATOM      6  S   UNL     1      51.747   4.161  18.373  0.00  0.00    +0.000 S 
ATOM      7  C   UNL     1      50.402   3.524  17.574  0.00  0.00    +0.000 A 
ATOM      8  N   UNL     1      50.485   2.286  17.023  0.00  0.00    +0.000 NA
ATOM      9  C   UNL     1      49.393   1.879  16.473  0.00  0.00    +0.000 A 
ATOM     10  N   UNL     1      48.240   2.615  16.403  0.00  0.00    +0.000 N 
ATOM     11  C   UNL     1      48.153   3.924  16.831  0.00  0.00    +0.000 A 
ATOM     12  O   UNL     1      47.183   4.599  16.505  0.00  0.00    +0.000 OA
ATOM     13  C   UNL     1      49.322   4.389  17.571  0.00  0.00    +0.000 A 
ATOM     14  H   UNL     1      47.447   2.274  15.882  0.00  0.00    +0.000 HD
ENDBRANCH   2   4
BRANCH   1  15
ATOM     15  C   UNL     1      47.466   8.855  18.497  0.00  0.00    +0.000 C 
BRANCH  15  16
ATOM     16  C   UNL     1      47.523   9.792  19.730  0.00  0.00    +0.000 C 
BRANCH  16  17
ATOM     17  N   UNL     1      47.851   9.144  21.005  0.00  0.00    +0.000 NA
ATOM     18  H   UNL     1      48.365   8.282  20.821  0.00  0.00    +0.000 HD
ATOM     19  H   UNL     1      46.998   8.878  21.495  0.00  0.00    +0.000 HD
ENDBRANCH  16  17
ENDBRANCH  15  16
ENDBRANCH   1  15
BRANCH   1  20
ATOM     20  C   UNL     1      49.513   8.451  17.091  0.00  0.00    +0.000 C 
BRANCH  20  21
ATOM     21  C   UNL     1      48.957   8.230  15.690  0.00  0.00    +0.000 A 
ATOM     22  C   UNL     1      48.158   9.164  15.008  0.00  0.00    +0.000 A 
ATOM     23  C   UNL     1      47.669   8.905  13.719  0.00  0.00    +0.000 A 
ATOM     24  C   UNL     1      47.896   7.667  13.115  0.00  0.00    +0.000 A 
ATOM     25  C   UNL     1      48.735   6.753  13.760  0.00  0.00    +0.000 A 
ATOM     26  C   UNL     1      49.274   7.042  15.018  0.00  0.00    +0.000 A 
BRANCH  24  27
ATOM     27  C   UNL     1      47.195   7.292  11.838  0.00  0.00    +0.000 C 
BRANCH  27  28
ATOM     28  N   UNL     1      46.452   6.063  11.938  0.00  0.00    +0.000 N 
ATOM     29  C   UNL     1      45.090   6.071  11.763  0.00  0.00    +0.000 C 
ATOM     30  O   UNL     1      44.457   7.099  11.557  0.00  0.00    +0.000 OA
ATOM     31  H   UNL     1      46.957   5.192  11.992  0.00  0.00    +0.000 HD
BRANCH  29  32
ATOM     32  C   UNL     1      44.450   4.784  11.834  0.00  0.00    +0.000 A 
ATOM     33  C   UNL     1      43.755   4.019  10.920  0.00  0.00    +0.000 A 
ATOM     34  C   UNL     1      43.398   2.851  11.616  0.00  0.00    +0.000 A 
ATOM     35  N   UNL     1      43.825   2.861  12.879  0.00  0.00    +0.000 NA
ATOM     36  N   UNL     1      44.464   4.040  12.983  0.00  0.00    +0.000 N 
ATOM     37  H   UNL     1      44.896   4.288  13.870  0.00  0.00    +0.000 HD
ENDBRANCH  29  32
ENDBRANCH  27  28
ENDBRANCH  24  27
ENDBRANCH  20  21
ENDBRANCH   1  20
TORSDOF 9
ENDMDL
MODEL 9
REMARK VINA RESULT:    -6.294      3.885      9.469
REMARK INTER + INTRA:         -10.413
REMARK INTER:                  -9.060
REMARK INTRA:                  -1.352
REMARK UNBOUND:                -0.991
REMARK  Name = 
REMARK  9 active torsions:
REMARK  status: ('A' for Active; 'I' for Inactive)
REMARK    1  A    between atoms: N_1  and  C_2
REMARK    2  A    between atoms: C_2  and  C_3
REMARK    3  A    between atoms: C_3  and  N_4
REMARK    4  A    between atoms: N_4  and  C_5
REMARK    5  A    between atoms: C_5  and  C_6
REMARK    6  A    between atoms: C_9  and  C_10
REMARK    7  A    between atoms: C_10  and  N_11
REMARK    8  A    between atoms: C_12  and  C_14
REMARK    9  A    between atoms: C_21  and  C_23
REMARK                            x       y       z     vdW  Elec       q    Type
REMARK                         _______ _______ _______ _____ _____    ______ ____
ROOT
ATOM      1  N   UNL     1      49.785   4.564  18.149  0.00  0.00    +0.000 N 
ATOM      2  C   UNL     1      50.432   5.666  18.772  0.00  0.00    +0.000 C 
ATOM      3  O   UNL     1      51.665   5.673  18.799  0.00  0.00    +0.000 OA
ENDROOT
BRANCH   2   4
ATOM      4  C   UNL     1      49.699   6.787  19.429  0.00  0.00    +0.000 A 
ATOM      5  C   UNL     1      48.881   6.712  20.544  0.00  0.00    +0.000 A 
ATOM      6  S   UNL     1      48.283   8.188  21.133  0.00  0.00    +0.000 S 
ATOM      7  C   UNL     1      49.114   9.038  19.933  0.00  0.00    +0.000 A 
ATOM      8  N   UNL     1      49.057  10.394  19.922  0.00  0.00    +0.000 NA
ATOM      9  C   UNL     1      49.758  10.945  18.991  0.00  0.00    +0.000 A 
ATOM     10  N   UNL     1      50.484  10.254  18.057  0.00  0.00    +0.000 N 
ATOM     11  C   UNL     1      50.463   8.878  17.951  0.00  0.00    +0.000 A 
ATOM     12  O   UNL     1      50.920   8.347  16.946  0.00  0.00    +0.000 OA
ATOM     13  C   UNL     1      49.785   8.205  19.054  0.00  0.00    +0.000 A 
ATOM     14  H   UNL     1      50.940  10.742  17.302  0.00  0.00    +0.000 HD
ENDBRANCH   2   4
BRANCH   1  15
ATOM     15  C   UNL     1      50.695   3.614  17.459  0.00  0.00    +0.000 C 
BRANCH  15  16
ATOM     16  C   UNL     1      50.293   2.124  17.317  0.00  0.00    +0.000 C 
BRANCH  16  17
ATOM     17  N   UNL     1      49.780   1.728  16.000  0.00  0.00    +0.000 NA
ATOM     18  H   UNL     1      49.727   0.711  15.952  0.00  0.00    +0.000 HD
ATOM     19  H   UNL     1      50.423   2.024  15.268  0.00  0.00    +0.000 HD
ENDBRANCH  16  17
ENDBRANCH  15  16
ENDBRANCH   1  15
BRANCH   1  20
ATOM     20  C   UNL     1      48.366   4.501  17.806  0.00  0.00    +0.000 C 
BRANCH  20  21
ATOM     21  C   UNL     1      48.035   5.031  16.416  0.00  0.00    +0.000 A 
ATOM     22  C   UNL     1      48.572   6.215  15.881  0.00  0.00    +0.000 A 
ATOM     23  C   UNL     1      48.227   6.659  14.596  0.00  0.00    +0.000 A 
ATOM     24  C   UNL     1      47.268   5.973  13.847  0.00  0.00    +0.000 A 
ATOM     25  C   UNL     1      46.769   4.766  14.347  0.00  0.00    +0.000 A 
ATOM     26  C   UNL     1      47.165   4.294  15.602  0.00  0.00    +0.000 A 
BRANCH  24  27
ATOM     27  C   UNL     1      46.725   6.554  12.571  0.00  0.00    +0.000 C 
BRANCH  27  28
ATOM     28  N   UNL     1      46.404   5.557  11.585  0.00  0.00    +0.000 N 
ATOM     29  C   UNL     1      45.099   5.368  11.202  0.00  0.00    +0.000 C 
ATOM     30  O   UNL     1      44.168   5.995  11.695  0.00  0.00    +0.000 OA
ATOM     31  H   UNL     1      47.155   5.110  11.082  0.00  0.00    +0.000 HD
BRANCH  29  32
ATOM     32  C   UNL     1      44.892   4.382  10.175  0.00  0.00    +0.000 A 
ATOM     33  C   UNL     1      44.501   3.058  10.196  0.00  0.00    +0.000 A 
ATOM     34  C   UNL     1      44.479   2.661   8.848  0.00  0.00    +0.000 A 
ATOM     35  N   UNL     1      44.829   3.647   8.022  0.00  0.00    +0.000 NA
ATOM     36  N   UNL     1      45.068   4.679   8.851  0.00  0.00    +0.000 N 
ATOM     37  H   UNL     1      45.351   5.572   8.454  0.00  0.00    +0.000 HD
ENDBRANCH  29  32
ENDBRANCH  27  28
ENDBRANCH  24  27
ENDBRANCH  20  21
ENDBRANCH   1  20
TORSDOF 9
ENDMDL
