MODEL 1
REMARK VINA RESULT:    -7.536      0.000      0.000
REMARK INTER + INTRA:         -11.315
REMARK INTER:                 -10.179
REMARK INTRA:                  -1.136
REMARK UNBOUND:                -1.136
REMARK  Name = 
REMARK  6 active torsions:
REMARK  status: ('A' for Active; 'I' for Inactive)
REMARK    1  A    between atoms: C_2  and  C_3
REMARK    2  A    between atoms: C_7  and  O_8
REMARK    3  A    between atoms: O_8  and  C_9
REMARK    4  A    between atoms: C_12  and  C_13
REMARK    5  A    between atoms: C_13  and  N_14
REMARK    6  A    between atoms: C_15  and  C_17
REMARK                            x       y       z     vdW  Elec       q    Type
REMARK                         _______ _______ _______ _____ _____    ______ ____
ROOT
ATOM      1  C   UNL     1      47.567   8.518  13.949  0.00  0.00    +0.000 C 
ENDROOT
BRANCH   1   5
ATOM      2  C   UNL     1      45.142   6.372  11.097  0.00  0.00    +0.000 A 
ATOM      3  C   UNL     1      46.421   5.910  11.416  0.00  0.00    +0.000 A 
ATOM      4  C   UNL     1      47.205   6.601  12.344  0.00  0.00    +0.000 A 
ATOM      5  C   UNL     1      46.739   7.788  12.926  0.00  0.00    +0.000 A 
ATOM      6  C   UNL     1      45.506   8.306  12.509  0.00  0.00    +0.000 A 
ATOM      7  C   UNL     1      44.710   7.597  11.606  0.00  0.00    +0.000 A 
BRANCH   2   8
ATOM      8  O   UNL     1      44.270   5.734  10.245  0.00  0.00    +0.000 OA
BRANCH   8  13
ATOM      9  C   UNL     1      45.600   3.195   7.999  0.00  0.00    +0.000 A 
ATOM     10  C   UNL     1      45.243   2.006   8.643  0.00  0.00    +0.000 A 
ATOM     11  C   UNL     1      44.505   2.050   9.826  0.00  0.00    +0.000 A 
ATOM     12  C   UNL     1      44.133   3.280  10.373  0.00  0.00    +0.000 A 
ATOM     13  C   UNL     1      44.550   4.472   9.773  0.00  0.00    +0.000 A 
ATOM     14  C   UNL     1      45.254   4.426   8.566  0.00  0.00    +0.000 A 
BRANCH   9  16
ATOM     15  N   UNL     1      46.892   3.122   5.752  0.00  0.00    +0.000 NA
ATOM     16  C   UNL     1      46.312   3.151   6.756  0.00  0.00    +0.000 C 
ENDBRANCH   9  16
ENDBRANCH   8  13
ENDBRANCH   2   8
ENDBRANCH   1   5
BRANCH   1  17
ATOM     17  N   UNL     1      47.887   7.664  15.061  0.00  0.00    +0.000 N 
ATOM     18  C   UNL     1      49.127   7.090  15.182  0.00  0.00    +0.000 C 
ATOM     19  O   UNL     1      50.026   7.312  14.375  0.00  0.00    +0.000 OA
ATOM     20  H   UNL     1      47.108   7.289  15.592  0.00  0.00    +0.000 HD
BRANCH  18  21
ATOM     21  C   UNL     1      49.345   6.261  16.371  0.00  0.00    +0.000 A 
ATOM     22  C   UNL     1      50.368   6.582  17.253  0.00  0.00    +0.000 A 
ATOM     23  S   UNL     1      50.433   5.567  18.621  0.00  0.00    +0.000 S 
ATOM     24  C   UNL     1      49.133   4.626  18.053  0.00  0.00    +0.000 A 
ATOM     25  N   UNL     1      48.681   3.556  18.764  0.00  0.00    +0.000 NA
ATOM     26  C   UNL     1      47.716   2.913  18.199  0.00  0.00    +0.000 A 
ATOM     27  N   UNL     1      47.159   3.240  16.990  0.00  0.00    +0.000 N 
ATOM     28  C   UNL     1      47.560   4.328  16.253  0.00  0.00    +0.000 A 
ATOM     29  O   UNL     1      47.017   4.616  15.192  0.00  0.00    +0.000 OA
ATOM     30  C   UNL     1      48.649   5.086  16.841  0.00  0.00    +0.000 A 
ATOM     31  H   UNL     1      46.401   2.696  16.604  0.00  0.00    +0.000 HD
ENDBRANCH  18  21
ENDBRANCH   1  17
TORSDOF 6
ENDMDL
MODEL 2
REMARK VINA RESULT:    -6.873      1.601      1.981
REMARK INTER + INTRA:         -10.420
REMARK INTER:                  -9.587
REMARK INTRA:                  -0.833
REMARK UNBOUND:                -1.136
REMARK  Name = 
REMARK  6 active torsions:
REMARK  status: ('A' for Active; 'I' for Inactive)
REMARK    1  A    between atoms: C_2  and  C_3
REMARK    2  A    between atoms: C_7  and  O_8
REMARK    3  A    between atoms: O_8  and  C_9
REMARK    4  A    between atoms: C_12  and  C_13
REMARK    5  A    between atoms: C_13  and  N_14
REMARK    6  A    between atoms: C_15  and  C_17
REMARK                            x       y       z     vdW  Elec       q    Type
REMARK                         _______ _______ _______ _____ _____    ______ ____
ROOT
ATOM      1  C   UNL     1      48.483   7.707  13.989  0.00  0.00    +0.000 C 
ENDROOT
BRANCH   1   5
ATOM      2  C   UNL     1      45.107   6.129  11.814  0.00  0.00    +0.000 A 
ATOM      3  C   UNL     1      45.269   7.510  11.948  0.00  0.00    +0.000 A 
ATOM      4  C   UNL     1      46.365   8.022  12.648  0.00  0.00    +0.000 A 
ATOM      5  C   UNL     1      47.284   7.160  13.262  0.00  0.00    +0.000 A 
ATOM      6  C   UNL     1      47.047   5.780  13.222  0.00  0.00    +0.000 A 
ATOM      7  C   UNL     1      45.968   5.268  12.496  0.00  0.00    +0.000 A 
BRANCH   2   8
ATOM      8  O   UNL     1      44.099   5.526  11.097  0.00  0.00    +0.000 OA
BRANCH   8  13
ATOM      9  C   UNL     1      45.362   3.414   8.412  0.00  0.00    +0.000 A 
ATOM     10  C   UNL     1      44.953   2.138   8.813  0.00  0.00    +0.000 A 
ATOM     11  C   UNL     1      44.202   1.983   9.979  0.00  0.00    +0.000 A 
ATOM     12  C   UNL     1      43.869   3.099  10.750  0.00  0.00    +0.000 A 
ATOM     13  C   UNL     1      44.338   4.367  10.393  0.00  0.00    +0.000 A 
ATOM     14  C   UNL     1      45.055   4.526   9.203  0.00  0.00    +0.000 A 
BRANCH   9  16
ATOM     15  N   UNL     1      46.682   3.714   6.200  0.00  0.00    +0.000 NA
ATOM     16  C   UNL     1      46.089   3.582   7.188  0.00  0.00    +0.000 C 
ENDBRANCH   9  16
ENDBRANCH   8  13
ENDBRANCH   2   8
ENDBRANCH   1   5
BRANCH   1  17
ATOM     17  N   UNL     1      48.294   7.654  15.412  0.00  0.00    +0.000 N 
ATOM     18  C   UNL     1      49.188   7.003  16.224  0.00  0.00    +0.000 C 
ATOM     19  O   UNL     1      50.206   6.477  15.778  0.00  0.00    +0.000 OA
ATOM     20  H   UNL     1      47.365   7.868  15.763  0.00  0.00    +0.000 HD
BRANCH  18  21
ATOM     21  C   UNL     1      48.906   7.039  17.662  0.00  0.00    +0.000 A 
ATOM     22  C   UNL     1      48.711   8.259  18.293  0.00  0.00    +0.000 A 
ATOM     23  S   UNL     1      48.313   8.118  19.945  0.00  0.00    +0.000 S 
ATOM     24  C   UNL     1      48.448   6.422  19.889  0.00  0.00    +0.000 A 
ATOM     25  N   UNL     1      48.241   5.667  21.002  0.00  0.00    +0.000 NA
ATOM     26  C   UNL     1      48.411   4.401  20.824  0.00  0.00    +0.000 A 
ATOM     27  N   UNL     1      48.766   3.818  19.636  0.00  0.00    +0.000 N 
ATOM     28  C   UNL     1      48.955   4.536  18.479  0.00  0.00    +0.000 A 
ATOM     29  O   UNL     1      49.237   3.981  17.422  0.00  0.00    +0.000 OA
ATOM     30  C   UNL     1      48.780   5.970  18.624  0.00  0.00    +0.000 A 
ATOM     31  H   UNL     1      48.879   2.818  19.562  0.00  0.00    +0.000 HD
ENDBRANCH  18  21
ENDBRANCH   1  17
TORSDOF 6
ENDMDL
MODEL 3
REMARK VINA RESULT:    -6.829      2.661      8.319
REMARK INTER + INTRA:         -10.360
REMARK INTER:                  -9.332
REMARK INTRA:                  -1.028
REMARK UNBOUND:                -1.136
REMARK  Name = 
REMARK  6 active torsions:
REMARK  status: ('A' for Active; 'I' for Inactive)
REMARK    1  A    between atoms: C_2  and  C_3
REMARK    2  A    between atoms: C_7  and  O_8
REMARK    3  A    between atoms: O_8  and  C_9
REMARK    4  A    between atoms: C_12  and  C_13
REMARK    5  A    between atoms: C_13  and  N_14
REMARK    6  A    between atoms: C_15  and  C_17
REMARK                            x       y       z     vdW  Elec       q    Type
REMARK                         _______ _______ _______ _____ _____    ______ ____
ROOT
ATOM      1  C   UNL     1      47.714   7.895  11.759  0.00  0.00    +0.000 C 
ENDROOT
BRANCH   1   5
ATOM      2  C   UNL     1      49.327   8.142  15.754  0.00  0.00    +0.000 A 
ATOM      3  C   UNL     1      48.213   8.907  15.401  0.00  0.00    +0.000 A 
ATOM      4  C   UNL     1      47.686   8.823  14.108  0.00  0.00    +0.000 A 
ATOM      5  C   UNL     1      48.296   8.012  13.142  0.00  0.00    +0.000 A 
ATOM      6  C   UNL     1      49.482   7.343  13.472  0.00  0.00    +0.000 A 
ATOM      7  C   UNL     1      49.988   7.402  14.773  0.00  0.00    +0.000 A 
BRANCH   2   8
ATOM      8  O   UNL     1      49.884   8.107  17.011  0.00  0.00    +0.000 OA
BRANCH   8  13
ATOM      9  C   UNL     1      48.180   5.155  18.297  0.00  0.00    +0.000 A 
ATOM     10  C   UNL     1      48.475   5.208  19.663  0.00  0.00    +0.000 A 
ATOM     11  C   UNL     1      49.219   6.272  20.174  0.00  0.00    +0.000 A 
ATOM     12  C   UNL     1      49.677   7.278  19.320  0.00  0.00    +0.000 A 
ATOM     13  C   UNL     1      49.449   7.192  17.944  0.00  0.00    +0.000 A 
ATOM     14  C   UNL     1      48.669   6.147  17.439  0.00  0.00    +0.000 A 
BRANCH   9  16
ATOM     15  N   UNL     1      46.721   3.225  17.364  0.00  0.00    +0.000 NA
ATOM     16  C   UNL     1      47.372   4.091  17.778  0.00  0.00    +0.000 C 
ENDBRANCH   9  16
ENDBRANCH   8  13
ENDBRANCH   2   8
ENDBRANCH   1   5
BRANCH   1  17
ATOM     17  N   UNL     1      47.002   6.656  11.601  0.00  0.00    +0.000 N 
ATOM     18  C   UNL     1      45.638   6.599  11.726  0.00  0.00    +0.000 C 
ATOM     19  O   UNL     1      44.963   7.605  11.935  0.00  0.00    +0.000 OA
ATOM     20  H   UNL     1      47.546   5.800  11.665  0.00  0.00    +0.000 HD
BRANCH  18  21
ATOM     21  C   UNL     1      45.020   5.287  11.516  0.00  0.00    +0.000 A 
ATOM     22  C   UNL     1      44.334   4.677  12.557  0.00  0.00    +0.000 A 
ATOM     23  S   UNL     1      43.610   3.196  12.123  0.00  0.00    +0.000 S 
ATOM     24  C   UNL     1      44.239   3.288  10.544  0.00  0.00    +0.000 A 
ATOM     25  N   UNL     1      43.998   2.303   9.636  0.00  0.00    +0.000 NA
ATOM     26  C   UNL     1      44.565   2.484   8.492  0.00  0.00    +0.000 A 
ATOM     27  N   UNL     1      45.348   3.562   8.169  0.00  0.00    +0.000 N 
ATOM     28  C   UNL     1      45.593   4.595   9.041  0.00  0.00    +0.000 A 
ATOM     29  O   UNL     1      46.269   5.563   8.709  0.00  0.00    +0.000 OA
ATOM     30  C   UNL     1      44.982   4.439  10.348  0.00  0.00    +0.000 A 
ATOM     31  H   UNL     1      45.760   3.646   7.251  0.00  0.00    +0.000 HD
ENDBRANCH  18  21
ENDBRANCH   1  17
TORSDOF 6
ENDMDL
MODEL 4
REMARK VINA RESULT:    -6.787      1.109      1.380
REMARK INTER + INTRA:         -10.304
REMARK INTER:                  -8.996
REMARK INTRA:                  -1.308
REMARK UNBOUND:                -1.136
REMARK  Name = 
REMARK  6 active torsions:
REMARK  status: ('A' for Active; 'I' for Inactive)
REMARK    1  A    between atoms: C_2  and  C_3
REMARK    2  A    between atoms: C_7  and  O_8
REMARK    3  A    between atoms: O_8  and  C_9
REMARK    4  A    between atoms: C_12  and  C_13
REMARK    5  A    between atoms: C_13  and  N_14
REMARK    6  A    between atoms: C_15  and  C_17
REMARK                            x       y       z     vdW  Elec       q    Type
REMARK                         _______ _______ _______ _____ _____    ______ ____
ROOT
ATOM      1  C   UNL     1      48.075   8.916  14.640  0.00  0.00    +0.000 C 
ENDROOT
BRANCH   1   5
ATOM      2  C   UNL     1      45.717   7.071  11.532  0.00  0.00    +0.000 A 
ATOM      3  C   UNL     1      47.023   6.637  11.770  0.00  0.00    +0.000 A 
ATOM      4  C   UNL     1      47.786   7.231  12.781  0.00  0.00    +0.000 A 
ATOM      5  C   UNL     1      47.269   8.296  13.530  0.00  0.00    +0.000 A 
ATOM      6  C   UNL     1      46.004   8.801  13.203  0.00  0.00    +0.000 A 
ATOM      7  C   UNL     1      45.231   8.187  12.215  0.00  0.00    +0.000 A 
BRANCH   2   8
ATOM      8  O   UNL     1      44.865   6.516  10.606  0.00  0.00    +0.000 OA
BRANCH   8  13
ATOM      9  C   UNL     1      44.859   2.965   9.796  0.00  0.00    +0.000 A 
ATOM     10  C   UNL     1      43.937   2.448  10.711  0.00  0.00    +0.000 A 
ATOM     11  C   UNL     1      43.269   3.306  11.586  0.00  0.00    +0.000 A 
ATOM     12  C   UNL     1      43.530   4.677  11.555  0.00  0.00    +0.000 A 
ATOM     13  C   UNL     1      44.505   5.189  10.693  0.00  0.00    +0.000 A 
ATOM     14  C   UNL     1      45.143   4.334   9.790  0.00  0.00    +0.000 A 
BRANCH   9  16
ATOM     15  N   UNL     1      46.026   1.382   8.104  0.00  0.00    +0.000 NA
ATOM     16  C   UNL     1      45.507   2.092   8.861  0.00  0.00    +0.000 C 
ENDBRANCH   9  16
ENDBRANCH   8  13
ENDBRANCH   2   8
ENDBRANCH   1   5
BRANCH   1  17
ATOM     17  N   UNL     1      48.246   7.997  15.732  0.00  0.00    +0.000 N 
ATOM     18  C   UNL     1      49.482   7.495  16.051  0.00  0.00    +0.000 C 
ATOM     19  O   UNL     1      50.497   7.839  15.450  0.00  0.00    +0.000 OA
ATOM     20  H   UNL     1      47.412   7.530  16.076  0.00  0.00    +0.000 HD
BRANCH  18  21
ATOM     21  C   UNL     1      49.537   6.588  17.201  0.00  0.00    +0.000 A 
ATOM     22  C   UNL     1      50.282   6.939  18.318  0.00  0.00    +0.000 A 
ATOM     23  S   UNL     1      50.174   5.813  19.593  0.00  0.00    +0.000 S 
ATOM     24  C   UNL     1      49.175   4.786  18.674  0.00  0.00    +0.000 A 
ATOM     25  N   UNL     1      48.723   3.608  19.186  0.00  0.00    +0.000 NA
ATOM     26  C   UNL     1      48.007   2.913  18.370  0.00  0.00    +0.000 A 
ATOM     27  N   UNL     1      47.696   3.288  17.088  0.00  0.00    +0.000 N 
ATOM     28  C   UNL     1      48.103   4.480  16.539  0.00  0.00    +0.000 A 
ATOM     29  O   UNL     1      47.778   4.803  15.402  0.00  0.00    +0.000 OA
ATOM     30  C   UNL     1      48.918   5.300  17.416  0.00  0.00    +0.000 A 
ATOM     31  H   UNL     1      47.125   2.699  16.499  0.00  0.00    +0.000 HD
ENDBRANCH  18  21
ENDBRANCH   1  17
TORSDOF 6
ENDMDL
MODEL 5
REMARK VINA RESULT:    -6.786      2.440      4.247
REMARK INTER + INTRA:         -10.302
REMARK INTER:                  -9.210
REMARK INTRA:                  -1.092
REMARK UNBOUND:                -1.136
REMARK  Name = 
REMARK  6 active torsions:
REMARK  status: ('A' for Active; 'I' for Inactive)
REMARK    1  A    between atoms: C_2  and  C_3
REMARK    2  A    between atoms: C_7  and  O_8
REMARK    3  A    between atoms: O_8  and  C_9
REMARK    4  A    between atoms: C_12  and  C_13
REMARK    5  A    between atoms: C_13  and  N_14
REMARK    6  A    between atoms: C_15  and  C_17
REMARK                            x       y       z     vdW  Elec       q    Type
REMARK                         _______ _______ _______ _____ _____    ______ ____
ROOT
ATOM      1  C   UNL     1      46.808   4.988  14.814  0.00  0.00    +0.000 C 
ENDROOT
BRANCH   1   5
ATOM      2  C   UNL     1      45.230   4.212  10.873  0.00  0.00    +0.000 A 
ATOM      3  C   UNL     1      45.286   3.186  11.819  0.00  0.00    +0.000 A 
ATOM      4  C   UNL     1      45.791   3.438  13.097  0.00  0.00    +0.000 A 
ATOM      5  C   UNL     1      46.292   4.704  13.428  0.00  0.00    +0.000 A 
ATOM      6  C   UNL     1      46.341   5.692  12.436  0.00  0.00    +0.000 A 
ATOM      7  C   UNL     1      45.805   5.448  11.169  0.00  0.00    +0.000 A 
BRANCH   2   8
ATOM      8  O   UNL     1      44.696   4.084   9.611  0.00  0.00    +0.000 OA
BRANCH   8  13
ATOM      9  C   UNL     1      46.414   1.594   7.583  0.00  0.00    +0.000 A 
ATOM     10  C   UNL     1      46.961   2.368   6.554  0.00  0.00    +0.000 A 
ATOM     11  C   UNL     1      46.793   3.753   6.561  0.00  0.00    +0.000 A 
ATOM     12  C   UNL     1      46.069   4.365   7.587  0.00  0.00    +0.000 A 
ATOM     13  C   UNL     1      45.458   3.589   8.577  0.00  0.00    +0.000 A 
ATOM     14  C   UNL     1      45.662   2.206   8.592  0.00  0.00    +0.000 A 
BRANCH   9  16
ATOM     15  N   UNL     1      46.802  -0.970   7.633  0.00  0.00    +0.000 NA
ATOM     16  C   UNL     1      46.630   0.177   7.607  0.00  0.00    +0.000 C 
ENDBRANCH   9  16
ENDBRANCH   8  13
ENDBRANCH   2   8
ENDBRANCH   1   5
BRANCH   1  17
ATOM     17  N   UNL     1      47.589   6.194  14.838  0.00  0.00    +0.000 N 
ATOM     18  C   UNL     1      48.707   6.301  15.626  0.00  0.00    +0.000 C 
ATOM     19  O   UNL     1      49.111   5.363  16.309  0.00  0.00    +0.000 OA
ATOM     20  H   UNL     1      47.150   7.036  14.476  0.00  0.00    +0.000 HD
BRANCH  18  21
ATOM     21  C   UNL     1      49.438   7.569  15.547  0.00  0.00    +0.000 A 
ATOM     22  C   UNL     1      49.661   8.306  16.701  0.00  0.00    +0.000 A 
ATOM     23  S   UNL     1      50.595   9.710  16.446  0.00  0.00    +0.000 S 
ATOM     24  C   UNL     1      50.682   9.413  14.772  0.00  0.00    +0.000 A 
ATOM     25  N   UNL     1      51.345  10.267  13.944  0.00  0.00    +0.000 NA
ATOM     26  C   UNL     1      51.300   9.940  12.697  0.00  0.00    +0.000 A 
ATOM     27  N   UNL     1      50.657   8.836  12.200  0.00  0.00    +0.000 N 
ATOM     28  C   UNL     1      50.003   7.930  13.000  0.00  0.00    +0.000 A 
ATOM     29  O   UNL     1      49.468   6.933  12.528  0.00  0.00    +0.000 OA
ATOM     30  C   UNL     1      50.018   8.254  14.415  0.00  0.00    +0.000 A 
ATOM     31  H   UNL     1      50.664   8.634  11.211  0.00  0.00    +0.000 HD
ENDBRANCH  18  21
ENDBRANCH   1  17
TORSDOF 6
ENDMDL
MODEL 6
REMARK VINA RESULT:    -6.755      3.903      8.760
REMARK INTER + INTRA:         -10.261
REMARK INTER:                  -9.238
REMARK INTRA:                  -1.023
REMARK UNBOUND:                -1.136
REMARK  Name = 
REMARK  6 active torsions:
REMARK  status: ('A' for Active; 'I' for Inactive)
REMARK    1  A    between atoms: C_2  and  C_3
REMARK    2  A    between atoms: C_7  and  O_8
REMARK    3  A    between atoms: O_8  and  C_9
REMARK    4  A    between atoms: C_12  and  C_13
REMARK    5  A    between atoms: C_13  and  N_14
REMARK    6  A    between atoms: C_15  and  C_17
REMARK                            x       y       z     vdW  Elec       q    Type
REMARK                         _______ _______ _______ _____ _____    ______ ____
ROOT
ATOM      1  C   UNL     1      47.324   3.429  16.513  0.00  0.00    +0.000 C 
ENDROOT
BRANCH   1   5
ATOM      2  C   UNL     1      51.211   4.726  17.867  0.00  0.00    +0.000 A 
ATOM      3  C   UNL     1      50.933   3.363  17.740  0.00  0.00    +0.000 A 
ATOM      4  C   UNL     1      49.676   2.942  17.296  0.00  0.00    +0.000 A 
ATOM      5  C   UNL     1      48.669   3.877  17.022  0.00  0.00    +0.000 A 
ATOM      6  C   UNL     1      48.920   5.233  17.267  0.00  0.00    +0.000 A 
ATOM      7  C   UNL     1      50.187   5.654  17.679  0.00  0.00    +0.000 A 
BRANCH   2   8
ATOM      8  O   UNL     1      52.431   5.244  18.236  0.00  0.00    +0.000 OA
BRANCH   8  13
ATOM      9  C   UNL     1      54.560   6.203  15.441  0.00  0.00    +0.000 A 
ATOM     10  C   UNL     1      55.604   5.276  15.526  0.00  0.00    +0.000 A 
ATOM     11  C   UNL     1      55.576   4.283  16.506  0.00  0.00    +0.000 A 
ATOM     12  C   UNL     1      54.512   4.222  17.408  0.00  0.00    +0.000 A 
ATOM     13  C   UNL     1      53.504   5.190  17.375  0.00  0.00    +0.000 A 
ATOM     14  C   UNL     1      53.512   6.159  16.367  0.00  0.00    +0.000 A 
BRANCH   9  16
ATOM     15  N   UNL     1      54.560   7.985  13.558  0.00  0.00    +0.000 NA
ATOM     16  C   UNL     1      54.561   7.191  14.403  0.00  0.00    +0.000 C 
ENDBRANCH   9  16
ENDBRANCH   8  13
ENDBRANCH   2   8
ENDBRANCH   1   5
BRANCH   1  17
ATOM     17  N   UNL     1      46.753   4.409  15.629  0.00  0.00    +0.000 N 
ATOM     18  C   UNL     1      46.745   4.220  14.270  0.00  0.00    +0.000 C 
ATOM     19  O   UNL     1      47.184   3.195  13.755  0.00  0.00    +0.000 OA
ATOM     20  H   UNL     1      46.608   5.341  16.005  0.00  0.00    +0.000 HD
BRANCH  18  21
ATOM     21  C   UNL     1      46.112   5.274  13.472  0.00  0.00    +0.000 A 
ATOM     22  C   UNL     1      46.786   6.467  13.251  0.00  0.00    +0.000 A 
ATOM     23  S   UNL     1      45.944   7.549  12.238  0.00  0.00    +0.000 S 
ATOM     24  C   UNL     1      44.621   6.486  12.110  0.00  0.00    +0.000 A 
ATOM     25  N   UNL     1      43.523   6.821  11.377  0.00  0.00    +0.000 NA
ATOM     26  C   UNL     1      42.582   5.939  11.397  0.00  0.00    +0.000 A 
ATOM     27  N   UNL     1      42.637   4.752  12.079  0.00  0.00    +0.000 N 
ATOM     28  C   UNL     1      43.735   4.357  12.805  0.00  0.00    +0.000 A 
ATOM     29  O   UNL     1      43.767   3.272  13.375  0.00  0.00    +0.000 OA
ATOM     30  C   UNL     1      44.824   5.317  12.821  0.00  0.00    +0.000 A 
ATOM     31  H   UNL     1      41.866   4.101  12.050  0.00  0.00    +0.000 HD
ENDBRANCH  18  21
ENDBRANCH   1  17
TORSDOF 6
ENDMDL
MODEL 7
REMARK VINA RESULT:    -6.700      4.687      7.603
REMARK INTER + INTRA:         -10.186
REMARK INTER:                  -9.179
REMARK INTRA:                  -1.007
REMARK UNBOUND:                -1.136
REMARK  Name = 
REMARK  6 active torsions:
REMARK  status: ('A' for Active; 'I' for Inactive)
REMARK    1  A    between atoms: C_2  and  C_3
REMARK    2  A    between atoms: C_7  and  O_8
REMARK    3  A    between atoms: O_8  and  C_9
REMARK    4  A    between atoms: C_12  and  C_13
REMARK    5  A    between atoms: C_13  and  N_14
REMARK    6  A    between atoms: C_15  and  C_17
REMARK                            x       y       z     vdW  Elec       q    Type
REMARK                         _______ _______ _______ _____ _____    ______ ____
ROOT
ATOM      1  C   UNL     1      46.540   8.326  12.673  0.00  0.00    +0.000 C 
ENDROOT
BRANCH   1   5
ATOM      2  C   UNL     1      50.657   8.724  11.443  0.00  0.00    +0.000 A 
ATOM      3  C   UNL     1      49.802   9.828  11.393  0.00  0.00    +0.000 A 
ATOM      4  C   UNL     1      48.470   9.701  11.797  0.00  0.00    +0.000 A 
ATOM      5  C   UNL     1      47.966   8.460  12.207  0.00  0.00    +0.000 A 
ATOM      6  C   UNL     1      48.799   7.336  12.140  0.00  0.00    +0.000 A 
ATOM      7  C   UNL     1      50.139   7.470  11.768  0.00  0.00    +0.000 A 
BRANCH   2   8
ATOM      8  O   UNL     1      51.996   8.757  11.127  0.00  0.00    +0.000 OA
BRANCH   8  13
ATOM      9  C   UNL     1      52.838   7.388   7.859  0.00  0.00    +0.000 A 
ATOM     10  C   UNL     1      53.188   8.531   7.134  0.00  0.00    +0.000 A 
ATOM     11  C   UNL     1      53.187   9.779   7.758  0.00  0.00    +0.000 A 
ATOM     12  C   UNL     1      52.826   9.887   9.103  0.00  0.00    +0.000 A 
ATOM     13  C   UNL     1      52.404   8.758   9.812  0.00  0.00    +0.000 A 
ATOM     14  C   UNL     1      52.446   7.504   9.196  0.00  0.00    +0.000 A 
BRANCH   9  16
ATOM     15  N   UNL     1      52.935   5.054   6.733  0.00  0.00    +0.000 NA
ATOM     16  C   UNL     1      52.889   6.099   7.234  0.00  0.00    +0.000 C 
ENDBRANCH   9  16
ENDBRANCH   8  13
ENDBRANCH   2   8
ENDBRANCH   1   5
BRANCH   1  17
ATOM     17  N   UNL     1      46.049   6.992  12.459  0.00  0.00    +0.000 N 
ATOM     18  C   UNL     1      44.965   6.755  11.652  0.00  0.00    +0.000 C 
ATOM     19  O   UNL     1      44.396   7.660  11.047  0.00  0.00    +0.000 OA
ATOM     20  H   UNL     1      46.346   6.280  13.119  0.00  0.00    +0.000 HD
BRANCH  18  21
ATOM     21  C   UNL     1      44.573   5.352  11.488  0.00  0.00    +0.000 A 
ATOM     22  C   UNL     1      43.873   4.712  12.501  0.00  0.00    +0.000 A 
ATOM     23  S   UNL     1      43.424   3.112  12.116  0.00  0.00    +0.000 S 
ATOM     24  C   UNL     1      44.204   3.199  10.605  0.00  0.00    +0.000 A 
ATOM     25  N   UNL     1      44.212   2.132   9.760  0.00  0.00    +0.000 NA
ATOM     26  C   UNL     1      44.869   2.325   8.667  0.00  0.00    +0.000 A 
ATOM     27  N   UNL     1      45.518   3.487   8.339  0.00  0.00    +0.000 N 
ATOM     28  C   UNL     1      45.512   4.599   9.145  0.00  0.00    +0.000 A 
ATOM     29  O   UNL     1      46.071   5.636   8.807  0.00  0.00    +0.000 OA
ATOM     30  C   UNL     1      44.789   4.435  10.393  0.00  0.00    +0.000 A 
ATOM     31  H   UNL     1      46.013   3.575   7.463  0.00  0.00    +0.000 HD
ENDBRANCH  18  21
ENDBRANCH   1  17
TORSDOF 6
ENDMDL
MODEL 8
REMARK VINA RESULT:    -6.581      1.813      2.099
REMARK INTER + INTRA:         -10.026
REMARK INTER:                  -8.888
REMARK INTRA:                  -1.139
REMARK UNBOUND:                -1.136
REMARK  Name = 
REMARK  6 active torsions:
REMARK  status: ('A' for Active; 'I' for Inactive)
REMARK    1  A    between atoms: C_2  and  C_3
REMARK    2  A    between atoms: C_7  and  O_8
REMARK    3  A    between atoms: O_8  and  C_9
REMARK    4  A    between atoms: C_12  and  C_13
REMARK    5  A    between atoms: C_13  and  N_14
REMARK    6  A    between atoms: C_15  and  C_17
REMARK                            x       y       z     vdW  Elec       q    Type
REMARK                         _______ _______ _______ _____ _____    ______ ____
ROOT
ATOM      1  C   UNL     1      48.128   7.853  14.193  0.00  0.00    +0.000 C 
ENDROOT
BRANCH   1   5
ATOM      2  C   UNL     1      45.351   5.944  11.497  0.00  0.00    +0.000 A 
ATOM      3  C   UNL     1      46.069   5.179  12.420  0.00  0.00    +0.000 A 
ATOM      4  C   UNL     1      46.964   5.797  13.298  0.00  0.00    +0.000 A 
ATOM      5  C   UNL     1      47.188   7.179  13.229  0.00  0.00    +0.000 A 
ATOM      6  C   UNL     1      46.554   7.917  12.223  0.00  0.00    +0.000 A 
ATOM      7  C   UNL     1      45.635   7.304  11.368  0.00  0.00    +0.000 A 
BRANCH   2   8
ATOM      8  O   UNL     1      44.405   5.442  10.634  0.00  0.00    +0.000 OA
BRANCH   8  13
ATOM      9  C   UNL     1      45.641   3.231   8.017  0.00  0.00    +0.000 A 
ATOM     10  C   UNL     1      45.205   1.975   8.453  0.00  0.00    +0.000 A 
ATOM     11  C   UNL     1      44.446   1.868   9.618  0.00  0.00    +0.000 A 
ATOM     12  C   UNL     1      44.130   3.012  10.355  0.00  0.00    +0.000 A 
ATOM     13  C   UNL     1      44.625   4.259   9.964  0.00  0.00    +0.000 A 
ATOM     14  C   UNL     1      45.351   4.371   8.775  0.00  0.00    +0.000 A 
BRANCH   9  16
ATOM     15  N   UNL     1      46.977   3.449   5.805  0.00  0.00    +0.000 NA
ATOM     16  C   UNL     1      46.376   3.350   6.792  0.00  0.00    +0.000 C 
ENDBRANCH   9  16
ENDBRANCH   8  13
ENDBRANCH   2   8
ENDBRANCH   1   5
BRANCH   1  17
ATOM     17  N   UNL     1      48.203   7.130  15.434  0.00  0.00    +0.000 N 
ATOM     18  C   UNL     1      49.411   6.822  16.005  0.00  0.00    +0.000 C 
ATOM     19  O   UNL     1      50.475   7.185  15.508  0.00  0.00    +0.000 OA
ATOM     20  H   UNL     1      47.369   6.629  15.726  0.00  0.00    +0.000 HD
BRANCH  18  21
ATOM     21  C   UNL     1      49.362   6.107  17.284  0.00  0.00    +0.000 A 
ATOM     22  C   UNL     1      49.982   4.871  17.403  0.00  0.00    +0.000 A 
ATOM     23  S   UNL     1      49.899   4.215  18.974  0.00  0.00    +0.000 S 
ATOM     24  C   UNL     1      48.978   5.532  19.535  0.00  0.00    +0.000 A 
ATOM     25  N   UNL     1      48.552   5.587  20.827  0.00  0.00    +0.000 NA
ATOM     26  C   UNL     1      47.834   6.622  21.106  0.00  0.00    +0.000 A 
ATOM     27  N   UNL     1      47.504   7.608  20.214  0.00  0.00    +0.000 N 
ATOM     28  C   UNL     1      47.937   7.612  18.910  0.00  0.00    +0.000 A 
ATOM     29  O   UNL     1      47.655   8.528  18.145  0.00  0.00    +0.000 OA
ATOM     30  C   UNL     1      48.747   6.464  18.540  0.00  0.00    +0.000 A 
ATOM     31  H   UNL     1      46.941   8.397  20.497  0.00  0.00    +0.000 HD
ENDBRANCH  18  21
ENDBRANCH   1  17
TORSDOF 6
ENDMDL
MODEL 9
REMARK VINA RESULT:    -6.536      2.226      2.893
REMARK INTER + INTRA:          -9.965
REMARK INTER:                  -8.840
REMARK INTRA:                  -1.126
REMARK UNBOUND:                -1.136
REMARK  Name = 
REMARK  6 active torsions:
REMARK  status: ('A' for Active; 'I' for Inactive)
REMARK    1  A    between atoms: C_2  and  C_3
REMARK    2  A    between atoms: C_7  and  O_8
REMARK    3  A    between atoms: O_8  and  C_9
REMARK    4  A    between atoms: C_12  and  C_13
REMARK    5  A    between atoms: C_13  and  N_14
REMARK    6  A    between atoms: C_15  and  C_17
REMARK                            x       y       z     vdW  Elec       q    Type
REMARK                         _______ _______ _______ _____ _____    ______ ____
ROOT
ATOM      1  C   UNL     1      49.155   8.300  15.776  0.00  0.00    +0.000 C 
ENDROOT
BRANCH   1   5
ATOM      2  C   UNL     1      46.646   7.080  12.483  0.00  0.00    +0.000 A 
ATOM      3  C   UNL     1      47.624   6.213  12.977  0.00  0.00    +0.000 A 
ATOM      4  C   UNL     1      48.433   6.605  14.047  0.00  0.00    +0.000 A 
ATOM      5  C   UNL     1      48.307   7.885  14.603  0.00  0.00    +0.000 A 
ATOM      6  C   UNL     1      47.407   8.788  14.023  0.00  0.00    +0.000 A 
ATOM      7  C   UNL     1      46.576   8.384  12.975  0.00  0.00    +0.000 A 
BRANCH   2   8
ATOM      8  O   UNL     1      45.761   6.769  11.477  0.00  0.00    +0.000 OA
BRANCH   8  13
ATOM      9  C   UNL     1      44.372   3.505  10.652  0.00  0.00    +0.000 A 
ATOM     10  C   UNL     1      43.386   3.340  11.631  0.00  0.00    +0.000 A 
ATOM     11  C   UNL     1      43.148   4.357  12.556  0.00  0.00    +0.000 A 
ATOM     12  C   UNL     1      43.901   5.532  12.513  0.00  0.00    +0.000 A 
ATOM     13  C   UNL     1      44.937   5.671  11.584  0.00  0.00    +0.000 A 
ATOM     14  C   UNL     1      45.147   4.669  10.632  0.00  0.00    +0.000 A 
BRANCH   9  16
ATOM     15  N   UNL     1      44.746   1.658   8.870  0.00  0.00    +0.000 NA
ATOM     16  C   UNL     1      44.583   2.484   9.668  0.00  0.00    +0.000 C 
ENDBRANCH   9  16
ENDBRANCH   8  13
ENDBRANCH   2   8
ENDBRANCH   1   5
BRANCH   1  17
ATOM     17  N   UNL     1      50.101   7.274  16.119  0.00  0.00    +0.000 N 
ATOM     18  C   UNL     1      49.984   6.559  17.283  0.00  0.00    +0.000 C 
ATOM     19  O   UNL     1      49.047   6.734  18.060  0.00  0.00    +0.000 OA
ATOM     20  H   UNL     1      50.988   7.280  15.623  0.00  0.00    +0.000 HD
BRANCH  18  21
ATOM     21  C   UNL     1      50.992   5.520  17.513  0.00  0.00    +0.000 A 
ATOM     22  C   UNL     1      52.277   5.882  17.890  0.00  0.00    +0.000 A 
ATOM     23  S   UNL     1      53.300   4.553  18.194  0.00  0.00    +0.000 S 
ATOM     24  C   UNL     1      52.077   3.446  17.772  0.00  0.00    +0.000 A 
ATOM     25  N   UNL     1      52.307   2.104  17.804  0.00  0.00    +0.000 NA
ATOM     26  C   UNL     1      51.306   1.385  17.426  0.00  0.00    +0.000 A 
ATOM     27  N   UNL     1      50.094   1.882  17.021  0.00  0.00    +0.000 N 
ATOM     28  C   UNL     1      49.805   3.225  17.003  0.00  0.00    +0.000 A 
ATOM     29  O   UNL     1      48.699   3.636  16.671  0.00  0.00    +0.000 OA
ATOM     30  C   UNL     1      50.902   4.082  17.416  0.00  0.00    +0.000 A 
ATOM     31  H   UNL     1      49.347   1.262  16.741  0.00  0.00    +0.000 HD
ENDBRANCH  18  21
ENDBRANCH   1  17
TORSDOF 6
ENDMDL
