MODEL 1
REMARK VINA RESULT:    -8.000      0.000      0.000
REMARK INTER + INTRA:         -12.788
REMARK INTER:                 -11.741
REMARK INTRA:                  -1.046
REMARK UNBOUND:                -1.046
REMARK  Name = 
REMARK  9 active torsions:
REMARK  status: ('A' for Active; 'I' for Inactive)
REMARK    1  A    between atoms: C_1  and  O_2
REMARK    2  A    between atoms: O_2  and  C_3
REMARK    3  A    between atoms: C_10  and  C_11
REMARK    4  A    between atoms: N_13  and  C_14
REMARK    5  A    between atoms: C_14  and  C_15
REMARK    6  A    between atoms: C_18  and  C_19
REMARK    7  A    between atoms: C_19  and  S_20
REMARK    8  A    between atoms: S_20  and  C_21
REMARK    9  A    between atoms: C_21  and  C_22
REMARK                            x       y       z     vdW  Elec       q    Type
REMARK                         _______ _______ _______ _____ _____    ______ ____
ROOT
ATOM      1  C   UNL     1      47.546   8.142  13.042  0.00  0.00    +0.000 C 
ENDROOT
BRANCH   1   2
ATOM      2  C   UNL     1      46.482   7.176  12.585  0.00  0.00    +0.000 A 
ATOM      3  C   UNL     1      45.267   7.648  12.074  0.00  0.00    +0.000 A 
ATOM      4  C   UNL     1      44.277   6.756  11.649  0.00  0.00    +0.000 A 
ATOM      5  C   UNL     1      44.479   5.368  11.712  0.00  0.00    +0.000 A 
ATOM      6  C   UNL     1      45.679   4.898  12.264  0.00  0.00    +0.000 A 
ATOM      7  C   UNL     1      46.667   5.791  12.699  0.00  0.00    +0.000 A 
BRANCH   5   8
ATOM      8  C   UNL     1      43.427   4.410  11.187  0.00  0.00    +0.000 C 
BRANCH   8   9
ATOM      9  S   UNL     1      44.198   3.022  10.279  0.00  0.00    +0.000 S 
BRANCH   9  10
ATOM     10  C   UNL     1      44.749   3.877   8.770  0.00  0.00    +0.000 C 
BRANCH  10  11
ATOM     11  C   UNL     1      45.712   3.011   7.987  0.00  0.00    +0.000 A 
ATOM     12  C   UNL     1      45.978   1.692   8.389  0.00  0.00    +0.000 A 
ATOM     13  C   UNL     1      46.896   0.905   7.687  0.00  0.00    +0.000 A 
ATOM     14  C   UNL     1      47.562   1.426   6.580  0.00  0.00    +0.000 A 
ATOM     15  C   UNL     1      47.314   2.735   6.175  0.00  0.00    +0.000 A 
ATOM     16  C   UNL     1      46.398   3.523   6.874  0.00  0.00    +0.000 A 
ENDBRANCH  10  11
ENDBRANCH   9  10
ENDBRANCH   8   9
ENDBRANCH   5   8
ENDBRANCH   1   2
BRANCH   1  19
ATOM     17  C   UNL     1      48.694   7.400  15.089  0.00  0.00    +0.000 C 
ATOM     18  O   UNL     1      49.512   6.753  14.438  0.00  0.00    +0.000 OA
ATOM     19  N   UNL     1      47.696   8.102  14.476  0.00  0.00    +0.000 N 
ATOM     20  H   UNL     1      47.010   8.600  15.027  0.00  0.00    +0.000 HD
BRANCH  17  28
ATOM     21  C   UNL     1      48.748   4.968  17.529  0.00  0.00    +0.000 A 
ATOM     22  N   UNL     1      48.799   4.241  18.664  0.00  0.00    +0.000 NA
ATOM     23  C   UNL     1      48.860   4.897  19.827  0.00  0.00    +0.000 A 
ATOM     24  N   UNL     1      48.874   6.214  20.002  0.00  0.00    +0.000 NA
ATOM     25  C   UNL     1      48.828   6.901  18.846  0.00  0.00    +0.000 A 
ATOM     26  S   UNL     1      48.831   8.597  18.883  0.00  0.00    +0.000 S 
ATOM     27  C   UNL     1      48.766   8.681  17.187  0.00  0.00    +0.000 A 
ATOM     28  C   UNL     1      48.748   7.441  16.562  0.00  0.00    +0.000 A 
ATOM     29  C   UNL     1      48.776   6.373  17.560  0.00  0.00    +0.000 A 
BRANCH  21  31
ATOM     30  C   UNL     1      47.392   3.998  15.888  0.00  0.00    +0.000 C 
ATOM     31  O   UNL     1      48.716   4.289  16.329  0.00  0.00    +0.000 OA
ENDBRANCH  21  31
ENDBRANCH  17  28
ENDBRANCH   1  19
TORSDOF 8
ENDMDL
MODEL 2
REMARK VINA RESULT:    -7.837      1.739      2.914
REMARK INTER + INTRA:         -12.549
REMARK INTER:                 -11.425
REMARK INTRA:                  -1.124
REMARK UNBOUND:                -1.046
REMARK  Name = 
REMARK  9 active torsions:
REMARK  status: ('A' for Active; 'I' for Inactive)
REMARK    1  A    between atoms: C_1  and  O_2
REMARK    2  A    between atoms: O_2  and  C_3
REMARK    3  A    between atoms: C_10  and  C_11
REMARK    4  A    between atoms: N_13  and  C_14
REMARK    5  A    between atoms: C_14  and  C_15
REMARK    6  A    between atoms: C_18  and  C_19
REMARK    7  A    between atoms: C_19  and  S_20
REMARK    8  A    between atoms: S_20  and  C_21
REMARK    9  A    between atoms: C_21  and  C_22
REMARK                            x       y       z     vdW  Elec       q    Type
REMARK                         _______ _______ _______ _____ _____    ______ ____
ROOT
ATOM      1  C   UNL     1      48.552   6.591  14.161  0.00  0.00    +0.000 C 
ENDROOT
BRANCH   1   2
ATOM      2  C   UNL     1      47.357   6.101  13.382  0.00  0.00    +0.000 A 
ATOM      3  C   UNL     1      46.638   4.981  13.816  0.00  0.00    +0.000 A 
ATOM      4  C   UNL     1      45.529   4.523  13.096  0.00  0.00    +0.000 A 
ATOM      5  C   UNL     1      45.102   5.178  11.931  0.00  0.00    +0.000 A 
ATOM      6  C   UNL     1      45.850   6.274  11.475  0.00  0.00    +0.000 A 
ATOM      7  C   UNL     1      46.967   6.727  12.190  0.00  0.00    +0.000 A 
BRANCH   5   8
ATOM      8  C   UNL     1      43.859   4.716  11.195  0.00  0.00    +0.000 C 
BRANCH   8   9
ATOM      9  S   UNL     1      44.189   3.194  10.237  0.00  0.00    +0.000 S 
BRANCH   9  10
ATOM     10  C   UNL     1      44.682   3.910   8.636  0.00  0.00    +0.000 C 
BRANCH  10  11
ATOM     11  C   UNL     1      45.690   3.021   7.942  0.00  0.00    +0.000 A 
ATOM     12  C   UNL     1      46.387   3.475   6.812  0.00  0.00    +0.000 A 
ATOM     13  C   UNL     1      47.291   2.640   6.149  0.00  0.00    +0.000 A 
ATOM     14  C   UNL     1      47.506   1.341   6.603  0.00  0.00    +0.000 A 
ATOM     15  C   UNL     1      46.816   0.874   7.718  0.00  0.00    +0.000 A 
ATOM     16  C   UNL     1      45.912   1.706   8.383  0.00  0.00    +0.000 A 
ENDBRANCH  10  11
ENDBRANCH   9  10
ENDBRANCH   8   9
ENDBRANCH   5   8
ENDBRANCH   1   2
BRANCH   1  19
ATOM     17  C   UNL     1      49.123   6.340  16.541  0.00  0.00    +0.000 C 
ATOM     18  O   UNL     1      50.230   5.882  16.264  0.00  0.00    +0.000 OA
ATOM     19  N   UNL     1      48.241   6.705  15.564  0.00  0.00    +0.000 N 
ATOM     20  H   UNL     1      47.322   7.047  15.809  0.00  0.00    +0.000 HD
BRANCH  17  28
ATOM     21  C   UNL     1      47.825   8.990  18.320  0.00  0.00    +0.000 A 
ATOM     22  N   UNL     1      47.298   9.833  19.230  0.00  0.00    +0.000 NA
ATOM     23  C   UNL     1      47.098   9.374  20.469  0.00  0.00    +0.000 A 
ATOM     24  N   UNL     1      47.365   8.154  20.922  0.00  0.00    +0.000 NA
ATOM     25  C   UNL     1      47.883   7.343  19.982  0.00  0.00    +0.000 A 
ATOM     26  S   UNL     1      48.291   5.748  20.389  0.00  0.00    +0.000 S 
ATOM     27  C   UNL     1      48.820   5.429  18.806  0.00  0.00    +0.000 A 
ATOM     28  C   UNL     1      48.694   6.510  17.942  0.00  0.00    +0.000 A 
ATOM     29  C   UNL     1      48.140   7.661  18.652  0.00  0.00    +0.000 A 
BRANCH  21  31
ATOM     30  C   UNL     1      49.004  10.468  16.942  0.00  0.00    +0.000 C 
ATOM     31  O   UNL     1      48.003   9.457  17.034  0.00  0.00    +0.000 OA
ENDBRANCH  21  31
ENDBRANCH  17  28
ENDBRANCH   1  19
TORSDOF 8
ENDMDL
MODEL 3
REMARK VINA RESULT:    -7.146      3.689      8.879
REMARK INTER + INTRA:         -11.534
REMARK INTER:                  -9.060
REMARK INTRA:                  -2.475
REMARK UNBOUND:                -1.046
REMARK  Name = 
REMARK  9 active torsions:
REMARK  status: ('A' for Active; 'I' for Inactive)
REMARK    1  A    between atoms: C_1  and  O_2
REMARK    2  A    between atoms: O_2  and  C_3
REMARK    3  A    between atoms: C_10  and  C_11
REMARK    4  A    between atoms: N_13  and  C_14
REMARK    5  A    between atoms: C_14  and  C_15
REMARK    6  A    between atoms: C_18  and  C_19
REMARK    7  A    between atoms: C_19  and  S_20
REMARK    8  A    between atoms: S_20  and  C_21
REMARK    9  A    between atoms: C_21  and  C_22
REMARK                            x       y       z     vdW  Elec       q    Type
REMARK                         _______ _______ _______ _____ _____    ______ ____
ROOT
ATOM      1  C   UNL     1      47.188   3.353  16.813  0.00  0.00    +0.000 C 
ENDROOT
BRANCH   1   2
ATOM      2  C   UNL     1      48.475   3.699  17.518  0.00  0.00    +0.000 A 
ATOM      3  C   UNL     1      49.682   3.108  17.125  0.00  0.00    +0.000 A 
ATOM      4  C   UNL     1      50.878   3.426  17.777  0.00  0.00    +0.000 A 
ATOM      5  C   UNL     1      50.903   4.352  18.832  0.00  0.00    +0.000 A 
ATOM      6  C   UNL     1      49.687   4.910  19.252  0.00  0.00    +0.000 A 
ATOM      7  C   UNL     1      48.486   4.584  18.605  0.00  0.00    +0.000 A 
BRANCH   5   8
ATOM      8  C   UNL     1      52.213   4.742  19.488  0.00  0.00    +0.000 C 
BRANCH   8   9
ATOM      9  S   UNL     1      53.443   5.268  18.240  0.00  0.00    +0.000 S 
BRANCH   9  10
ATOM     10  C   UNL     1      53.106   7.056  18.176  0.00  0.00    +0.000 C 
BRANCH  10  11
ATOM     11  C   UNL     1      51.763   7.324  17.532  0.00  0.00    +0.000 A 
ATOM     12  C   UNL     1      50.803   8.115  18.181  0.00  0.00    +0.000 A 
ATOM     13  C   UNL     1      49.549   8.331  17.603  0.00  0.00    +0.000 A 
ATOM     14  C   UNL     1      49.237   7.755  16.373  0.00  0.00    +0.000 A 
ATOM     15  C   UNL     1      50.177   6.961  15.722  0.00  0.00    +0.000 A 
ATOM     16  C   UNL     1      51.431   6.744  16.297  0.00  0.00    +0.000 A 
ENDBRANCH  10  11
ENDBRANCH   9  10
ENDBRANCH   8   9
ENDBRANCH   5   8
ENDBRANCH   1   2
BRANCH   1  19
ATOM     17  C   UNL     1      46.880   4.200  14.523  0.00  0.00    +0.000 C 
ATOM     18  O   UNL     1      47.265   3.137  14.040  0.00  0.00    +0.000 OA
ATOM     19  N   UNL     1      46.821   4.384  15.875  0.00  0.00    +0.000 N 
ATOM     20  H   UNL     1      46.535   5.276  16.256  0.00  0.00    +0.000 HD
BRANCH  17  28
ATOM     21  C   UNL     1      44.078   4.840  12.624  0.00  0.00    +0.000 A 
ATOM     22  N   UNL     1      43.110   5.346  11.833  0.00  0.00    +0.000 NA
ATOM     23  C   UNL     1      43.314   6.546  11.281  0.00  0.00    +0.000 A 
ATOM     24  N   UNL     1      44.385   7.318  11.421  0.00  0.00    +0.000 NA
ATOM     25  C   UNL     1      45.323   6.781  12.221  0.00  0.00    +0.000 A 
ATOM     26  S   UNL     1      46.764   7.630  12.506  0.00  0.00    +0.000 S 
ATOM     27  C   UNL     1      47.348   6.395  13.516  0.00  0.00    +0.000 A 
ATOM     28  C   UNL     1      46.472   5.326  13.665  0.00  0.00    +0.000 A 
ATOM     29  C   UNL     1      45.260   5.556  12.879  0.00  0.00    +0.000 A 
BRANCH  21  31
ATOM     30  C   UNL     1      43.538   2.590  12.277  0.00  0.00    +0.000 C 
ATOM     31  O   UNL     1      43.853   3.615  13.217  0.00  0.00    +0.000 OA
ENDBRANCH  21  31
ENDBRANCH  17  28
ENDBRANCH   1  19
TORSDOF 8
ENDMDL
MODEL 4
REMARK VINA RESULT:    -6.945      1.650      2.541
REMARK INTER + INTRA:         -11.240
REMARK INTER:                 -10.186
REMARK INTRA:                  -1.054
REMARK UNBOUND:                -1.046
REMARK  Name = 
REMARK  9 active torsions:
REMARK  status: ('A' for Active; 'I' for Inactive)
REMARK    1  A    between atoms: C_1  and  O_2
REMARK    2  A    between atoms: O_2  and  C_3
REMARK    3  A    between atoms: C_10  and  C_11
REMARK    4  A    between atoms: N_13  and  C_14
REMARK    5  A    between atoms: C_14  and  C_15
REMARK    6  A    between atoms: C_18  and  C_19
REMARK    7  A    between atoms: C_19  and  S_20
REMARK    8  A    between atoms: S_20  and  C_21
REMARK    9  A    between atoms: C_21  and  C_22
REMARK                            x       y       z     vdW  Elec       q    Type
REMARK                         _______ _______ _______ _____ _____    ______ ____
ROOT
ATOM      1  C   UNL     1      47.847   4.741  15.292  0.00  0.00    +0.000 C 
ENDROOT
BRANCH   1   2
ATOM      2  C   UNL     1      46.841   4.790  14.170  0.00  0.00    +0.000 A 
ATOM      3  C   UNL     1      46.372   3.607  13.586  0.00  0.00    +0.000 A 
ATOM      4  C   UNL     1      45.440   3.648  12.543  0.00  0.00    +0.000 A 
ATOM      5  C   UNL     1      44.942   4.870  12.065  0.00  0.00    +0.000 A 
ATOM      6  C   UNL     1      45.446   6.054  12.623  0.00  0.00    +0.000 A 
ATOM      7  C   UNL     1      46.388   6.014  13.661  0.00  0.00    +0.000 A 
BRANCH   5   8
ATOM      8  C   UNL     1      43.881   4.902  10.982  0.00  0.00    +0.000 C 
BRANCH   8   9
ATOM      9  S   UNL     1      44.077   3.498   9.827  0.00  0.00    +0.000 S 
BRANCH   9  10
ATOM     10  C   UNL     1      45.146   4.255   8.562  0.00  0.00    +0.000 C 
BRANCH  10  11
ATOM     11  C   UNL     1      45.935   3.194   7.826  0.00  0.00    +0.000 A 
ATOM     12  C   UNL     1      46.044   1.894   8.344  0.00  0.00    +0.000 A 
ATOM     13  C   UNL     1      46.804   0.925   7.683  0.00  0.00    +0.000 A 
ATOM     14  C   UNL     1      47.468   1.244   6.500  0.00  0.00    +0.000 A 
ATOM     15  C   UNL     1      47.376   2.531   5.979  0.00  0.00    +0.000 A 
ATOM     16  C   UNL     1      46.617   3.501   6.638  0.00  0.00    +0.000 A 
ENDBRANCH  10  11
ENDBRANCH   9  10
ENDBRANCH   8   9
ENDBRANCH   5   8
ENDBRANCH   1   2
BRANCH   1  19
ATOM     17  C   UNL     1      48.885   6.899  15.860  0.00  0.00    +0.000 C 
ATOM     18  O   UNL     1      49.828   6.685  15.101  0.00  0.00    +0.000 OA
ATOM     19  N   UNL     1      47.877   5.989  16.012  0.00  0.00    +0.000 N 
ATOM     20  H   UNL     1      47.127   6.165  16.667  0.00  0.00    +0.000 HD
BRANCH  17  28
ATOM     21  C   UNL     1      48.294   7.568  19.187  0.00  0.00    +0.000 A 
ATOM     22  N   UNL     1      48.112   8.104  20.411  0.00  0.00    +0.000 NA
ATOM     23  C   UNL     1      48.168   9.434  20.528  0.00  0.00    +0.000 A 
ATOM     24  N   UNL     1      48.385  10.314  19.556  0.00  0.00    +0.000 NA
ATOM     25  C   UNL     1      48.567   9.738  18.354  0.00  0.00    +0.000 A 
ATOM     26  S   UNL     1      48.850  10.714  16.996  0.00  0.00    +0.000 S 
ATOM     27  C   UNL     1      48.966   9.354  15.984  0.00  0.00    +0.000 A 
ATOM     28  C   UNL     1      48.802   8.144  16.646  0.00  0.00    +0.000 A 
ATOM     29  C   UNL     1      48.553   8.377  18.067  0.00  0.00    +0.000 A 
BRANCH  21  31
ATOM     30  C   UNL     1      48.029   5.536  20.317  0.00  0.00    +0.000 C 
ATOM     31  O   UNL     1      48.266   6.194  19.074  0.00  0.00    +0.000 OA
ENDBRANCH  21  31
ENDBRANCH  17  28
ENDBRANCH   1  19
TORSDOF 8
ENDMDL
MODEL 5
REMARK VINA RESULT:    -6.915      3.910      8.862
REMARK INTER + INTRA:         -11.195
REMARK INTER:                  -9.894
REMARK INTRA:                  -1.301
REMARK UNBOUND:                -1.046
REMARK  Name = 
REMARK  9 active torsions:
REMARK  status: ('A' for Active; 'I' for Inactive)
REMARK    1  A    between atoms: C_1  and  O_2
REMARK    2  A    between atoms: O_2  and  C_3
REMARK    3  A    between atoms: C_10  and  C_11
REMARK    4  A    between atoms: N_13  and  C_14
REMARK    5  A    between atoms: C_14  and  C_15
REMARK    6  A    between atoms: C_18  and  C_19
REMARK    7  A    between atoms: C_19  and  S_20
REMARK    8  A    between atoms: S_20  and  C_21
REMARK    9  A    between atoms: C_21  and  C_22
REMARK                            x       y       z     vdW  Elec       q    Type
REMARK                         _______ _______ _______ _____ _____    ______ ____
ROOT
ATOM      1  C   UNL     1      47.200   3.396  16.985  0.00  0.00    +0.000 C 
ENDROOT
BRANCH   1   2
ATOM      2  C   UNL     1      48.676   3.250  17.254  0.00  0.00    +0.000 A 
ATOM      3  C   UNL     1      49.353   2.082  16.882  0.00  0.00    +0.000 A 
ATOM      4  C   UNL     1      50.722   1.941  17.130  0.00  0.00    +0.000 A 
ATOM      5  C   UNL     1      51.455   2.967  17.747  0.00  0.00    +0.000 A 
ATOM      6  C   UNL     1      50.766   4.118  18.158  0.00  0.00    +0.000 A 
ATOM      7  C   UNL     1      49.392   4.255  17.918  0.00  0.00    +0.000 A 
BRANCH   5   8
ATOM      8  C   UNL     1      52.952   2.834  17.951  0.00  0.00    +0.000 C 
BRANCH   8   9
ATOM      9  S   UNL     1      53.676   4.399  18.558  0.00  0.00    +0.000 S 
BRANCH   9  10
ATOM     10  C   UNL     1      54.811   4.793  17.190  0.00  0.00    +0.000 C 
BRANCH  10  11
ATOM     11  C   UNL     1      54.214   5.853  16.289  0.00  0.00    +0.000 A 
ATOM     12  C   UNL     1      54.929   6.338  15.183  0.00  0.00    +0.000 A 
ATOM     13  C   UNL     1      54.393   7.344  14.374  0.00  0.00    +0.000 A 
ATOM     14  C   UNL     1      53.141   7.881  14.663  0.00  0.00    +0.000 A 
ATOM     15  C   UNL     1      52.424   7.416  15.762  0.00  0.00    +0.000 A 
ATOM     16  C   UNL     1      52.957   6.410  16.572  0.00  0.00    +0.000 A 
ENDBRANCH  10  11
ENDBRANCH   9  10
ENDBRANCH   8   9
ENDBRANCH   5   8
ENDBRANCH   1   2
BRANCH   1  19
ATOM     17  C   UNL     1      47.022   4.189  14.662  0.00  0.00    +0.000 C 
ATOM     18  O   UNL     1      47.309   3.077  14.224  0.00  0.00    +0.000 OA
ATOM     19  N   UNL     1      46.955   4.425  16.006  0.00  0.00    +0.000 N 
ATOM     20  H   UNL     1      46.752   5.354  16.350  0.00  0.00    +0.000 HD
BRANCH  17  28
ATOM     21  C   UNL     1      44.326   5.045  12.695  0.00  0.00    +0.000 A 
ATOM     22  N   UNL     1      43.426   5.619  11.871  0.00  0.00    +0.000 NA
ATOM     23  C   UNL     1      43.761   6.770  11.281  0.00  0.00    +0.000 A 
ATOM     24  N   UNL     1      44.905   7.433  11.411  0.00  0.00    +0.000 NA
ATOM     25  C   UNL     1      45.772   6.831  12.245  0.00  0.00    +0.000 A 
ATOM     26  S   UNL     1      47.289   7.536  12.523  0.00  0.00    +0.000 S 
ATOM     27  C   UNL     1      47.729   6.285  13.586  0.00  0.00    +0.000 A 
ATOM     28  C   UNL     1      46.744   5.319  13.758  0.00  0.00    +0.000 A 
ATOM     29  C   UNL     1      45.573   5.644  12.944  0.00  0.00    +0.000 A 
BRANCH  21  31
ATOM     30  C   UNL     1      43.614   2.834  12.417  0.00  0.00    +0.000 C 
ATOM     31  O   UNL     1      43.968   3.873  13.327  0.00  0.00    +0.000 OA
ENDBRANCH  21  31
ENDBRANCH  17  28
ENDBRANCH   1  19
TORSDOF 8
ENDMDL
MODEL 6
REMARK VINA RESULT:    -6.702      3.460      8.404
REMARK INTER + INTRA:         -10.882
REMARK INTER:                  -8.499
REMARK INTRA:                  -2.383
REMARK UNBOUND:                -1.046
REMARK  Name = 
REMARK  9 active torsions:
REMARK  status: ('A' for Active; 'I' for Inactive)
REMARK    1  A    between atoms: C_1  and  O_2
REMARK    2  A    between atoms: O_2  and  C_3
REMARK    3  A    between atoms: C_10  and  C_11
REMARK    4  A    between atoms: N_13  and  C_14
REMARK    5  A    between atoms: C_14  and  C_15
REMARK    6  A    between atoms: C_18  and  C_19
REMARK    7  A    between atoms: C_19  and  S_20
REMARK    8  A    between atoms: S_20  and  C_21
REMARK    9  A    between atoms: C_21  and  C_22
REMARK                            x       y       z     vdW  Elec       q    Type
REMARK                         _______ _______ _______ _____ _____    ______ ____
ROOT
ATOM      1  C   UNL     1      48.521   8.416  14.556  0.00  0.00    +0.000 C 
ENDROOT
BRANCH   1   2
ATOM      2  C   UNL     1      49.005   8.074  15.943  0.00  0.00    +0.000 A 
ATOM      3  C   UNL     1      50.117   7.243  16.122  0.00  0.00    +0.000 A 
ATOM      4  C   UNL     1      50.569   6.923  17.407  0.00  0.00    +0.000 A 
ATOM      5  C   UNL     1      49.929   7.434  18.547  0.00  0.00    +0.000 A 
ATOM      6  C   UNL     1      48.789   8.231  18.365  0.00  0.00    +0.000 A 
ATOM      7  C   UNL     1      48.330   8.544  17.078  0.00  0.00    +0.000 A 
BRANCH   5   8
ATOM      8  C   UNL     1      50.466   7.137  19.934  0.00  0.00    +0.000 C 
BRANCH   8   9
ATOM      9  S   UNL     1      50.621   5.335  20.208  0.00  0.00    +0.000 S 
BRANCH   9  10
ATOM     10  C   UNL     1      48.872   4.836  20.130  0.00  0.00    +0.000 C 
BRANCH  10  11
ATOM     11  C   UNL     1      48.542   4.258  18.770  0.00  0.00    +0.000 A 
ATOM     12  C   UNL     1      47.431   4.718  18.047  0.00  0.00    +0.000 A 
ATOM     13  C   UNL     1      47.105   4.158  16.809  0.00  0.00    +0.000 A 
ATOM     14  C   UNL     1      47.881   3.129  16.280  0.00  0.00    +0.000 A 
ATOM     15  C   UNL     1      48.982   2.657  16.990  0.00  0.00    +0.000 A 
ATOM     16  C   UNL     1      49.310   3.215  18.228  0.00  0.00    +0.000 A 
ENDBRANCH  10  11
ENDBRANCH   9  10
ENDBRANCH   8   9
ENDBRANCH   5   8
ENDBRANCH   1   2
BRANCH   1  19
ATOM     17  C   UNL     1      47.797   6.434  13.289  0.00  0.00    +0.000 C 
ATOM     18  O   UNL     1      48.936   6.244  12.867  0.00  0.00    +0.000 OA
ATOM     19  N   UNL     1      47.514   7.483  14.118  0.00  0.00    +0.000 N 
ATOM     20  H   UNL     1      46.565   7.645  14.428  0.00  0.00    +0.000 HD
BRANCH  17  28
ATOM     21  C   UNL     1      44.696   6.973  11.889  0.00  0.00    +0.000 A 
ATOM     22  N   UNL     1      43.464   6.895  11.346  0.00  0.00    +0.000 NA
ATOM     23  C   UNL     1      42.902   5.687  11.237  0.00  0.00    +0.000 A 
ATOM     24  N   UNL     1      43.425   4.525  11.612  0.00  0.00    +0.000 NA
ATOM     25  C   UNL     1      44.655   4.646  12.143  0.00  0.00    +0.000 A 
ATOM     26  S   UNL     1      45.471   3.260  12.683  0.00  0.00    +0.000 S 
ATOM     27  C   UNL     1      46.817   4.181  13.159  0.00  0.00    +0.000 A 
ATOM     28  C   UNL     1      46.684   5.543  12.915  0.00  0.00    +0.000 A 
ATOM     29  C   UNL     1      45.381   5.821  12.314  0.00  0.00    +0.000 A 
BRANCH  21  31
ATOM     30  C   UNL     1      44.518   9.243  11.350  0.00  0.00    +0.000 C 
ATOM     31  O   UNL     1      45.287   8.216  11.973  0.00  0.00    +0.000 OA
ENDBRANCH  21  31
ENDBRANCH  17  28
ENDBRANCH   1  19
TORSDOF 8
ENDMDL
MODEL 7
REMARK VINA RESULT:    -6.684      5.167      9.295
REMARK INTER + INTRA:         -10.856
REMARK INTER:                  -9.967
REMARK INTRA:                  -0.889
REMARK UNBOUND:                -1.046
REMARK  Name = 
REMARK  9 active torsions:
REMARK  status: ('A' for Active; 'I' for Inactive)
REMARK    1  A    between atoms: C_1  and  O_2
REMARK    2  A    between atoms: O_2  and  C_3
REMARK    3  A    between atoms: C_10  and  C_11
REMARK    4  A    between atoms: N_13  and  C_14
REMARK    5  A    between atoms: C_14  and  C_15
REMARK    6  A    between atoms: C_18  and  C_19
REMARK    7  A    between atoms: C_19  and  S_20
REMARK    8  A    between atoms: S_20  and  C_21
REMARK    9  A    between atoms: C_21  and  C_22
REMARK                            x       y       z     vdW  Elec       q    Type
REMARK                         _______ _______ _______ _____ _____    ______ ____
ROOT
ATOM      1  C   UNL     1      47.320   3.547  16.885  0.00  0.00    +0.000 C 
ENDROOT
BRANCH   1   2
ATOM      2  C   UNL     1      48.800   3.598  17.170  0.00  0.00    +0.000 A 
ATOM      3  C   UNL     1      49.568   2.428  17.142  0.00  0.00    +0.000 A 
ATOM      4  C   UNL     1      50.941   2.471  17.407  0.00  0.00    +0.000 A 
ATOM      5  C   UNL     1      51.585   3.684  17.695  0.00  0.00    +0.000 A 
ATOM      6  C   UNL     1      50.805   4.847  17.766  0.00  0.00    +0.000 A 
ATOM      7  C   UNL     1      49.428   4.804  17.510  0.00  0.00    +0.000 A 
BRANCH   5   8
ATOM      8  C   UNL     1      53.085   3.730  17.914  0.00  0.00    +0.000 C 
BRANCH   8   9
ATOM      9  S   UNL     1      53.707   2.133  18.551  0.00  0.00    +0.000 S 
BRANCH   9  10
ATOM     10  C   UNL     1      54.652   1.546  17.110  0.00  0.00    +0.000 C 
BRANCH  10  11
ATOM     11  C   UNL     1      54.796   0.039  17.144  0.00  0.00    +0.000 A 
ATOM     12  C   UNL     1      55.166  -0.671  15.992  0.00  0.00    +0.000 A 
ATOM     13  C   UNL     1      55.262  -2.065  16.015  0.00  0.00    +0.000 A 
ATOM     14  C   UNL     1      54.985  -2.767  17.186  0.00  0.00    +0.000 A 
ATOM     15  C   UNL     1      54.609  -2.076  18.335  0.00  0.00    +0.000 A 
ATOM     16  C   UNL     1      54.512  -0.682  18.314  0.00  0.00    +0.000 A 
ENDBRANCH  10  11
ENDBRANCH   9  10
ENDBRANCH   8   9
ENDBRANCH   5   8
ENDBRANCH   1   2
BRANCH   1  19
ATOM     17  C   UNL     1      46.984   4.323  14.574  0.00  0.00    +0.000 C 
ATOM     18  O   UNL     1      47.354   3.242  14.120  0.00  0.00    +0.000 OA
ATOM     19  N   UNL     1      46.946   4.551  15.920  0.00  0.00    +0.000 N 
ATOM     20  H   UNL     1      46.674   5.458  16.275  0.00  0.00    +0.000 HD
BRANCH  17  28
ATOM     21  C   UNL     1      44.216   4.866  12.596  0.00  0.00    +0.000 A 
ATOM     22  N   UNL     1      43.256   5.336  11.773  0.00  0.00    +0.000 NA
ATOM     23  C   UNL     1      43.447   6.530  11.204  0.00  0.00    +0.000 A 
ATOM     24  N   UNL     1      44.497   7.329  11.356  0.00  0.00    +0.000 NA
ATOM     25  C   UNL     1      45.427   6.827  12.189  0.00  0.00    +0.000 A 
ATOM     26  S   UNL     1      46.841   7.714  12.492  0.00  0.00    +0.000 S 
ATOM     27  C   UNL     1      47.427   6.510  13.539  0.00  0.00    +0.000 A 
ATOM     28  C   UNL     1      46.572   5.425  13.685  0.00  0.00    +0.000 A 
ATOM     29  C   UNL     1      45.375   5.613  12.866  0.00  0.00    +0.000 A 
BRANCH  21  31
ATOM     30  C   UNL     1      43.493   2.659  12.313  0.00  0.00    +0.000 C 
ATOM     31  O   UNL     1      44.004   3.647  13.205  0.00  0.00    +0.000 OA
ENDBRANCH  21  31
ENDBRANCH  17  28
ENDBRANCH   1  19
TORSDOF 8
ENDMDL
MODEL 8
REMARK VINA RESULT:    -6.381      3.020      8.594
REMARK INTER + INTRA:         -10.412
REMARK INTER:                  -8.852
REMARK INTRA:                  -1.559
REMARK UNBOUND:                -1.046
REMARK  Name = 
REMARK  9 active torsions:
REMARK  status: ('A' for Active; 'I' for Inactive)
REMARK    1  A    between atoms: C_1  and  O_2
REMARK    2  A    between atoms: O_2  and  C_3
REMARK    3  A    between atoms: C_10  and  C_11
REMARK    4  A    between atoms: N_13  and  C_14
REMARK    5  A    between atoms: C_14  and  C_15
REMARK    6  A    between atoms: C_18  and  C_19
REMARK    7  A    between atoms: C_19  and  S_20
REMARK    8  A    between atoms: S_20  and  C_21
REMARK    9  A    between atoms: C_21  and  C_22
REMARK                            x       y       z     vdW  Elec       q    Type
REMARK                         _______ _______ _______ _____ _____    ______ ____
ROOT
ATOM      1  C   UNL     1      47.855   7.768  12.109  0.00  0.00    +0.000 C 
ENDROOT
BRANCH   1   2
ATOM      2  C   UNL     1      48.409   7.964  13.498  0.00  0.00    +0.000 A 
ATOM      3  C   UNL     1      47.783   8.840  14.394  0.00  0.00    +0.000 A 
ATOM      4  C   UNL     1      48.294   9.026  15.683  0.00  0.00    +0.000 A 
ATOM      5  C   UNL     1      49.435   8.334  16.116  0.00  0.00    +0.000 A 
ATOM      6  C   UNL     1      50.084   7.490  15.203  0.00  0.00    +0.000 A 
ATOM      7  C   UNL     1      49.579   7.311  13.908  0.00  0.00    +0.000 A 
BRANCH   5   8
ATOM      8  C   UNL     1      49.942   8.490  17.537  0.00  0.00    +0.000 C 
BRANCH   8   9
ATOM      9  S   UNL     1      48.794   7.719  18.733  0.00  0.00    +0.000 S 
BRANCH   9  10
ATOM     10  C   UNL     1      49.663   6.154  19.067  0.00  0.00    +0.000 C 
BRANCH  10  11
ATOM     11  C   UNL     1      49.143   5.053  18.168  0.00  0.00    +0.000 A 
ATOM     12  C   UNL     1      47.934   5.207  17.472  0.00  0.00    +0.000 A 
ATOM     13  C   UNL     1      47.436   4.175  16.672  0.00  0.00    +0.000 A 
ATOM     14  C   UNL     1      48.135   2.976  16.562  0.00  0.00    +0.000 A 
ATOM     15  C   UNL     1      49.331   2.805  17.253  0.00  0.00    +0.000 A 
ATOM     16  C   UNL     1      49.832   3.835  18.053  0.00  0.00    +0.000 A 
ENDBRANCH  10  11
ENDBRANCH   9  10
ENDBRANCH   8   9
ENDBRANCH   5   8
ENDBRANCH   1   2
BRANCH   1  19
ATOM     17  C   UNL     1      45.742   6.594  11.649  0.00  0.00    +0.000 C 
ATOM     18  O   UNL     1      45.183   7.647  11.346  0.00  0.00    +0.000 OA
ATOM     19  N   UNL     1      47.051   6.574  12.040  0.00  0.00    +0.000 N 
ATOM     20  H   UNL     1      47.485   5.704  12.319  0.00  0.00    +0.000 HD
BRANCH  17  28
ATOM     21  C   UNL     1      45.347   4.170   9.233  0.00  0.00    +0.000 A 
ATOM     22  N   UNL     1      45.051   3.079   8.497  0.00  0.00    +0.000 NA
ATOM     23  C   UNL     1      44.292   2.132   9.056  0.00  0.00    +0.000 A 
ATOM     24  N   UNL     1      43.781   2.138  10.282  0.00  0.00    +0.000 NA
ATOM     25  C   UNL     1      44.104   3.238  10.985  0.00  0.00    +0.000 A 
ATOM     26  S   UNL     1      43.529   3.416  12.571  0.00  0.00    +0.000 S 
ATOM     27  C   UNL     1      44.310   4.915  12.737  0.00  0.00    +0.000 A 
ATOM     28  C   UNL     1      45.023   5.307  11.610  0.00  0.00    +0.000 A 
ATOM     29  C   UNL     1      44.890   4.304  10.556  0.00  0.00    +0.000 A 
BRANCH  21  31
ATOM     30  C   UNL     1      46.927   4.639   7.572  0.00  0.00    +0.000 C 
ATOM     31  O   UNL     1      46.155   5.132   8.665  0.00  0.00    +0.000 OA
ENDBRANCH  21  31
ENDBRANCH  17  28
ENDBRANCH   1  19
TORSDOF 8
ENDMDL
MODEL 9
REMARK VINA RESULT:    -6.169      3.478      9.066
REMARK INTER + INTRA:         -10.101
REMARK INTER:                  -7.991
REMARK INTRA:                  -2.110
REMARK UNBOUND:                -1.046
REMARK  Name = 
REMARK  9 active torsions:
REMARK  status: ('A' for Active; 'I' for Inactive)
REMARK    1  A    between atoms: C_1  and  O_2
REMARK    2  A    between atoms: O_2  and  C_3
REMARK    3  A    between atoms: C_10  and  C_11
REMARK    4  A    between atoms: N_13  and  C_14
REMARK    5  A    between atoms: C_14  and  C_15
REMARK    6  A    between atoms: C_18  and  C_19
REMARK    7  A    between atoms: C_19  and  S_20
REMARK    8  A    between atoms: S_20  and  C_21
REMARK    9  A    between atoms: C_21  and  C_22
REMARK                            x       y       z     vdW  Elec       q    Type
REMARK                         _______ _______ _______ _____ _____    ______ ____
ROOT
ATOM      1  C   UNL     1      47.652   3.942  16.322  0.00  0.00    +0.000 C 
ENDROOT
BRANCH   1   2
ATOM      2  C   UNL     1      48.062   4.808  17.486  0.00  0.00    +0.000 A 
ATOM      3  C   UNL     1      47.125   5.182  18.457  0.00  0.00    +0.000 A 
ATOM      4  C   UNL     1      47.500   5.987  19.538  0.00  0.00    +0.000 A 
ATOM      5  C   UNL     1      48.824   6.430  19.684  0.00  0.00    +0.000 A 
ATOM      6  C   UNL     1      49.750   6.090  18.687  0.00  0.00    +0.000 A 
ATOM      7  C   UNL     1      49.372   5.292  17.599  0.00  0.00    +0.000 A 
BRANCH   5   8
ATOM      8  C   UNL     1      49.237   7.245  20.895  0.00  0.00    +0.000 C 
BRANCH   8   9
ATOM      9  S   UNL     1      50.500   8.490  20.450  0.00  0.00    +0.000 S 
BRANCH   9  10
ATOM     10  C   UNL     1      49.436   9.869  19.920  0.00  0.00    +0.000 C 
BRANCH  10  11
ATOM     11  C   UNL     1      49.325   9.908  18.411  0.00  0.00    +0.000 A 
ATOM     12  C   UNL     1      50.334  10.498  17.634  0.00  0.00    +0.000 A 
ATOM     13  C   UNL     1      50.213  10.567  16.243  0.00  0.00    +0.000 A 
ATOM     14  C   UNL     1      49.083  10.053  15.612  0.00  0.00    +0.000 A 
ATOM     15  C   UNL     1      48.070   9.472  16.371  0.00  0.00    +0.000 A 
ATOM     16  C   UNL     1      48.188   9.401  17.761  0.00  0.00    +0.000 A 
ENDBRANCH  10  11
ENDBRANCH   9  10
ENDBRANCH   8   9
ENDBRANCH   5   8
ENDBRANCH   1   2
BRANCH   1  19
ATOM     17  C   UNL     1      46.615   4.254  14.112  0.00  0.00    +0.000 C 
ATOM     18  O   UNL     1      47.115   3.213  13.691  0.00  0.00    +0.000 OA
ATOM     19  N   UNL     1      46.838   4.681  15.390  0.00  0.00    +0.000 N 
ATOM     20  H   UNL     1      46.448   5.558  15.709  0.00  0.00    +0.000 HD
BRANCH  17  28
ATOM     21  C   UNL     1      46.770   7.544  13.100  0.00  0.00    +0.000 A 
ATOM     22  N   UNL     1      46.597   8.761  12.546  0.00  0.00    +0.000 NA
ATOM     23  C   UNL     1      45.533   8.948  11.759  0.00  0.00    +0.000 A 
ATOM     24  N   UNL     1      44.600   8.054  11.451  0.00  0.00    +0.000 NA
ATOM     25  C   UNL     1      44.812   6.852  12.018  0.00  0.00    +0.000 A 
ATOM     26  S   UNL     1      43.713   5.591  11.738  0.00  0.00    +0.000 S 
ATOM     27  C   UNL     1      44.614   4.526  12.708  0.00  0.00    +0.000 A 
ATOM     28  C   UNL     1      45.759   5.093  13.254  0.00  0.00    +0.000 A 
ATOM     29  C   UNL     1      45.871   6.493  12.846  0.00  0.00    +0.000 A 
BRANCH  21  31
ATOM     30  C   UNL     1      49.047   7.006  13.132  0.00  0.00    +0.000 C 
ATOM     31  O   UNL     1      47.885   7.345  13.886  0.00  0.00    +0.000 OA
ENDBRANCH  21  31
ENDBRANCH  17  28
ENDBRANCH   1  19
TORSDOF 8
ENDMDL
