MODEL 1
REMARK VINA RESULT:    -8.285      0.000      0.000
REMARK INTER + INTRA:         -13.450
REMARK INTER:                 -12.160
REMARK INTRA:                  -1.291
REMARK UNBOUND:                -1.291
REMARK  Name = 
REMARK  9 active torsions:
REMARK  status: ('A' for Active; 'I' for Inactive)
REMARK    1  A    between atoms: C_1  and  O_2
REMARK    2  A    between atoms: O_2  and  C_3
REMARK    3  A    between atoms: C_10  and  C_11
REMARK    4  A    between atoms: N_13  and  C_14
REMARK    5  A    between atoms: C_14  and  C_15
REMARK    6  A    between atoms: C_18  and  C_19
REMARK    7  A    between atoms: C_19  and  N_20
REMARK    8  A    between atoms: N_20  and  C_21
REMARK    9  A    between atoms: C_21  and  C_22
REMARK                            x       y       z     vdW  Elec       q    Type
REMARK                         _______ _______ _______ _____ _____    ______ ____
ROOT
ATOM      1  C   UNL     1      45.808   6.652  12.330  0.00  0.00    +0.000 A 
ATOM      2  C   UNL     1      45.853   6.391  10.965  0.00  0.00    +0.000 A 
ATOM      3  C   UNL     1      45.168   5.284  10.466  0.00  0.00    +0.000 A 
ATOM      4  C   UNL     1      44.449   4.456  11.332  0.00  0.00    +0.000 A 
ATOM      5  C   UNL     1      44.439   4.810  12.676  0.00  0.00    +0.000 A 
ATOM      6  N   UNL     1      45.085   5.888  13.189  0.00  0.00    +0.000 NA
ENDROOT
BRANCH   1   7
ATOM      7  C   UNL     1      46.505   7.874  12.890  0.00  0.00    +0.000 C 
BRANCH   7  10
ATOM      8  C   UNL     1      48.339   6.845  14.200  0.00  0.00    +0.000 C 
ATOM      9  O   UNL     1      48.916   6.462  13.184  0.00  0.00    +0.000 OA
ATOM     10  N   UNL     1      47.176   7.554  14.132  0.00  0.00    +0.000 N 
ATOM     11  H   UNL     1      46.647   7.742  14.974  0.00  0.00    +0.000 HD
BRANCH   8  19
ATOM     12  C   UNL     1      47.613   4.475  16.587  0.00  0.00    +0.000 A 
ATOM     13  N   UNL     1      47.553   3.663  17.661  0.00  0.00    +0.000 NA
ATOM     14  C   UNL     1      48.388   3.898  18.676  0.00  0.00    +0.000 A 
ATOM     15  N   UNL     1      49.291   4.872  18.759  0.00  0.00    +0.000 NA
ATOM     16  C   UNL     1      49.325   5.652  17.666  0.00  0.00    +0.000 A 
ATOM     17  S   UNL     1      50.413   6.953  17.598  0.00  0.00    +0.000 S 
ATOM     18  C   UNL     1      49.880   7.385  16.043  0.00  0.00    +0.000 A 
ATOM     19  C   UNL     1      48.880   6.561  15.541  0.00  0.00    +0.000 A 
ATOM     20  C   UNL     1      48.540   5.532  16.522  0.00  0.00    +0.000 A 
BRANCH  12  22
ATOM     21  C   UNL     1      47.361   3.374  14.540  0.00  0.00    +0.000 C 
ATOM     22  O   UNL     1      46.772   4.213  15.530  0.00  0.00    +0.000 OA
ENDBRANCH  12  22
ENDBRANCH   8  19
ENDBRANCH   7  10
ENDBRANCH   1   7
BRANCH   4  23
ATOM     23  C   UNL     1      43.725   3.232  10.829  0.00  0.00    +0.000 C 
BRANCH  23  24
ATOM     24  N   UNL     1      44.005   3.026   9.410  0.00  0.00    +0.000 NA
ATOM     25  H   UNL     1      44.449   3.862   9.033  0.00  0.00    +0.000 HD
BRANCH  24  26
ATOM     26  C   UNL     1      44.882   1.878   9.164  0.00  0.00    +0.000 C 
BRANCH  26  27
ATOM     27  C   UNL     1      45.878   2.211   8.070  0.00  0.00    +0.000 A 
ATOM     28  C   UNL     1      45.999   3.557   7.668  0.00  0.00    +0.000 A 
ATOM     29  C   UNL     1      46.926   3.945   6.699  0.00  0.00    +0.000 A 
ATOM     30  C   UNL     1      47.749   2.994   6.106  0.00  0.00    +0.000 A 
ATOM     31  C   UNL     1      47.630   1.654   6.471  0.00  0.00    +0.000 A 
ATOM     32  C   UNL     1      46.696   1.260   7.440  0.00  0.00    +0.000 A 
ATOM     33 CL   UNL     1      46.609  -0.426   7.809  0.00  0.00    +0.000 Cl
ENDBRANCH  26  27
ENDBRANCH  24  26
ENDBRANCH  23  24
ENDBRANCH   4  23
TORSDOF 8
ENDMDL
MODEL 2
REMARK VINA RESULT:    -8.092      2.121      3.285
REMARK INTER + INTRA:         -13.168
REMARK INTER:                 -11.894
REMARK INTRA:                  -1.274
REMARK UNBOUND:                -1.291
REMARK  Name = 
REMARK  9 active torsions:
REMARK  status: ('A' for Active; 'I' for Inactive)
REMARK    1  A    between atoms: C_1  and  O_2
REMARK    2  A    between atoms: O_2  and  C_3
REMARK    3  A    between atoms: C_10  and  C_11
REMARK    4  A    between atoms: N_13  and  C_14
REMARK    5  A    between atoms: C_14  and  C_15
REMARK    6  A    between atoms: C_18  and  C_19
REMARK    7  A    between atoms: C_19  and  N_20
REMARK    8  A    between atoms: N_20  and  C_21
REMARK    9  A    between atoms: C_21  and  C_22
REMARK                            x       y       z     vdW  Elec       q    Type
REMARK                         _______ _______ _______ _____ _____    ______ ____
ROOT
ATOM      1  C   UNL     1      46.799   3.930  13.728  0.00  0.00    +0.000 A 
ATOM      2  C   UNL     1      47.176   5.240  13.453  0.00  0.00    +0.000 A 
ATOM      3  C   UNL     1      46.593   5.899  12.372  0.00  0.00    +0.000 A 
ATOM      4  C   UNL     1      45.644   5.245  11.582  0.00  0.00    +0.000 A 
ATOM      5  C   UNL     1      45.310   3.946  11.948  0.00  0.00    +0.000 A 
ATOM      6  N   UNL     1      45.851   3.283  13.001  0.00  0.00    +0.000 NA
ENDROOT
BRANCH   1   7
ATOM      7  C   UNL     1      47.384   3.209  14.924  0.00  0.00    +0.000 C 
BRANCH   7  10
ATOM      8  C   UNL     1      47.379   4.081  17.242  0.00  0.00    +0.000 C 
ATOM      9  O   UNL     1      46.659   3.167  17.637  0.00  0.00    +0.000 OA
ATOM     10  N   UNL     1      47.788   4.152  15.943  0.00  0.00    +0.000 N 
ATOM     11  H   UNL     1      48.266   4.979  15.606  0.00  0.00    +0.000 HD
BRANCH   8  19
ATOM     12  C   UNL     1      50.478   5.384  17.971  0.00  0.00    +0.000 A 
ATOM     13  N   UNL     1      51.542   6.081  18.419  0.00  0.00    +0.000 NA
ATOM     14  C   UNL     1      51.332   7.040  19.324  0.00  0.00    +0.000 A 
ATOM     15  N   UNL     1      50.166   7.392  19.860  0.00  0.00    +0.000 NA
ATOM     16  C   UNL     1      49.132   6.681  19.381  0.00  0.00    +0.000 A 
ATOM     17  S   UNL     1      47.564   6.989  19.957  0.00  0.00    +0.000 S 
ATOM     18  C   UNL     1      46.903   5.792  18.947  0.00  0.00    +0.000 A 
ATOM     19  C   UNL     1      47.841   5.141  18.155  0.00  0.00    +0.000 A 
ATOM     20  C   UNL     1      49.178   5.667  18.427  0.00  0.00    +0.000 A 
BRANCH  12  22
ATOM     21  C   UNL     1      50.986   3.138  17.570  0.00  0.00    +0.000 C 
ATOM     22  O   UNL     1      50.694   4.418  17.016  0.00  0.00    +0.000 OA
ENDBRANCH  12  22
ENDBRANCH   8  19
ENDBRANCH   7  10
ENDBRANCH   1   7
BRANCH   4  23
ATOM     23  C   UNL     1      45.020   5.918  10.385  0.00  0.00    +0.000 C 
BRANCH  23  24
ATOM     24  N   UNL     1      45.657   5.454   9.155  0.00  0.00    +0.000 NA
ATOM     25  H   UNL     1      46.571   5.064   9.378  0.00  0.00    +0.000 HD
BRANCH  24  26
ATOM     26  C   UNL     1      44.869   4.433   8.458  0.00  0.00    +0.000 C 
BRANCH  26  27
ATOM     27  C   UNL     1      45.778   3.321   7.970  0.00  0.00    +0.000 A 
ATOM     28  C   UNL     1      46.843   3.662   7.112  0.00  0.00    +0.000 A 
ATOM     29  C   UNL     1      47.747   2.700   6.658  0.00  0.00    +0.000 A 
ATOM     30  C   UNL     1      47.603   1.373   7.049  0.00  0.00    +0.000 A 
ATOM     31  C   UNL     1      46.543   1.010   7.879  0.00  0.00    +0.000 A 
ATOM     32  C   UNL     1      45.629   1.973   8.331  0.00  0.00    +0.000 A 
ATOM     33 CL   UNL     1      44.338   1.421   9.337  0.00  0.00    +0.000 Cl
ENDBRANCH  26  27
ENDBRANCH  24  26
ENDBRANCH  23  24
ENDBRANCH   4  23
TORSDOF 8
ENDMDL
MODEL 3
REMARK VINA RESULT:    -7.934      1.341      1.560
REMARK INTER + INTRA:         -12.936
REMARK INTER:                 -11.670
REMARK INTRA:                  -1.266
REMARK UNBOUND:                -1.291
REMARK  Name = 
REMARK  9 active torsions:
REMARK  status: ('A' for Active; 'I' for Inactive)
REMARK    1  A    between atoms: C_1  and  O_2
REMARK    2  A    between atoms: O_2  and  C_3
REMARK    3  A    between atoms: C_10  and  C_11
REMARK    4  A    between atoms: N_13  and  C_14
REMARK    5  A    between atoms: C_14  and  C_15
REMARK    6  A    between atoms: C_18  and  C_19
REMARK    7  A    between atoms: C_19  and  N_20
REMARK    8  A    between atoms: N_20  and  C_21
REMARK    9  A    between atoms: C_21  and  C_22
REMARK                            x       y       z     vdW  Elec       q    Type
REMARK                         _______ _______ _______ _____ _____    ______ ____
ROOT
ATOM      1  C   UNL     1      46.731   6.109  12.563  0.00  0.00    +0.000 A 
ATOM      2  C   UNL     1      46.620   4.900  13.241  0.00  0.00    +0.000 A 
ATOM      3  C   UNL     1      45.723   3.942  12.774  0.00  0.00    +0.000 A 
ATOM      4  C   UNL     1      44.949   4.202  11.639  0.00  0.00    +0.000 A 
ATOM      5  C   UNL     1      45.145   5.426  11.012  0.00  0.00    +0.000 A 
ATOM      6  N   UNL     1      46.020   6.373  11.436  0.00  0.00    +0.000 NA
ENDROOT
BRANCH   1   7
ATOM      7  C   UNL     1      47.731   7.148  13.024  0.00  0.00    +0.000 C 
BRANCH   7  10
ATOM      8  C   UNL     1      48.838   6.992  15.235  0.00  0.00    +0.000 C 
ATOM      9  O   UNL     1      49.919   6.699  14.728  0.00  0.00    +0.000 OA
ATOM     10  N   UNL     1      47.739   7.244  14.468  0.00  0.00    +0.000 N 
ATOM     11  H   UNL     1      46.831   7.349  14.902  0.00  0.00    +0.000 HD
BRANCH   8  19
ATOM     12  C   UNL     1      48.851   4.670  17.774  0.00  0.00    +0.000 A 
ATOM     13  N   UNL     1      48.837   3.992  18.939  0.00  0.00    +0.000 NA
ATOM     14  C   UNL     1      48.656   4.683  20.067  0.00  0.00    +0.000 A 
ATOM     15  N   UNL     1      48.473   5.996  20.180  0.00  0.00    +0.000 NA
ATOM     16  C   UNL     1      48.501   6.634  18.998  0.00  0.00    +0.000 A 
ATOM     17  S   UNL     1      48.278   8.317  18.948  0.00  0.00    +0.000 S 
ATOM     18  C   UNL     1      48.446   8.340  17.257  0.00  0.00    +0.000 A 
ATOM     19  C   UNL     1      48.679   7.090  16.696  0.00  0.00    +0.000 A 
ATOM     20  C   UNL     1      48.698   6.068  17.741  0.00  0.00    +0.000 A 
BRANCH  12  22
ATOM     21  C   UNL     1      47.962   3.141  16.245  0.00  0.00    +0.000 C 
ATOM     22  O   UNL     1      49.068   3.960  16.615  0.00  0.00    +0.000 OA
ENDBRANCH  12  22
ENDBRANCH   8  19
ENDBRANCH   7  10
ENDBRANCH   1   7
BRANCH   4  23
ATOM     23  C   UNL     1      43.944   3.200  11.128  0.00  0.00    +0.000 C 
BRANCH  23  24
ATOM     24  N   UNL     1      43.991   3.135   9.669  0.00  0.00    +0.000 NA
ATOM     25  H   UNL     1      44.490   3.949   9.314  0.00  0.00    +0.000 HD
BRANCH  24  26
ATOM     26  C   UNL     1      44.656   1.926   9.176  0.00  0.00    +0.000 C 
BRANCH  26  27
ATOM     27  C   UNL     1      45.762   2.300   8.209  0.00  0.00    +0.000 A 
ATOM     28  C   UNL     1      45.929   3.662   7.884  0.00  0.00    +0.000 A 
ATOM     29  C   UNL     1      46.953   4.087   7.036  0.00  0.00    +0.000 A 
ATOM     30  C   UNL     1      47.831   3.158   6.490  0.00  0.00    +0.000 A 
ATOM     31  C   UNL     1      47.671   1.804   6.778  0.00  0.00    +0.000 A 
ATOM     32  C   UNL     1      46.639   1.373   7.625  0.00  0.00    +0.000 A 
ATOM     33 CL   UNL     1      46.509  -0.327   7.904  0.00  0.00    +0.000 Cl
ENDBRANCH  26  27
ENDBRANCH  24  26
ENDBRANCH  23  24
ENDBRANCH   4  23
TORSDOF 8
ENDMDL
MODEL 4
REMARK VINA RESULT:    -7.642      2.672      3.425
REMARK INTER + INTRA:         -12.507
REMARK INTER:                 -11.164
REMARK INTRA:                  -1.343
REMARK UNBOUND:                -1.291
REMARK  Name = 
REMARK  9 active torsions:
REMARK  status: ('A' for Active; 'I' for Inactive)
REMARK    1  A    between atoms: C_1  and  O_2
REMARK    2  A    between atoms: O_2  and  C_3
REMARK    3  A    between atoms: C_10  and  C_11
REMARK    4  A    between atoms: N_13  and  C_14
REMARK    5  A    between atoms: C_14  and  C_15
REMARK    6  A    between atoms: C_18  and  C_19
REMARK    7  A    between atoms: C_19  and  N_20
REMARK    8  A    between atoms: N_20  and  C_21
REMARK    9  A    between atoms: C_21  and  C_22
REMARK                            x       y       z     vdW  Elec       q    Type
REMARK                         _______ _______ _______ _____ _____    ______ ____
ROOT
ATOM      1  C   UNL     1      47.299   5.854  13.445  0.00  0.00    +0.000 A 
ATOM      2  C   UNL     1      46.341   6.470  12.647  0.00  0.00    +0.000 A 
ATOM      3  C   UNL     1      45.316   5.699  12.104  0.00  0.00    +0.000 A 
ATOM      4  C   UNL     1      45.259   4.327  12.363  0.00  0.00    +0.000 A 
ATOM      5  C   UNL     1      46.244   3.802  13.192  0.00  0.00    +0.000 A 
ATOM      6  N   UNL     1      47.247   4.530  13.746  0.00  0.00    +0.000 NA
ENDROOT
BRANCH   1   7
ATOM      7  C   UNL     1      48.397   6.678  14.084  0.00  0.00    +0.000 C 
BRANCH   7  10
ATOM      8  C   UNL     1      49.146   6.468  16.436  0.00  0.00    +0.000 C 
ATOM      9  O   UNL     1      50.272   6.109  16.097  0.00  0.00    +0.000 OA
ATOM     10  N   UNL     1      48.193   6.781  15.512  0.00  0.00    +0.000 N 
ATOM     11  H   UNL     1      47.237   6.943  15.805  0.00  0.00    +0.000 HD
BRANCH   8  19
ATOM     12  C   UNL     1      47.743   8.987  18.313  0.00  0.00    +0.000 A 
ATOM     13  N   UNL     1      47.194   9.775  19.258  0.00  0.00    +0.000 NA
ATOM     14  C   UNL     1      47.082   9.290  20.497  0.00  0.00    +0.000 A 
ATOM     15  N   UNL     1      47.468   8.090  20.923  0.00  0.00    +0.000 NA
ATOM     16  C   UNL     1      48.002   7.333  19.950  0.00  0.00    +0.000 A 
ATOM     17  S   UNL     1      48.558   5.770  20.312  0.00  0.00    +0.000 S 
ATOM     18  C   UNL     1      49.029   5.508  18.700  0.00  0.00    +0.000 A 
ATOM     19  C   UNL     1      48.775   6.584  17.857  0.00  0.00    +0.000 A 
ATOM     20  C   UNL     1      48.171   7.680  18.612  0.00  0.00    +0.000 A 
BRANCH  12  22
ATOM     21  C   UNL     1      48.951  10.334  16.833  0.00  0.00    +0.000 C 
ATOM     22  O   UNL     1      47.829   9.478  17.031  0.00  0.00    +0.000 OA
ENDBRANCH  12  22
ENDBRANCH   8  19
ENDBRANCH   7  10
ENDBRANCH   1   7
BRANCH   4  23
ATOM     23  C   UNL     1      44.182   3.458  11.762  0.00  0.00    +0.000 C 
BRANCH  23  24
ATOM     24  N   UNL     1      44.772   2.468  10.865  0.00  0.00    +0.000 NA
ATOM     25  H   UNL     1      44.475   1.537  11.153  0.00  0.00    +0.000 HD
BRANCH  24  26
ATOM     26  C   UNL     1      44.388   2.670   9.465  0.00  0.00    +0.000 C 
BRANCH  26  27
ATOM     27  C   UNL     1      45.570   2.392   8.558  0.00  0.00    +0.000 A 
ATOM     28  C   UNL     1      45.888   1.048   8.272  0.00  0.00    +0.000 A 
ATOM     29  C   UNL     1      46.934   0.716   7.410  0.00  0.00    +0.000 A 
ATOM     30  C   UNL     1      47.690   1.722   6.817  0.00  0.00    +0.000 A 
ATOM     31  C   UNL     1      47.408   3.056   7.103  0.00  0.00    +0.000 A 
ATOM     32  C   UNL     1      46.362   3.393   7.974  0.00  0.00    +0.000 A 
ATOM     33 CL   UNL     1      46.106   5.073   8.283  0.00  0.00    +0.000 Cl
ENDBRANCH  26  27
ENDBRANCH  24  26
ENDBRANCH  23  24
ENDBRANCH   4  23
TORSDOF 8
ENDMDL
MODEL 5
REMARK VINA RESULT:    -7.622      1.788      2.146
REMARK INTER + INTRA:         -12.478
REMARK INTER:                 -11.362
REMARK INTRA:                  -1.116
REMARK UNBOUND:                -1.291
REMARK  Name = 
REMARK  9 active torsions:
REMARK  status: ('A' for Active; 'I' for Inactive)
REMARK    1  A    between atoms: C_1  and  O_2
REMARK    2  A    between atoms: O_2  and  C_3
REMARK    3  A    between atoms: C_10  and  C_11
REMARK    4  A    between atoms: N_13  and  C_14
REMARK    5  A    between atoms: C_14  and  C_15
REMARK    6  A    between atoms: C_18  and  C_19
REMARK    7  A    between atoms: C_19  and  N_20
REMARK    8  A    between atoms: N_20  and  C_21
REMARK    9  A    between atoms: C_21  and  C_22
REMARK                            x       y       z     vdW  Elec       q    Type
REMARK                         _______ _______ _______ _____ _____    ______ ____
ROOT
ATOM      1  C   UNL     1      47.316   6.263  13.005  0.00  0.00    +0.000 A 
ATOM      2  C   UNL     1      46.525   6.666  11.935  0.00  0.00    +0.000 A 
ATOM      3  C   UNL     1      45.523   5.814  11.476  0.00  0.00    +0.000 A 
ATOM      4  C   UNL     1      45.322   4.574  12.089  0.00  0.00    +0.000 A 
ATOM      5  C   UNL     1      46.143   4.267  13.168  0.00  0.00    +0.000 A 
ATOM      6  N   UNL     1      47.118   5.081  13.645  0.00  0.00    +0.000 NA
ENDROOT
BRANCH   1   7
ATOM      7  C   UNL     1      48.382   7.189  13.552  0.00  0.00    +0.000 C 
BRANCH   7  10
ATOM      8  C   UNL     1      49.521   7.191  15.751  0.00  0.00    +0.000 C 
ATOM      9  O   UNL     1      50.632   7.272  15.231  0.00  0.00    +0.000 OA
ATOM     10  N   UNL     1      48.384   7.168  14.998  0.00  0.00    +0.000 N 
ATOM     11  H   UNL     1      47.492   6.966  15.432  0.00  0.00    +0.000 HD
BRANCH   8  19
ATOM     12  C   UNL     1      48.836   4.621  17.933  0.00  0.00    +0.000 A 
ATOM     13  N   UNL     1      48.611   3.815  18.991  0.00  0.00    +0.000 NA
ATOM     14  C   UNL     1      48.603   4.362  20.209  0.00  0.00    +0.000 A 
ATOM     15  N   UNL     1      48.788   5.645  20.511  0.00  0.00    +0.000 NA
ATOM     16  C   UNL     1      49.017   6.411  19.431  0.00  0.00    +0.000 A 
ATOM     17  S   UNL     1      49.269   8.079  19.625  0.00  0.00    +0.000 S 
ATOM     18  C   UNL     1      49.473   8.295  17.952  0.00  0.00    +0.000 A 
ATOM     19  C   UNL     1      49.364   7.121  17.215  0.00  0.00    +0.000 A 
ATOM     20  C   UNL     1      49.077   5.997  18.103  0.00  0.00    +0.000 A 
BRANCH  12  22
ATOM     21  C   UNL     1      48.612   2.650  16.697  0.00  0.00    +0.000 C 
ATOM     22  O   UNL     1      48.874   4.050  16.682  0.00  0.00    +0.000 OA
ENDBRANCH  12  22
ENDBRANCH   8  19
ENDBRANCH   7  10
ENDBRANCH   1   7
BRANCH   4  23
ATOM     23  C   UNL     1      44.269   3.615  11.594  0.00  0.00    +0.000 C 
BRANCH  23  24
ATOM     24  N   UNL     1      44.892   2.503  10.881  0.00  0.00    +0.000 NA
ATOM     25  H   UNL     1      44.703   1.636  11.383  0.00  0.00    +0.000 HD
BRANCH  24  26
ATOM     26  C   UNL     1      44.403   2.364   9.506  0.00  0.00    +0.000 C 
BRANCH  26  27
ATOM     27  C   UNL     1      45.572   2.216   8.552  0.00  0.00    +0.000 A 
ATOM     28  C   UNL     1      45.998   0.914   8.220  0.00  0.00    +0.000 A 
ATOM     29  C   UNL     1      47.038   0.699   7.314  0.00  0.00    +0.000 A 
ATOM     30  C   UNL     1      47.678   1.783   6.723  0.00  0.00    +0.000 A 
ATOM     31  C   UNL     1      47.288   3.080   7.054  0.00  0.00    +0.000 A 
ATOM     32  C   UNL     1      46.248   3.299   7.969  0.00  0.00    +0.000 A 
ATOM     33 CL   UNL     1      45.853   4.941   8.331  0.00  0.00    +0.000 Cl
ENDBRANCH  26  27
ENDBRANCH  24  26
ENDBRANCH  23  24
ENDBRANCH   4  23
TORSDOF 8
ENDMDL
MODEL 6
REMARK VINA RESULT:    -7.551      2.360      3.516
REMARK INTER + INTRA:         -12.374
REMARK INTER:                 -11.242
REMARK INTRA:                  -1.132
REMARK UNBOUND:                -1.291
REMARK  Name = 
REMARK  9 active torsions:
REMARK  status: ('A' for Active; 'I' for Inactive)
REMARK    1  A    between atoms: C_1  and  O_2
REMARK    2  A    between atoms: O_2  and  C_3
REMARK    3  A    between atoms: C_10  and  C_11
REMARK    4  A    between atoms: N_13  and  C_14
REMARK    5  A    between atoms: C_14  and  C_15
REMARK    6  A    between atoms: C_18  and  C_19
REMARK    7  A    between atoms: C_19  and  N_20
REMARK    8  A    between atoms: N_20  and  C_21
REMARK    9  A    between atoms: C_21  and  C_22
REMARK                            x       y       z     vdW  Elec       q    Type
REMARK                         _______ _______ _______ _____ _____    ______ ____
ROOT
ATOM      1  C   UNL     1      46.755   4.127  14.124  0.00  0.00    +0.000 A 
ATOM      2  C   UNL     1      46.594   5.477  13.828  0.00  0.00    +0.000 A 
ATOM      3  C   UNL     1      45.850   5.840  12.707  0.00  0.00    +0.000 A 
ATOM      4  C   UNL     1      45.277   4.855  11.899  0.00  0.00    +0.000 A 
ATOM      5  C   UNL     1      45.468   3.534  12.286  0.00  0.00    +0.000 A 
ATOM      6  N   UNL     1      46.176   3.150  13.378  0.00  0.00    +0.000 NA
ENDROOT
BRANCH   1   7
ATOM      7  C   UNL     1      47.520   3.708  15.361  0.00  0.00    +0.000 C 
BRANCH   7  10
ATOM      8  C   UNL     1      48.487   5.190  17.095  0.00  0.00    +0.000 C 
ATOM      9  O   UNL     1      49.630   4.802  16.859  0.00  0.00    +0.000 OA
ATOM     10  N   UNL     1      47.418   4.718  16.392  0.00  0.00    +0.000 N 
ATOM     11  H   UNL     1      46.477   4.945  16.687  0.00  0.00    +0.000 HD
BRANCH   8  19
ATOM     12  C   UNL     1      48.224   8.620  17.078  0.00  0.00    +0.000 A 
ATOM     13  N   UNL     1      48.047   9.929  17.349  0.00  0.00    +0.000 NA
ATOM     14  C   UNL     1      47.778  10.281  18.609  0.00  0.00    +0.000 A 
ATOM     15  N   UNL     1      47.670   9.472  19.659  0.00  0.00    +0.000 NA
ATOM     16  C   UNL     1      47.844   8.177  19.346  0.00  0.00    +0.000 A 
ATOM     17  S   UNL     1      47.748   6.999  20.564  0.00  0.00    +0.000 S 
ATOM     18  C   UNL     1      48.047   5.750  19.452  0.00  0.00    +0.000 A 
ATOM     19  C   UNL     1      48.219   6.189  18.144  0.00  0.00    +0.000 A 
ATOM     20  C   UNL     1      48.110   7.645  18.087  0.00  0.00    +0.000 A 
BRANCH  12  22
ATOM     21  C   UNL     1      49.676   8.815  15.257  0.00  0.00    +0.000 C 
ATOM     22  O   UNL     1      48.471   8.257  15.775  0.00  0.00    +0.000 OA
ENDBRANCH  12  22
ENDBRANCH   8  19
ENDBRANCH   7  10
ENDBRANCH   1   7
BRANCH   4  23
ATOM     23  C   UNL     1      44.495   5.213  10.659  0.00  0.00    +0.000 C 
BRANCH  23  24
ATOM     24  N   UNL     1      45.352   5.133   9.479  0.00  0.00    +0.000 NA
ATOM     25  H   UNL     1      46.237   4.701   9.738  0.00  0.00    +0.000 HD
BRANCH  24  26
ATOM     26  C   UNL     1      44.750   4.355   8.393  0.00  0.00    +0.000 C 
BRANCH  26  27
ATOM     27  C   UNL     1      45.712   3.277   7.933  0.00  0.00    +0.000 A 
ATOM     28  C   UNL     1      46.772   3.651   7.081  0.00  0.00    +0.000 A 
ATOM     29  C   UNL     1      47.723   2.723   6.652  0.00  0.00    +0.000 A 
ATOM     30  C   UNL     1      47.632   1.398   7.064  0.00  0.00    +0.000 A 
ATOM     31  C   UNL     1      46.580   1.001   7.888  0.00  0.00    +0.000 A 
ATOM     32  C   UNL     1      45.620   1.929   8.314  0.00  0.00    +0.000 A 
ATOM     33 CL   UNL     1      44.343   1.337   9.315  0.00  0.00    +0.000 Cl
ENDBRANCH  26  27
ENDBRANCH  24  26
ENDBRANCH  23  24
ENDBRANCH   4  23
TORSDOF 8
ENDMDL
MODEL 7
REMARK VINA RESULT:    -7.518      2.374      2.984
REMARK INTER + INTRA:         -12.324
REMARK INTER:                 -11.096
REMARK INTRA:                  -1.228
REMARK UNBOUND:                -1.291
REMARK  Name = 
REMARK  9 active torsions:
REMARK  status: ('A' for Active; 'I' for Inactive)
REMARK    1  A    between atoms: C_1  and  O_2
REMARK    2  A    between atoms: O_2  and  C_3
REMARK    3  A    between atoms: C_10  and  C_11
REMARK    4  A    between atoms: N_13  and  C_14
REMARK    5  A    between atoms: C_14  and  C_15
REMARK    6  A    between atoms: C_18  and  C_19
REMARK    7  A    between atoms: C_19  and  N_20
REMARK    8  A    between atoms: N_20  and  C_21
REMARK    9  A    between atoms: C_21  and  C_22
REMARK                            x       y       z     vdW  Elec       q    Type
REMARK                         _______ _______ _______ _____ _____    ______ ____
ROOT
ATOM      1  C   UNL     1      47.531   6.419  14.186  0.00  0.00    +0.000 A 
ATOM      2  C   UNL     1      47.130   5.098  14.353  0.00  0.00    +0.000 A 
ATOM      3  C   UNL     1      46.389   4.484  13.345  0.00  0.00    +0.000 A 
ATOM      4  C   UNL     1      46.059   5.194  12.187  0.00  0.00    +0.000 A 
ATOM      5  C   UNL     1      46.524   6.501  12.097  0.00  0.00    +0.000 A 
ATOM      6  N   UNL     1      47.258   7.121  13.055  0.00  0.00    +0.000 NA
ENDROOT
BRANCH   1   7
ATOM      7  C   UNL     1      48.375   7.094  15.246  0.00  0.00    +0.000 C 
BRANCH   7  10
ATOM      8  C   UNL     1      49.749   6.162  17.085  0.00  0.00    +0.000 C 
ATOM      9  O   UNL     1      49.249   6.923  17.911  0.00  0.00    +0.000 OA
ATOM     10  N   UNL     1      49.358   6.175  15.778  0.00  0.00    +0.000 N 
ATOM     11  H   UNL     1      49.872   5.641  15.090  0.00  0.00    +0.000 HD
BRANCH   8  19
ATOM     12  C   UNL     1      49.951   2.731  16.954  0.00  0.00    +0.000 A 
ATOM     13  N   UNL     1      50.300   1.429  16.994  0.00  0.00    +0.000 NA
ATOM     14  C   UNL     1      51.506   1.115  17.474  0.00  0.00    +0.000 A 
ATOM     15  N   UNL     1      52.425   1.957  17.940  0.00  0.00    +0.000 NA
ATOM     16  C   UNL     1      52.042   3.242  17.875  0.00  0.00    +0.000 A 
ATOM     17  S   UNL     1      53.087   4.458  18.433  0.00  0.00    +0.000 S 
ATOM     18  C   UNL     1      51.968   5.675  18.033  0.00  0.00    +0.000 A 
ATOM     19  C   UNL     1      50.792   5.195  17.468  0.00  0.00    +0.000 A 
ATOM     20  C   UNL     1      50.834   3.736  17.387  0.00  0.00    +0.000 A 
BRANCH  12  22
ATOM     21  C   UNL     1      47.679   3.047  17.404  0.00  0.00    +0.000 C 
ATOM     22  O   UNL     1      48.720   3.054  16.431  0.00  0.00    +0.000 OA
ENDBRANCH  12  22
ENDBRANCH   8  19
ENDBRANCH   7  10
ENDBRANCH   1   7
BRANCH   4  23
ATOM     23  C   UNL     1      45.228   4.570  11.093  0.00  0.00    +0.000 C 
BRANCH  23  24
ATOM     24  N   UNL     1      45.576   5.151   9.799  0.00  0.00    +0.000 NA
ATOM     25  H   UNL     1      46.583   5.079   9.660  0.00  0.00    +0.000 HD
BRANCH  24  26
ATOM     26  C   UNL     1      44.900   4.491   8.679  0.00  0.00    +0.000 C 
BRANCH  26  27
ATOM     27  C   UNL     1      45.782   3.395   8.115  0.00  0.00    +0.000 A 
ATOM     28  C   UNL     1      46.840   3.766   7.260  0.00  0.00    +0.000 A 
ATOM     29  C   UNL     1      47.720   2.817   6.738  0.00  0.00    +0.000 A 
ATOM     30  C   UNL     1      47.559   1.473   7.057  0.00  0.00    +0.000 A 
ATOM     31  C   UNL     1      46.507   1.080   7.881  0.00  0.00    +0.000 A 
ATOM     32  C   UNL     1      45.616   2.030   8.402  0.00  0.00    +0.000 A 
ATOM     33 CL   UNL     1      44.332   1.443   9.396  0.00  0.00    +0.000 Cl
ENDBRANCH  26  27
ENDBRANCH  24  26
ENDBRANCH  23  24
ENDBRANCH   4  23
TORSDOF 8
ENDMDL
MODEL 8
REMARK VINA RESULT:    -7.148      3.866      8.017
REMARK INTER + INTRA:         -11.781
REMARK INTER:                 -10.127
REMARK INTRA:                  -1.655
REMARK UNBOUND:                -1.291
REMARK  Name = 
REMARK  9 active torsions:
REMARK  status: ('A' for Active; 'I' for Inactive)
REMARK    1  A    between atoms: C_1  and  O_2
REMARK    2  A    between atoms: O_2  and  C_3
REMARK    3  A    between atoms: C_10  and  C_11
REMARK    4  A    between atoms: N_13  and  C_14
REMARK    5  A    between atoms: C_14  and  C_15
REMARK    6  A    between atoms: C_18  and  C_19
REMARK    7  A    between atoms: C_19  and  N_20
REMARK    8  A    between atoms: N_20  and  C_21
REMARK    9  A    between atoms: C_21  and  C_22
REMARK                            x       y       z     vdW  Elec       q    Type
REMARK                         _______ _______ _______ _____ _____    ______ ____
ROOT
ATOM      1  C   UNL     1      48.579   7.789  13.560  0.00  0.00    +0.000 A 
ATOM      2  C   UNL     1      48.165   8.853  14.354  0.00  0.00    +0.000 A 
ATOM      3  C   UNL     1      48.221   8.724  15.740  0.00  0.00    +0.000 A 
ATOM      4  C   UNL     1      48.687   7.539  16.315  0.00  0.00    +0.000 A 
ATOM      5  C   UNL     1      49.103   6.539  15.444  0.00  0.00    +0.000 A 
ATOM      6  N   UNL     1      49.073   6.640  14.091  0.00  0.00    +0.000 NA
ENDROOT
BRANCH   1   7
ATOM      7  C   UNL     1      48.571   7.921  12.052  0.00  0.00    +0.000 C 
BRANCH   7  10
ATOM      8  C   UNL     1      46.414   6.909  11.374  0.00  0.00    +0.000 C 
ATOM      9  O   UNL     1      45.775   7.877  11.784  0.00  0.00    +0.000 OA
ATOM     10  N   UNL     1      47.775   6.873  11.452  0.00  0.00    +0.000 N 
ATOM     11  H   UNL     1      48.272   6.018  11.235  0.00  0.00    +0.000 HD
BRANCH   8  19
ATOM     12  C   UNL     1      44.552   4.325  12.674  0.00  0.00    +0.000 A 
ATOM     13  N   UNL     1      43.784   3.242  12.906  0.00  0.00    +0.000 NA
ATOM     14  C   UNL     1      43.423   2.490  11.863  0.00  0.00    +0.000 A 
ATOM     15  N   UNL     1      43.749   2.684  10.587  0.00  0.00    +0.000 NA
ATOM     16  C   UNL     1      44.506   3.777  10.398  0.00  0.00    +0.000 A 
ATOM     17  S   UNL     1      45.023   4.178   8.832  0.00  0.00    +0.000 S 
ATOM     18  C   UNL     1      45.842   5.555   9.399  0.00  0.00    +0.000 A 
ATOM     19  C   UNL     1      45.739   5.746  10.772  0.00  0.00    +0.000 A 
ATOM     20  C   UNL     1      44.949   4.671  11.369  0.00  0.00    +0.000 A 
BRANCH  12  22
ATOM     21  C   UNL     1      46.156   4.767  14.316  0.00  0.00    +0.000 C 
ATOM     22  O   UNL     1      44.897   5.115  13.746  0.00  0.00    +0.000 OA
ENDBRANCH  12  22
ENDBRANCH   8  19
ENDBRANCH   7  10
ENDBRANCH   1   7
BRANCH   4  23
ATOM     23  C   UNL     1      48.727   7.355  17.812  0.00  0.00    +0.000 C 
BRANCH  23  24
ATOM     24  N   UNL     1      47.587   6.556  18.255  0.00  0.00    +0.000 NA
ATOM     25  H   UNL     1      47.113   6.171  17.439  0.00  0.00    +0.000 HD
BRANCH  24  26
ATOM     26  C   UNL     1      47.975   5.453  19.137  0.00  0.00    +0.000 C 
BRANCH  26  27
ATOM     27  C   UNL     1      48.513   4.297  18.316  0.00  0.00    +0.000 A 
ATOM     28  C   UNL     1      47.603   3.555  17.536  0.00  0.00    +0.000 A 
ATOM     29  C   UNL     1      48.032   2.506  16.720  0.00  0.00    +0.000 A 
ATOM     30  C   UNL     1      49.381   2.174  16.670  0.00  0.00    +0.000 A 
ATOM     31  C   UNL     1      50.295   2.879  17.450  0.00  0.00    +0.000 A 
ATOM     32  C   UNL     1      49.867   3.929  18.276  0.00  0.00    +0.000 A 
ATOM     33 CL   UNL     1      51.072   4.728  19.221  0.00  0.00    +0.000 Cl
ENDBRANCH  26  27
ENDBRANCH  24  26
ENDBRANCH  23  24
ENDBRANCH   4  23
TORSDOF 8
ENDMDL
MODEL 9
REMARK VINA RESULT:    -7.112      3.313      5.654
REMARK INTER + INTRA:         -11.729
REMARK INTER:                 -10.327
REMARK INTRA:                  -1.402
REMARK UNBOUND:                -1.291
REMARK  Name = 
REMARK  9 active torsions:
REMARK  status: ('A' for Active; 'I' for Inactive)
REMARK    1  A    between atoms: C_1  and  O_2
REMARK    2  A    between atoms: O_2  and  C_3
REMARK    3  A    between atoms: C_10  and  C_11
REMARK    4  A    between atoms: N_13  and  C_14
REMARK    5  A    between atoms: C_14  and  C_15
REMARK    6  A    between atoms: C_18  and  C_19
REMARK    7  A    between atoms: C_19  and  N_20
REMARK    8  A    between atoms: N_20  and  C_21
REMARK    9  A    between atoms: C_21  and  C_22
REMARK                            x       y       z     vdW  Elec       q    Type
REMARK                         _______ _______ _______ _____ _____    ______ ____
ROOT
ATOM      1  C   UNL     1      47.797   4.194  16.135  0.00  0.00    +0.000 A 
ATOM      2  C   UNL     1      48.263   5.505  16.136  0.00  0.00    +0.000 A 
ATOM      3  C   UNL     1      48.097   6.282  14.992  0.00  0.00    +0.000 A 
ATOM      4  C   UNL     1      47.469   5.745  13.865  0.00  0.00    +0.000 A 
ATOM      5  C   UNL     1      47.012   4.436  13.964  0.00  0.00    +0.000 A 
ATOM      6  N   UNL     1      47.148   3.659  15.068  0.00  0.00    +0.000 NA
ENDROOT
BRANCH   1   7
ATOM      7  C   UNL     1      47.925   3.344  17.381  0.00  0.00    +0.000 C 
BRANCH   7  10
ATOM      8  C   UNL     1      50.147   2.295  17.065  0.00  0.00    +0.000 C 
ATOM      9  O   UNL     1      49.761   1.655  16.089  0.00  0.00    +0.000 OA
ATOM     10  N   UNL     1      49.316   3.151  17.727  0.00  0.00    +0.000 N 
ATOM     11  H   UNL     1      49.609   3.564  18.603  0.00  0.00    +0.000 HD
BRANCH   8  19
ATOM     12  C   UNL     1      52.468   4.582  18.169  0.00  0.00    +0.000 A 
ATOM     13  N   UNL     1      53.535   5.244  18.661  0.00  0.00    +0.000 NA
ATOM     14  C   UNL     1      54.615   4.535  18.997  0.00  0.00    +0.000 A 
ATOM     15  N   UNL     1      54.772   3.218  18.891  0.00  0.00    +0.000 NA
ATOM     16  C   UNL     1      53.685   2.596  18.405  0.00  0.00    +0.000 A 
ATOM     17  S   UNL     1      53.706   0.912  18.195  0.00  0.00    +0.000 S 
ATOM     18  C   UNL     1      52.111   0.914  17.607  0.00  0.00    +0.000 A 
ATOM     19  C   UNL     1      51.529   2.175  17.562  0.00  0.00    +0.000 A 
ATOM     20  C   UNL     1      52.479   3.183  18.028  0.00  0.00    +0.000 A 
BRANCH  12  22
ATOM     21  C   UNL     1      50.927   6.181  18.901  0.00  0.00    +0.000 C 
ATOM     22  O   UNL     1      51.345   5.311  17.852  0.00  0.00    +0.000 OA
ENDBRANCH  12  22
ENDBRANCH   8  19
ENDBRANCH   7  10
ENDBRANCH   1   7
BRANCH   4  23
ATOM     23  C   UNL     1      47.304   6.549  12.599  0.00  0.00    +0.000 C 
BRANCH  23  24
ATOM     24  N   UNL     1      46.020   7.246  12.605  0.00  0.00    +0.000 NA
ATOM     25  H   UNL     1      46.185   8.249  12.675  0.00  0.00    +0.000 HD
BRANCH  24  26
ATOM     26  C   UNL     1      45.226   6.985  11.402  0.00  0.00    +0.000 C 
BRANCH  26  27
ATOM     27  C   UNL     1      44.607   5.603  11.480  0.00  0.00    +0.000 A 
ATOM     28  C   UNL     1      43.860   5.272  12.629  0.00  0.00    +0.000 A 
ATOM     29  C   UNL     1      43.224   4.036  12.752  0.00  0.00    +0.000 A 
ATOM     30  C   UNL     1      43.324   3.100  11.728  0.00  0.00    +0.000 A 
ATOM     31  C   UNL     1      44.076   3.397  10.592  0.00  0.00    +0.000 A 
ATOM     32  C   UNL     1      44.722   4.635  10.469  0.00  0.00    +0.000 A 
ATOM     33 CL   UNL     1      45.647   4.900   9.035  0.00  0.00    +0.000 Cl
ENDBRANCH  26  27
ENDBRANCH  24  26
ENDBRANCH  23  24
ENDBRANCH   4  23
TORSDOF 8
ENDMDL
