MODEL 1
REMARK VINA RESULT:    -8.307      0.000      0.000
REMARK INTER + INTRA:         -13.764
REMARK INTER:                 -12.192
REMARK INTRA:                  -1.572
REMARK UNBOUND:                -1.572
REMARK  Name = 
REMARK  9 active torsions:
REMARK  status: ('A' for Active; 'I' for Inactive)
REMARK    1  A    between atoms: C_1  and  C_2
REMARK    2  A    between atoms: C_2  and  C_3
REMARK    3  A    between atoms: C_3  and  N_4
REMARK    4  A    between atoms: C_3  and  C_17
REMARK    5  A    between atoms: C_5  and  C_7
REMARK    6  A    between atoms: C_20  and  C_21
REMARK    7  A    between atoms: C_21  and  N_22
REMARK    8  A    between atoms: N_22  and  C_23
REMARK    9  A    between atoms: C_23  and  C_24
REMARK                            x       y       z     vdW  Elec       q    Type
REMARK                         _______ _______ _______ _____ _____    ______ ____
ROOT
ATOM      1  C   UNL     1      48.120   6.698  13.227  0.00  0.00    +0.000 C 
ENDROOT
BRANCH   1   2
ATOM      2  C   UNL     1      46.959   5.923  12.617  0.00  0.00    +0.000 A 
ATOM      3  C   UNL     1      46.422   4.816  13.290  0.00  0.00    +0.000 A 
ATOM      4  C   UNL     1      45.346   4.105  12.751  0.00  0.00    +0.000 A 
ATOM      5  C   UNL     1      44.769   4.488  11.532  0.00  0.00    +0.000 A 
ATOM      6  C   UNL     1      45.306   5.590  10.856  0.00  0.00    +0.000 A 
ATOM      7  C   UNL     1      46.385   6.300  11.392  0.00  0.00    +0.000 A 
BRANCH   5   8
ATOM      8  C   UNL     1      43.600   3.721  10.954  0.00  0.00    +0.000 C 
BRANCH   8   9
ATOM      9  N   UNL     1      43.815   3.410   9.542  0.00  0.00    +0.000 NA
ATOM     10  H   UNL     1      44.350   4.168   9.117  0.00  0.00    +0.000 HD
BRANCH   9  11
ATOM     11  C   UNL     1      44.542   2.155   9.377  0.00  0.00    +0.000 C 
BRANCH  11  12
ATOM     12  C   UNL     1      45.672   2.311   8.386  0.00  0.00    +0.000 A 
ATOM     13  C   UNL     1      46.456   1.218   8.009  0.00  0.00    +0.000 A 
ATOM     14  C   UNL     1      47.482   1.416   7.095  0.00  0.00    +0.000 A 
ATOM     15  N   UNL     1      47.774   2.610   6.540  0.00  0.00    +0.000 NA
ATOM     16  C   UNL     1      47.003   3.654   6.914  0.00  0.00    +0.000 A 
ATOM     17  C   UNL     1      45.955   3.556   7.815  0.00  0.00    +0.000 A 
ENDBRANCH  11  12
ENDBRANCH   9  11
ENDBRANCH   8   9
ENDBRANCH   5   8
ENDBRANCH   1   2
BRANCH   1  18
ATOM     18  N   UNL     1      47.971   6.720  14.677  0.00  0.00    +0.000 N 
ATOM     19  C   UNL     1      49.032   6.731  15.542  0.00  0.00    +0.000 C 
ATOM     20  O   UNL     1      50.196   6.738  15.151  0.00  0.00    +0.000 OA
ATOM     21  H   UNL     1      47.027   6.639  15.043  0.00  0.00    +0.000 HD
BRANCH  19  22
ATOM     22  C   UNL     1      48.712   6.764  16.977  0.00  0.00    +0.000 A 
ATOM     23  C   UNL     1      48.426   7.975  17.595  0.00  0.00    +0.000 A 
ATOM     24  S   UNL     1      48.141   7.839  19.272  0.00  0.00    +0.000 S 
ATOM     25  C   UNL     1      48.434   6.163  19.240  0.00  0.00    +0.000 A 
ATOM     26  N   UNL     1      48.424   5.430  20.385  0.00  0.00    +0.000 NA
ATOM     27  C   UNL     1      48.713   4.181  20.219  0.00  0.00    +0.000 A 
ATOM     28  N   UNL     1      48.971   3.595  19.009  0.00  0.00    +0.000 N 
ATOM     29  C   UNL     1      48.878   4.278  17.820  0.00  0.00    +0.000 A 
ATOM     30  O   UNL     1      48.919   3.684  16.746  0.00  0.00    +0.000 OA
ATOM     31  C   UNL     1      48.671   5.703  17.956  0.00  0.00    +0.000 A 
ATOM     32  H   UNL     1      49.132   2.599  18.940  0.00  0.00    +0.000 HD
ENDBRANCH  19  22
ENDBRANCH   1  18
BRANCH   1  34
ATOM     33  C   UNL     1      49.509   8.368  11.860  0.00  0.00    +0.000 C 
ATOM     34  C   UNL     1      48.242   8.134  12.677  0.00  0.00    +0.000 C 
ENDBRANCH   1  34
TORSDOF 8
ENDMDL
MODEL 2
REMARK VINA RESULT:    -7.771      1.268      2.092
REMARK INTER + INTRA:         -12.977
REMARK INTER:                 -11.518
REMARK INTRA:                  -1.459
REMARK UNBOUND:                -1.572
REMARK  Name = 
REMARK  9 active torsions:
REMARK  status: ('A' for Active; 'I' for Inactive)
REMARK    1  A    between atoms: C_1  and  C_2
REMARK    2  A    between atoms: C_2  and  C_3
REMARK    3  A    between atoms: C_3  and  N_4
REMARK    4  A    between atoms: C_3  and  C_17
REMARK    5  A    between atoms: C_5  and  C_7
REMARK    6  A    between atoms: C_20  and  C_21
REMARK    7  A    between atoms: C_21  and  N_22
REMARK    8  A    between atoms: N_22  and  C_23
REMARK    9  A    between atoms: C_23  and  C_24
REMARK                            x       y       z     vdW  Elec       q    Type
REMARK                         _______ _______ _______ _____ _____    ______ ____
ROOT
ATOM      1  C   UNL     1      47.751   6.871  13.526  0.00  0.00    +0.000 C 
ENDROOT
BRANCH   1   2
ATOM      2  C   UNL     1      46.644   6.111  12.808  0.00  0.00    +0.000 A 
ATOM      3  C   UNL     1      45.967   5.073  13.462  0.00  0.00    +0.000 A 
ATOM      4  C   UNL     1      44.936   4.376  12.822  0.00  0.00    +0.000 A 
ATOM      5  C   UNL     1      44.547   4.708  11.517  0.00  0.00    +0.000 A 
ATOM      6  C   UNL     1      45.225   5.742  10.860  0.00  0.00    +0.000 A 
ATOM      7  C   UNL     1      46.258   6.436  11.498  0.00  0.00    +0.000 A 
BRANCH   5   8
ATOM      8  C   UNL     1      43.428   3.958  10.829  0.00  0.00    +0.000 C 
BRANCH   8   9
ATOM      9  N   UNL     1      43.798   3.586   9.465  0.00  0.00    +0.000 NA
ATOM     10  H   UNL     1      44.367   4.331   9.063  0.00  0.00    +0.000 HD
BRANCH   9  11
ATOM     11  C   UNL     1      44.554   2.336   9.440  0.00  0.00    +0.000 C 
BRANCH  11  12
ATOM     12  C   UNL     1      45.661   2.395   8.414  0.00  0.00    +0.000 A 
ATOM     13  C   UNL     1      45.996   3.596   7.783  0.00  0.00    +0.000 A 
ATOM     14  C   UNL     1      47.022   3.595   6.847  0.00  0.00    +0.000 A 
ATOM     15  N   UNL     1      47.725   2.496   6.504  0.00  0.00    +0.000 NA
ATOM     16  C   UNL     1      47.389   1.345   7.125  0.00  0.00    +0.000 A 
ATOM     17  C   UNL     1      46.384   1.247   8.076  0.00  0.00    +0.000 A 
ENDBRANCH  11  12
ENDBRANCH   9  11
ENDBRANCH   8   9
ENDBRANCH   5   8
ENDBRANCH   1   2
BRANCH   1  18
ATOM     18  N   UNL     1      47.806   6.437  14.917  0.00  0.00    +0.000 N 
ATOM     19  C   UNL     1      48.961   6.405  15.650  0.00  0.00    +0.000 C 
ATOM     20  O   UNL     1      50.042   6.759  15.186  0.00  0.00    +0.000 OA
ATOM     21  H   UNL     1      46.949   6.066  15.315  0.00  0.00    +0.000 HD
BRANCH  19  22
ATOM     22  C   UNL     1      48.846   5.951  17.044  0.00  0.00    +0.000 A 
ATOM     23  C   UNL     1      49.091   4.621  17.361  0.00  0.00    +0.000 A 
ATOM     24  S   UNL     1      48.850   4.253  19.009  0.00  0.00    +0.000 S 
ATOM     25  C   UNL     1      48.368   5.848  19.350  0.00  0.00    +0.000 A 
ATOM     26  N   UNL     1      47.946   6.201  20.595  0.00  0.00    +0.000 NA
ATOM     27  C   UNL     1      47.562   7.431  20.697  0.00  0.00    +0.000 A 
ATOM     28  N   UNL     1      47.598   8.346  19.679  0.00  0.00    +0.000 N 
ATOM     29  C   UNL     1      48.123   8.058  18.443  0.00  0.00    +0.000 A 
ATOM     30  O   UNL     1      48.324   8.948  17.620  0.00  0.00    +0.000 OA
ATOM     31  C   UNL     1      48.461   6.667  18.237  0.00  0.00    +0.000 A 
ATOM     32  H   UNL     1      47.339   9.310  19.841  0.00  0.00    +0.000 HD
ENDBRANCH  19  22
ENDBRANCH   1  18
BRANCH   1  34
ATOM     33  C   UNL     1      48.524   9.070  12.452  0.00  0.00    +0.000 C 
ATOM     34  C   UNL     1      47.581   8.403  13.447  0.00  0.00    +0.000 C 
ENDBRANCH   1  34
TORSDOF 8
ENDMDL
MODEL 3
REMARK VINA RESULT:    -7.508      2.450      4.643
REMARK INTER + INTRA:         -12.592
REMARK INTER:                 -11.056
REMARK INTRA:                  -1.536
REMARK UNBOUND:                -1.572
REMARK  Name = 
REMARK  9 active torsions:
REMARK  status: ('A' for Active; 'I' for Inactive)
REMARK    1  A    between atoms: C_1  and  C_2
REMARK    2  A    between atoms: C_2  and  C_3
REMARK    3  A    between atoms: C_3  and  N_4
REMARK    4  A    between atoms: C_3  and  C_17
REMARK    5  A    between atoms: C_5  and  C_7
REMARK    6  A    between atoms: C_20  and  C_21
REMARK    7  A    between atoms: C_21  and  N_22
REMARK    8  A    between atoms: N_22  and  C_23
REMARK    9  A    between atoms: C_23  and  C_24
REMARK                            x       y       z     vdW  Elec       q    Type
REMARK                         _______ _______ _______ _____ _____    ______ ____
ROOT
ATOM      1  C   UNL     1      47.141   5.110  14.978  0.00  0.00    +0.000 C 
ENDROOT
BRANCH   1   2
ATOM      2  C   UNL     1      46.219   4.894  13.786  0.00  0.00    +0.000 A 
ATOM      3  C   UNL     1      45.553   5.983  13.207  0.00  0.00    +0.000 A 
ATOM      4  C   UNL     1      44.716   5.804  12.101  0.00  0.00    +0.000 A 
ATOM      5  C   UNL     1      44.533   4.535  11.536  0.00  0.00    +0.000 A 
ATOM      6  C   UNL     1      45.192   3.444  12.116  0.00  0.00    +0.000 A 
ATOM      7  C   UNL     1      46.027   3.621  13.224  0.00  0.00    +0.000 A 
BRANCH   5   8
ATOM      8  C   UNL     1      43.632   4.344  10.336  0.00  0.00    +0.000 C 
BRANCH   8   9
ATOM      9  N   UNL     1      44.162   3.326   9.431  0.00  0.00    +0.000 NA
ATOM     10  H   UNL     1      43.383   2.793   9.043  0.00  0.00    +0.000 HD
BRANCH   9  11
ATOM     11  C   UNL     1      44.924   3.927   8.339  0.00  0.00    +0.000 C 
BRANCH  11  12
ATOM     12  C   UNL     1      45.955   2.961   7.804  0.00  0.00    +0.000 A 
ATOM     13  C   UNL     1      46.916   3.373   6.878  0.00  0.00    +0.000 A 
ATOM     14  C   UNL     1      47.841   2.445   6.418  0.00  0.00    +0.000 A 
ATOM     15  N   UNL     1      47.872   1.156   6.813  0.00  0.00    +0.000 NA
ATOM     16  C   UNL     1      46.937   0.776   7.711  0.00  0.00    +0.000 A 
ATOM     17  C   UNL     1      45.977   1.629   8.232  0.00  0.00    +0.000 A 
ENDBRANCH  11  12
ENDBRANCH   9  11
ENDBRANCH   8   9
ENDBRANCH   5   8
ENDBRANCH   1   2
BRANCH   1  18
ATOM     18  N   UNL     1      48.312   5.865  14.548  0.00  0.00    +0.000 N 
ATOM     19  C   UNL     1      48.966   6.760  15.350  0.00  0.00    +0.000 C 
ATOM     20  O   UNL     1      48.616   6.981  16.507  0.00  0.00    +0.000 OA
ATOM     21  H   UNL     1      48.588   5.767  13.576  0.00  0.00    +0.000 HD
BRANCH  19  22
ATOM     22  C   UNL     1      50.137   7.433  14.769  0.00  0.00    +0.000 A 
ATOM     23  C   UNL     1      51.325   7.496  15.487  0.00  0.00    +0.000 A 
ATOM     24  S   UNL     1      52.561   8.366  14.694  0.00  0.00    +0.000 S 
ATOM     25  C   UNL     1      51.538   8.726  13.382  0.00  0.00    +0.000 A 
ATOM     26  N   UNL     1      51.962   9.521  12.363  0.00  0.00    +0.000 NA
ATOM     27  C   UNL     1      51.065   9.752  11.461  0.00  0.00    +0.000 A 
ATOM     28  N   UNL     1      49.799   9.229  11.468  0.00  0.00    +0.000 N 
ATOM     29  C   UNL     1      49.374   8.332  12.419  0.00  0.00    +0.000 A 
ATOM     30  O   UNL     1      48.310   7.731  12.288  0.00  0.00    +0.000 OA
ATOM     31  C   UNL     1      50.296   8.128  13.514  0.00  0.00    +0.000 A 
ATOM     32  H   UNL     1      49.164   9.400  10.700  0.00  0.00    +0.000 HD
ENDBRANCH  19  22
ENDBRANCH   1  18
BRANCH   1  34
ATOM     33  C   UNL     1      47.181   3.707  17.128  0.00  0.00    +0.000 C 
ATOM     34  C   UNL     1      47.570   3.791  15.656  0.00  0.00    +0.000 C 
ENDBRANCH   1  34
TORSDOF 8
ENDMDL
MODEL 4
REMARK VINA RESULT:    -7.315      3.287      7.992
REMARK INTER + INTRA:         -12.308
REMARK INTER:                 -10.498
REMARK INTRA:                  -1.811
REMARK UNBOUND:                -1.572
REMARK  Name = 
REMARK  9 active torsions:
REMARK  status: ('A' for Active; 'I' for Inactive)
REMARK    1  A    between atoms: C_1  and  C_2
REMARK    2  A    between atoms: C_2  and  C_3
REMARK    3  A    between atoms: C_3  and  N_4
REMARK    4  A    between atoms: C_3  and  C_17
REMARK    5  A    between atoms: C_5  and  C_7
REMARK    6  A    between atoms: C_20  and  C_21
REMARK    7  A    between atoms: C_21  and  N_22
REMARK    8  A    between atoms: N_22  and  C_23
REMARK    9  A    between atoms: C_23  and  C_24
REMARK                            x       y       z     vdW  Elec       q    Type
REMARK                         _______ _______ _______ _____ _____    ______ ____
ROOT
ATOM      1  C   UNL     1      47.935   8.261  12.400  0.00  0.00    +0.000 C 
ENDROOT
BRANCH   1   2
ATOM      2  C   UNL     1      48.285   7.904  13.838  0.00  0.00    +0.000 A 
ATOM      3  C   UNL     1      48.548   8.918  14.770  0.00  0.00    +0.000 A 
ATOM      4  C   UNL     1      48.855   8.607  16.098  0.00  0.00    +0.000 A 
ATOM      5  C   UNL     1      48.894   7.275  16.534  0.00  0.00    +0.000 A 
ATOM      6  C   UNL     1      48.636   6.260  15.605  0.00  0.00    +0.000 A 
ATOM      7  C   UNL     1      48.333   6.570  14.275  0.00  0.00    +0.000 A 
BRANCH   5   8
ATOM      8  C   UNL     1      49.219   6.941  17.973  0.00  0.00    +0.000 C 
BRANCH   8   9
ATOM      9  N   UNL     1      48.189   6.090  18.567  0.00  0.00    +0.000 NA
ATOM     10  H   UNL     1      47.542   5.798  17.834  0.00  0.00    +0.000 HD
BRANCH   9  11
ATOM     11  C   UNL     1      48.772   4.907  19.195  0.00  0.00    +0.000 C 
BRANCH  11  12
ATOM     12  C   UNL     1      49.028   3.824  18.174  0.00  0.00    +0.000 A 
ATOM     13  C   UNL     1      50.309   3.298  17.987  0.00  0.00    +0.000 A 
ATOM     14  C   UNL     1      50.490   2.303  17.035  0.00  0.00    +0.000 A 
ATOM     15  N   UNL     1      49.497   1.807  16.269  0.00  0.00    +0.000 NA
ATOM     16  C   UNL     1      48.266   2.325  16.465  0.00  0.00    +0.000 A 
ATOM     17  C   UNL     1      47.984   3.315  17.394  0.00  0.00    +0.000 A 
ENDBRANCH  11  12
ENDBRANCH   9  11
ENDBRANCH   8   9
ENDBRANCH   5   8
ENDBRANCH   1   2
BRANCH   1  18
ATOM     18  N   UNL     1      47.338   7.101  11.750  0.00  0.00    +0.000 N 
ATOM     19  C   UNL     1      45.991   6.964  11.544  0.00  0.00    +0.000 C 
ATOM     20  O   UNL     1      45.185   7.827  11.884  0.00  0.00    +0.000 OA
ATOM     21  H   UNL     1      47.961   6.332  11.522  0.00  0.00    +0.000 HD
BRANCH  19  22
ATOM     22  C   UNL     1      45.549   5.737  10.865  0.00  0.00    +0.000 A 
ATOM     23  C   UNL     1      45.723   5.606   9.493  0.00  0.00    +0.000 A 
ATOM     24  S   UNL     1      45.098   4.150   8.858  0.00  0.00    +0.000 S 
ATOM     25  C   UNL     1      44.534   3.663  10.388  0.00  0.00    +0.000 A 
ATOM     26  N   UNL     1      43.824   2.513  10.539  0.00  0.00    +0.000 NA
ATOM     27  C   UNL     1      43.416   2.294  11.746  0.00  0.00    +0.000 A 
ATOM     28  N   UNL     1      43.687   3.101  12.819  0.00  0.00    +0.000 N 
ATOM     29  C   UNL     1      44.495   4.208  12.727  0.00  0.00    +0.000 A 
ATOM     30  O   UNL     1      44.880   4.794  13.736  0.00  0.00    +0.000 OA
ATOM     31  C   UNL     1      44.885   4.564  11.380  0.00  0.00    +0.000 A 
ATOM     32  H   UNL     1      43.389   2.841  13.749  0.00  0.00    +0.000 HD
ENDBRANCH  19  22
ENDBRANCH   1  18
BRANCH   1  34
ATOM     33  C   UNL     1      50.271   7.742  11.471  0.00  0.00    +0.000 C 
ATOM     34  C   UNL     1      49.148   8.767  11.591  0.00  0.00    +0.000 C 
ENDBRANCH   1  34
TORSDOF 8
ENDMDL
MODEL 5
REMARK VINA RESULT:    -6.995      3.045      8.339
REMARK INTER + INTRA:         -11.838
REMARK INTER:                 -10.336
REMARK INTRA:                  -1.502
REMARK UNBOUND:                -1.572
REMARK  Name = 
REMARK  9 active torsions:
REMARK  status: ('A' for Active; 'I' for Inactive)
REMARK    1  A    between atoms: C_1  and  C_2
REMARK    2  A    between atoms: C_2  and  C_3
REMARK    3  A    between atoms: C_3  and  N_4
REMARK    4  A    between atoms: C_3  and  C_17
REMARK    5  A    between atoms: C_5  and  C_7
REMARK    6  A    between atoms: C_20  and  C_21
REMARK    7  A    between atoms: C_21  and  N_22
REMARK    8  A    between atoms: N_22  and  C_23
REMARK    9  A    between atoms: C_23  and  C_24
REMARK                            x       y       z     vdW  Elec       q    Type
REMARK                         _______ _______ _______ _____ _____    ______ ____
ROOT
ATOM      1  C   UNL     1      47.621   7.919  12.586  0.00  0.00    +0.000 C 
ENDROOT
BRANCH   1   2
ATOM      2  C   UNL     1      48.213   7.846  13.987  0.00  0.00    +0.000 A 
ATOM      3  C   UNL     1      49.135   6.839  14.309  0.00  0.00    +0.000 A 
ATOM      4  C   UNL     1      49.701   6.769  15.586  0.00  0.00    +0.000 A 
ATOM      5  C   UNL     1      49.371   7.709  16.571  0.00  0.00    +0.000 A 
ATOM      6  C   UNL     1      48.446   8.712  16.254  0.00  0.00    +0.000 A 
ATOM      7  C   UNL     1      47.877   8.782  14.979  0.00  0.00    +0.000 A 
BRANCH   5   8
ATOM      8  C   UNL     1      49.989   7.636  17.950  0.00  0.00    +0.000 C 
BRANCH   8   9
ATOM      9  N   UNL     1      50.447   6.281  18.254  0.00  0.00    +0.000 NA
ATOM     10  H   UNL     1      51.124   6.327  19.016  0.00  0.00    +0.000 HD
BRANCH   9  11
ATOM     11  C   UNL     1      49.337   5.418  18.647  0.00  0.00    +0.000 C 
BRANCH  11  12
ATOM     12  C   UNL     1      49.308   4.160  17.810  0.00  0.00    +0.000 A 
ATOM     13  C   UNL     1      48.149   3.770  17.135  0.00  0.00    +0.000 A 
ATOM     14  C   UNL     1      48.177   2.605  16.379  0.00  0.00    +0.000 A 
ATOM     15  N   UNL     1      49.264   1.816  16.254  0.00  0.00    +0.000 NA
ATOM     16  C   UNL     1      50.376   2.211  16.912  0.00  0.00    +0.000 A 
ATOM     17  C   UNL     1      50.448   3.359  17.686  0.00  0.00    +0.000 A 
ENDBRANCH  11  12
ENDBRANCH   9  11
ENDBRANCH   8   9
ENDBRANCH   5   8
ENDBRANCH   1   2
BRANCH   1  18
ATOM     18  N   UNL     1      46.817   6.727  12.344  0.00  0.00    +0.000 N 
ATOM     19  C   UNL     1      45.571   6.762  11.779  0.00  0.00    +0.000 C 
ATOM     20  O   UNL     1      45.044   7.812  11.420  0.00  0.00    +0.000 OA
ATOM     21  H   UNL     1      47.185   5.847  12.694  0.00  0.00    +0.000 HD
BRANCH  19  22
ATOM     22  C   UNL     1      44.894   5.470  11.592  0.00  0.00    +0.000 A 
ATOM     23  C   UNL     1      44.110   4.946  12.612  0.00  0.00    +0.000 A 
ATOM     24  S   UNL     1      43.452   3.413  12.253  0.00  0.00    +0.000 S 
ATOM     25  C   UNL     1      44.228   3.376  10.739  0.00  0.00    +0.000 A 
ATOM     26  N   UNL     1      44.139   2.283   9.934  0.00  0.00    +0.000 NA
ATOM     27  C   UNL     1      44.819   2.373   8.838  0.00  0.00    +0.000 A 
ATOM     28  N   UNL     1      45.546   3.470   8.459  0.00  0.00    +0.000 N 
ATOM     29  C   UNL     1      45.566   4.633   9.191  0.00  0.00    +0.000 A 
ATOM     30  O   UNL     1      46.060   5.659   8.730  0.00  0.00    +0.000 OA
ATOM     31  C   UNL     1      44.917   4.549  10.480  0.00  0.00    +0.000 A 
ATOM     32  H   UNL     1      46.007   3.500   7.560  0.00  0.00    +0.000 HD
ENDBRANCH  19  22
ENDBRANCH   1  18
BRANCH   1  34
ATOM     33  C   UNL     1      49.298   9.477  11.425  0.00  0.00    +0.000 C 
ATOM     34  C   UNL     1      48.691   8.080  11.486  0.00  0.00    +0.000 C 
ENDBRANCH   1  34
TORSDOF 8
ENDMDL
MODEL 6
REMARK VINA RESULT:    -6.331      1.471      1.884
REMARK INTER + INTRA:         -10.864
REMARK INTER:                  -9.584
REMARK INTRA:                  -1.280
REMARK UNBOUND:                -1.572
REMARK  Name = 
REMARK  9 active torsions:
REMARK  status: ('A' for Active; 'I' for Inactive)
REMARK    1  A    between atoms: C_1  and  C_2
REMARK    2  A    between atoms: C_2  and  C_3
REMARK    3  A    between atoms: C_3  and  N_4
REMARK    4  A    between atoms: C_3  and  C_17
REMARK    5  A    between atoms: C_5  and  C_7
REMARK    6  A    between atoms: C_20  and  C_21
REMARK    7  A    between atoms: C_21  and  N_22
REMARK    8  A    between atoms: N_22  and  C_23
REMARK    9  A    between atoms: C_23  and  C_24
REMARK                            x       y       z     vdW  Elec       q    Type
REMARK                         _______ _______ _______ _____ _____    ______ ____
ROOT
ATOM      1  C   UNL     1      48.975   8.334  13.983  0.00  0.00    +0.000 C 
ENDROOT
BRANCH   1   2
ATOM      2  C   UNL     1      47.722   7.775  13.322  0.00  0.00    +0.000 A 
ATOM      3  C   UNL     1      47.766   6.536  12.667  0.00  0.00    +0.000 A 
ATOM      4  C   UNL     1      46.620   6.001  12.070  0.00  0.00    +0.000 A 
ATOM      5  C   UNL     1      45.397   6.683  12.123  0.00  0.00    +0.000 A 
ATOM      6  C   UNL     1      45.351   7.923  12.772  0.00  0.00    +0.000 A 
ATOM      7  C   UNL     1      46.497   8.461  13.366  0.00  0.00    +0.000 A 
BRANCH   5   8
ATOM      8  C   UNL     1      44.157   6.100  11.482  0.00  0.00    +0.000 C 
BRANCH   8   9
ATOM      9  N   UNL     1      44.446   5.571  10.150  0.00  0.00    +0.000 NA
ATOM     10  H   UNL     1      45.450   5.640   9.980  0.00  0.00    +0.000 HD
BRANCH   9  11
ATOM     11  C   UNL     1      44.031   4.176  10.028  0.00  0.00    +0.000 C 
BRANCH  11  12
ATOM     12  C   UNL     1      44.956   3.415   9.108  0.00  0.00    +0.000 A 
ATOM     13  C   UNL     1      45.112   2.032   9.226  0.00  0.00    +0.000 A 
ATOM     14  C   UNL     1      45.976   1.381   8.355  0.00  0.00    +0.000 A 
ATOM     15  N   UNL     1      46.682   2.006   7.390  0.00  0.00    +0.000 NA
ATOM     16  C   UNL     1      46.516   3.342   7.290  0.00  0.00    +0.000 A 
ATOM     17  C   UNL     1      45.674   4.079   8.108  0.00  0.00    +0.000 A 
ENDBRANCH  11  12
ENDBRANCH   9  11
ENDBRANCH   8   9
ENDBRANCH   5   8
ENDBRANCH   1   2
BRANCH   1  18
ATOM     18  N   UNL     1      49.006   7.917  15.379  0.00  0.00    +0.000 N 
ATOM     19  C   UNL     1      50.114   7.385  15.981  0.00  0.00    +0.000 C 
ATOM     20  O   UNL     1      51.176   7.233  15.382  0.00  0.00    +0.000 OA
ATOM     21  H   UNL     1      48.129   7.956  15.889  0.00  0.00    +0.000 HD
BRANCH  19  22
ATOM     22  C   UNL     1      49.986   7.024  17.401  0.00  0.00    +0.000 A 
ATOM     23  C   UNL     1      50.474   7.882  18.379  0.00  0.00    +0.000 A 
ATOM     24  S   UNL     1      50.299   7.281  19.967  0.00  0.00    +0.000 S 
ATOM     25  C   UNL     1      49.605   5.835  19.400  0.00  0.00    +0.000 A 
ATOM     26  N   UNL     1      49.281   4.831  20.259  0.00  0.00    +0.000 NA
ATOM     27  C   UNL     1      48.810   3.772  19.686  0.00  0.00    +0.000 A 
ATOM     28  N   UNL     1      48.599   3.643  18.339  0.00  0.00    +0.000 N 
ATOM     29  C   UNL     1      48.806   4.674  17.455  0.00  0.00    +0.000 A 
ATOM     30  O   UNL     1      48.421   4.594  16.291  0.00  0.00    +0.000 OA
ATOM     31  C   UNL     1      49.440   5.843  18.025  0.00  0.00    +0.000 A 
ATOM     32  H   UNL     1      48.171   2.809  17.960  0.00  0.00    +0.000 HD
ENDBRANCH  19  22
ENDBRANCH   1  18
BRANCH   1  34
ATOM     33  C   UNL     1      50.510  10.376  13.732  0.00  0.00    +0.000 C 
ATOM     34  C   UNL     1      49.079   9.870  13.877  0.00  0.00    +0.000 C 
ENDBRANCH   1  34
TORSDOF 8
ENDMDL
MODEL 7
REMARK VINA RESULT:    -6.005      2.093      3.189
REMARK INTER + INTRA:         -10.386
REMARK INTER:                  -9.144
REMARK INTRA:                  -1.242
REMARK UNBOUND:                -1.572
REMARK  Name = 
REMARK  9 active torsions:
REMARK  status: ('A' for Active; 'I' for Inactive)
REMARK    1  A    between atoms: C_1  and  C_2
REMARK    2  A    between atoms: C_2  and  C_3
REMARK    3  A    between atoms: C_3  and  N_4
REMARK    4  A    between atoms: C_3  and  C_17
REMARK    5  A    between atoms: C_5  and  C_7
REMARK    6  A    between atoms: C_20  and  C_21
REMARK    7  A    between atoms: C_21  and  N_22
REMARK    8  A    between atoms: N_22  and  C_23
REMARK    9  A    between atoms: C_23  and  C_24
REMARK                            x       y       z     vdW  Elec       q    Type
REMARK                         _______ _______ _______ _____ _____    ______ ____
ROOT
ATOM      1  C   UNL     1      49.743   7.543  14.380  0.00  0.00    +0.000 C 
ENDROOT
BRANCH   1   2
ATOM      2  C   UNL     1      48.415   7.310  13.672  0.00  0.00    +0.000 A 
ATOM      3  C   UNL     1      48.174   6.095  13.015  0.00  0.00    +0.000 A 
ATOM      4  C   UNL     1      46.954   5.858  12.374  0.00  0.00    +0.000 A 
ATOM      5  C   UNL     1      45.938   6.824  12.384  0.00  0.00    +0.000 A 
ATOM      6  C   UNL     1      46.178   8.040  13.035  0.00  0.00    +0.000 A 
ATOM      7  C   UNL     1      47.399   8.279  13.673  0.00  0.00    +0.000 A 
BRANCH   5   8
ATOM      8  C   UNL     1      44.616   6.564  11.696  0.00  0.00    +0.000 C 
BRANCH   8   9
ATOM      9  N   UNL     1      44.383   5.131  11.518  0.00  0.00    +0.000 NA
ATOM     10  H   UNL     1      43.770   4.802  12.264  0.00  0.00    +0.000 HD
BRANCH   9  11
ATOM     11  C   UNL     1      43.763   4.848  10.226  0.00  0.00    +0.000 C 
BRANCH  11  12
ATOM     12  C   UNL     1      44.641   3.945   9.392  0.00  0.00    +0.000 A 
ATOM     13  C   UNL     1      45.543   4.473   8.465  0.00  0.00    +0.000 A 
ATOM     14  C   UNL     1      46.327   3.598   7.724  0.00  0.00    +0.000 A 
ATOM     15  N   UNL     1      46.273   2.255   7.843  0.00  0.00    +0.000 NA
ATOM     16  C   UNL     1      45.398   1.764   8.747  0.00  0.00    +0.000 A 
ATOM     17  C   UNL     1      44.577   2.555   9.536  0.00  0.00    +0.000 A 
ENDBRANCH  11  12
ENDBRANCH   9  11
ENDBRANCH   8   9
ENDBRANCH   5   8
ENDBRANCH   1   2
BRANCH   1  18
ATOM     18  N   UNL     1      49.510   7.635  15.816  0.00  0.00    +0.000 N 
ATOM     19  C   UNL     1      49.176   6.559  16.594  0.00  0.00    +0.000 C 
ATOM     20  O   UNL     1      49.062   5.426  16.132  0.00  0.00    +0.000 OA
ATOM     21  H   UNL     1      49.520   8.564  16.225  0.00  0.00    +0.000 HD
BRANCH  19  22
ATOM     22  C   UNL     1      48.984   6.816  18.029  0.00  0.00    +0.000 A 
ATOM     23  C   UNL     1      49.432   5.891  18.963  0.00  0.00    +0.000 A 
ATOM     24  S   UNL     1      49.073   6.315  20.577  0.00  0.00    +0.000 S 
ATOM     25  C   UNL     1      48.267   7.730  20.081  0.00  0.00    +0.000 A 
ATOM     26  N   UNL     1      47.645   8.534  20.984  0.00  0.00    +0.000 NA
ATOM     27  C   UNL     1      47.030   9.544  20.462  0.00  0.00    +0.000 A 
ATOM     28  N   UNL     1      47.015   9.842  19.126  0.00  0.00    +0.000 N 
ATOM     29  C   UNL     1      47.725   9.119  18.198  0.00  0.00    +0.000 A 
ATOM     30  O   UNL     1      47.853   9.524  17.045  0.00  0.00    +0.000 OA
ATOM     31  C   UNL     1      48.337   7.912  18.709  0.00  0.00    +0.000 A 
ATOM     32  H   UNL     1      46.565  10.682  18.788  0.00  0.00    +0.000 HD
ENDBRANCH  19  22
ENDBRANCH   1  18
BRANCH   1  34
ATOM     33  C   UNL     1      51.508   9.343  14.865  0.00  0.00    +0.000 C 
ATOM     34  C   UNL     1      50.484   8.799  13.874  0.00  0.00    +0.000 C 
ENDBRANCH   1  34
TORSDOF 8
ENDMDL
MODEL 8
REMARK VINA RESULT:    -5.571      3.376      8.545
REMARK INTER + INTRA:          -9.749
REMARK INTER:                  -8.222
REMARK INTRA:                  -1.526
REMARK UNBOUND:                -1.572
REMARK  Name = 
REMARK  9 active torsions:
REMARK  status: ('A' for Active; 'I' for Inactive)
REMARK    1  A    between atoms: C_1  and  C_2
REMARK    2  A    between atoms: C_2  and  C_3
REMARK    3  A    between atoms: C_3  and  N_4
REMARK    4  A    between atoms: C_3  and  C_17
REMARK    5  A    between atoms: C_5  and  C_7
REMARK    6  A    between atoms: C_20  and  C_21
REMARK    7  A    between atoms: C_21  and  N_22
REMARK    8  A    between atoms: N_22  and  C_23
REMARK    9  A    between atoms: C_23  and  C_24
REMARK                            x       y       z     vdW  Elec       q    Type
REMARK                         _______ _______ _______ _____ _____    ______ ____
ROOT
ATOM      1  C   UNL     1      48.534   8.002  12.448  0.00  0.00    +0.000 C 
ENDROOT
BRANCH   1   2
ATOM      2  C   UNL     1      48.517   7.838  13.962  0.00  0.00    +0.000 A 
ATOM      3  C   UNL     1      48.747   6.579  14.535  0.00  0.00    +0.000 A 
ATOM      4  C   UNL     1      48.752   6.414  15.923  0.00  0.00    +0.000 A 
ATOM      5  C   UNL     1      48.540   7.506  16.777  0.00  0.00    +0.000 A 
ATOM      6  C   UNL     1      48.305   8.763  16.208  0.00  0.00    +0.000 A 
ATOM      7  C   UNL     1      48.296   8.928  14.819  0.00  0.00    +0.000 A 
BRANCH   5   8
ATOM      8  C   UNL     1      48.552   7.327  18.279  0.00  0.00    +0.000 C 
BRANCH   8   9
ATOM      9  N   UNL     1      49.913   7.142  18.781  0.00  0.00    +0.000 NA
ATOM     10  H   UNL     1      50.054   7.757  19.582  0.00  0.00    +0.000 HD
BRANCH   9  11
ATOM     11  C   UNL     1      50.147   5.759  19.188  0.00  0.00    +0.000 C 
BRANCH  11  12
ATOM     12  C   UNL     1      51.431   5.231  18.593  0.00  0.00    +0.000 A 
ATOM     13  C   UNL     1      51.684   3.858  18.526  0.00  0.00    +0.000 A 
ATOM     14  C   UNL     1      52.881   3.426  17.969  0.00  0.00    +0.000 A 
ATOM     15  N   UNL     1      53.826   4.256  17.483  0.00  0.00    +0.000 NA
ATOM     16  C   UNL     1      53.563   5.579  17.553  0.00  0.00    +0.000 A 
ATOM     17  C   UNL     1      52.397   6.107  18.086  0.00  0.00    +0.000 A 
ENDBRANCH  11  12
ENDBRANCH   9  11
ENDBRANCH   8   9
ENDBRANCH   5   8
ENDBRANCH   1   2
BRANCH   1  18
ATOM     18  N   UNL     1      47.756   6.929  11.842  0.00  0.00    +0.000 N 
ATOM     19  C   UNL     1      46.418   7.029  11.573  0.00  0.00    +0.000 C 
ATOM     20  O   UNL     1      45.776   8.048  11.814  0.00  0.00    +0.000 OA
ATOM     21  H   UNL     1      48.232   6.044  11.696  0.00  0.00    +0.000 HD
BRANCH  19  22
ATOM     22  C   UNL     1      45.781   5.860  10.949  0.00  0.00    +0.000 A 
ATOM     23  C   UNL     1      45.801   5.717   9.567  0.00  0.00    +0.000 A 
ATOM     24  S   UNL     1      44.963   4.339   9.008  0.00  0.00    +0.000 S 
ATOM     25  C   UNL     1      44.506   3.910  10.590  0.00  0.00    +0.000 A 
ATOM     26  N   UNL     1      43.695   2.842  10.818  0.00  0.00    +0.000 NA
ATOM     27  C   UNL     1      43.389   2.663  12.061  0.00  0.00    +0.000 A 
ATOM     28  N   UNL     1      43.850   3.431  13.096  0.00  0.00    +0.000 N 
ATOM     29  C   UNL     1      44.760   4.446  12.917  0.00  0.00    +0.000 A 
ATOM     30  O   UNL     1      45.304   4.982  13.879  0.00  0.00    +0.000 OA
ATOM     31  C   UNL     1      45.049   4.763  11.536  0.00  0.00    +0.000 A 
ATOM     32  H   UNL     1      43.620   3.202  14.053  0.00  0.00    +0.000 HD
ENDBRANCH  19  22
ENDBRANCH   1  18
BRANCH   1  34
ATOM     33  C   UNL     1      50.507   9.442  11.659  0.00  0.00    +0.000 C 
ATOM     34  C   UNL     1      49.961   8.032  11.860  0.00  0.00    +0.000 C 
ENDBRANCH   1  34
TORSDOF 8
ENDMDL
