MODEL 1
REMARK VINA RESULT:    -8.061      0.000      0.000
REMARK INTER + INTRA:         -12.167
REMARK INTER:                 -11.124
REMARK INTRA:                  -1.044
REMARK UNBOUND:                -1.044
REMARK  Name = 
REMARK  7 active torsions:
REMARK  status: ('A' for Active; 'I' for Inactive)
REMARK    1  A    between atoms: N_1  and  C_2
REMARK    2  A    between atoms: C_2  and  C_3
REMARK    3  A    between atoms: C_7  and  O_8
REMARK    4  A    between atoms: O_8  and  C_9
REMARK    5  A    between atoms: C_9  and  C_10
REMARK    6  A    between atoms: C_10  and  C_13
REMARK    7  A    between atoms: C_17  and  C_18
REMARK                            x       y       z     vdW  Elec       q    Type
REMARK                         _______ _______ _______ _____ _____    ______ ____
ROOT
ATOM      1  C   UNL     1      44.225   3.759  12.407  0.00  0.00    +0.000 C 
ATOM      2  F   UNL     1      43.371   3.636  13.466  0.00  0.00    +0.000 F 
ATOM      3  F   UNL     1      45.074   2.695  12.491  0.00  0.00    +0.000 F 
ENDROOT
BRANCH   1   4
ATOM      4  C   UNL     1      44.967   5.084  12.442  0.00  0.00    +0.000 A 
ATOM      5  C   UNL     1      46.297   5.142  12.885  0.00  0.00    +0.000 A 
ATOM      6  C   UNL     1      46.998   6.346  12.853  0.00  0.00    +0.000 A 
ATOM      7  C   UNL     1      46.380   7.500  12.367  0.00  0.00    +0.000 A 
ATOM      8  C   UNL     1      45.051   7.467  11.917  0.00  0.00    +0.000 A 
ATOM      9  C   UNL     1      44.347   6.257  11.971  0.00  0.00    +0.000 A 
BRANCH   8  10
ATOM     10  C   UNL     1      44.473   8.727  11.367  0.00  0.00    +0.000 C 
ATOM     11  N   UNL     1      43.217   8.698  10.831  0.00  0.00    +0.000 N 
ATOM     12  O   UNL     1      45.107   9.777  11.375  0.00  0.00    +0.000 OA
ATOM     13  H   UNL     1      42.605   7.899  10.800  0.00  0.00    +0.000 HD
ATOM     14  H   UNL     1      42.865   9.572  10.459  0.00  0.00    +0.000 HD
ENDBRANCH   8  10
ENDBRANCH   1   4
BRANCH   1  15
ATOM     15  C   UNL     1      43.417   3.661  11.102  0.00  0.00    +0.000 C 
BRANCH  15  16
ATOM     16  O   UNL     1      43.903   2.595  10.279  0.00  0.00    +0.000 OA
BRANCH  16  21
ATOM     17  C   UNL     1      46.471   2.052   7.756  0.00  0.00    +0.000 A 
ATOM     18  C   UNL     1      46.698   3.353   7.288  0.00  0.00    +0.000 A 
ATOM     19  C   UNL     1      45.997   4.431   7.824  0.00  0.00    +0.000 A 
ATOM     20  C   UNL     1      45.053   4.224   8.831  0.00  0.00    +0.000 A 
ATOM     21  C   UNL     1      44.806   2.935   9.307  0.00  0.00    +0.000 A 
ATOM     22  C   UNL     1      45.519   1.859   8.769  0.00  0.00    +0.000 A 
BRANCH  17  23
ATOM     23  C   UNL     1      47.212   0.881   7.165  0.00  0.00    +0.000 C 
BRANCH  23  24
ATOM     24  N   UNL     1      46.779  -0.382   7.752  0.00  0.00    +0.000 NA
ATOM     25  H   UNL     1      47.473  -0.686   8.432  0.00  0.00    +0.000 HD
ATOM     26  H   UNL     1      46.763  -1.092   7.021  0.00  0.00    +0.000 HD
ENDBRANCH  23  24
ENDBRANCH  17  23
ENDBRANCH  16  21
ENDBRANCH  15  16
ENDBRANCH   1  15
TORSDOF 7
ENDMDL
MODEL 2
REMARK VINA RESULT:    -7.997      1.879      2.357
REMARK INTER + INTRA:         -12.079
REMARK INTER:                 -11.075
REMARK INTRA:                  -1.004
REMARK UNBOUND:                -1.044
REMARK  Name = 
REMARK  7 active torsions:
REMARK  status: ('A' for Active; 'I' for Inactive)
REMARK    1  A    between atoms: N_1  and  C_2
REMARK    2  A    between atoms: C_2  and  C_3
REMARK    3  A    between atoms: C_7  and  O_8
REMARK    4  A    between atoms: O_8  and  C_9
REMARK    5  A    between atoms: C_9  and  C_10
REMARK    6  A    between atoms: C_10  and  C_13
REMARK    7  A    between atoms: C_17  and  C_18
REMARK                            x       y       z     vdW  Elec       q    Type
REMARK                         _______ _______ _______ _____ _____    ______ ____
ROOT
ATOM      1  C   UNL     1      44.134   3.808  12.365  0.00  0.00    +0.000 C 
ATOM      2  F   UNL     1      43.255   3.755  13.410  0.00  0.00    +0.000 F 
ATOM      3  F   UNL     1      44.967   2.740  12.530  0.00  0.00    +0.000 F 
ENDROOT
BRANCH   1   4
ATOM      4  C   UNL     1      44.892   5.123  12.342  0.00  0.00    +0.000 A 
ATOM      5  C   UNL     1      44.316   6.266  11.768  0.00  0.00    +0.000 A 
ATOM      6  C   UNL     1      44.985   7.488  11.808  0.00  0.00    +0.000 A 
ATOM      7  C   UNL     1      46.231   7.581  12.432  0.00  0.00    +0.000 A 
ATOM      8  C   UNL     1      46.827   6.452  13.014  0.00  0.00    +0.000 A 
ATOM      9  C   UNL     1      46.157   5.223  12.953  0.00  0.00    +0.000 A 
BRANCH   8  10
ATOM     10  C   UNL     1      48.135   6.638  13.705  0.00  0.00    +0.000 C 
ATOM     11  N   UNL     1      48.141   6.972  15.030  0.00  0.00    +0.000 N 
ATOM     12  O   UNL     1      49.198   6.510  13.105  0.00  0.00    +0.000 OA
ATOM     13  H   UNL     1      47.331   7.074  15.618  0.00  0.00    +0.000 HD
ATOM     14  H   UNL     1      49.050   7.099  15.459  0.00  0.00    +0.000 HD
ENDBRANCH   8  10
ENDBRANCH   1   4
BRANCH   1  15
ATOM     15  C   UNL     1      43.355   3.644  11.049  0.00  0.00    +0.000 C 
BRANCH  15  16
ATOM     16  O   UNL     1      43.889   2.569  10.269  0.00  0.00    +0.000 OA
BRANCH  16  21
ATOM     17  C   UNL     1      46.460   2.020   7.751  0.00  0.00    +0.000 A 
ATOM     18  C   UNL     1      46.703   3.323   7.295  0.00  0.00    +0.000 A 
ATOM     19  C   UNL     1      46.011   4.404   7.838  0.00  0.00    +0.000 A 
ATOM     20  C   UNL     1      45.061   4.198   8.840  0.00  0.00    +0.000 A 
ATOM     21  C   UNL     1      44.799   2.908   9.303  0.00  0.00    +0.000 A 
ATOM     22  C   UNL     1      45.502   1.828   8.758  0.00  0.00    +0.000 A 
BRANCH  17  23
ATOM     23  C   UNL     1      47.190   0.847   7.151  0.00  0.00    +0.000 C 
BRANCH  23  24
ATOM     24  N   UNL     1      46.799  -0.410   7.782  0.00  0.00    +0.000 NA
ATOM     25  H   UNL     1      47.545  -0.712   8.407  0.00  0.00    +0.000 HD
ATOM     26  H   UNL     1      46.721  -1.125   7.061  0.00  0.00    +0.000 HD
ENDBRANCH  23  24
ENDBRANCH  17  23
ENDBRANCH  16  21
ENDBRANCH  15  16
ENDBRANCH   1  15
TORSDOF 7
ENDMDL
MODEL 3
REMARK VINA RESULT:    -7.927      1.688      6.329
REMARK INTER + INTRA:         -11.983
REMARK INTER:                 -10.920
REMARK INTRA:                  -1.063
REMARK UNBOUND:                -1.044
REMARK  Name = 
REMARK  7 active torsions:
REMARK  status: ('A' for Active; 'I' for Inactive)
REMARK    1  A    between atoms: N_1  and  C_2
REMARK    2  A    between atoms: C_2  and  C_3
REMARK    3  A    between atoms: C_7  and  O_8
REMARK    4  A    between atoms: O_8  and  C_9
REMARK    5  A    between atoms: C_9  and  C_10
REMARK    6  A    between atoms: C_10  and  C_13
REMARK    7  A    between atoms: C_17  and  C_18
REMARK                            x       y       z     vdW  Elec       q    Type
REMARK                         _______ _______ _______ _____ _____    ______ ____
ROOT
ATOM      1  C   UNL     1      43.973   2.938  10.978  0.00  0.00    +0.000 C 
ATOM      2  F   UNL     1      43.304   1.746  10.977  0.00  0.00    +0.000 F 
ATOM      3  F   UNL     1      43.013   3.901  11.092  0.00  0.00    +0.000 F 
ENDROOT
BRANCH   1   4
ATOM      4  C   UNL     1      44.804   3.109   9.719  0.00  0.00    +0.000 A 
ATOM      5  C   UNL     1      45.014   4.385   9.173  0.00  0.00    +0.000 A 
ATOM      6  C   UNL     1      45.832   4.547   8.057  0.00  0.00    +0.000 A 
ATOM      7  C   UNL     1      46.457   3.439   7.483  0.00  0.00    +0.000 A 
ATOM      8  C   UNL     1      46.264   2.154   8.011  0.00  0.00    +0.000 A 
ATOM      9  C   UNL     1      45.425   1.995   9.122  0.00  0.00    +0.000 A 
BRANCH   8  10
ATOM     10  C   UNL     1      47.003   1.024   7.376  0.00  0.00    +0.000 C 
ATOM     11  N   UNL     1      46.681  -0.256   7.728  0.00  0.00    +0.000 N 
ATOM     12  O   UNL     1      47.896   1.225   6.560  0.00  0.00    +0.000 OA
ATOM     13  H   UNL     1      45.949  -0.529   8.363  0.00  0.00    +0.000 HD
ATOM     14  H   UNL     1      47.212  -0.994   7.281  0.00  0.00    +0.000 HD
ENDBRANCH   8  10
ENDBRANCH   1   4
BRANCH   1  15
ATOM     15  C   UNL     1      44.894   2.992  12.209  0.00  0.00    +0.000 C 
BRANCH  15  16
ATOM     16  O   UNL     1      44.604   4.140  13.014  0.00  0.00    +0.000 OA
BRANCH  16  21
ATOM     17  C   UNL     1      45.530   7.564  12.196  0.00  0.00    +0.000 A 
ATOM     18  C   UNL     1      46.902   7.571  12.484  0.00  0.00    +0.000 A 
ATOM     19  C   UNL     1      47.534   6.419  12.947  0.00  0.00    +0.000 A 
ATOM     20  C   UNL     1      46.803   5.245  13.136  0.00  0.00    +0.000 A 
ATOM     21  C   UNL     1      45.435   5.218  12.862  0.00  0.00    +0.000 A 
ATOM     22  C   UNL     1      44.808   6.376  12.391  0.00  0.00    +0.000 A 
BRANCH  17  23
ATOM     23  C   UNL     1      44.839   8.814  11.716  0.00  0.00    +0.000 C 
BRANCH  23  24
ATOM     24  N   UNL     1      43.639   8.503  10.946  0.00  0.00    +0.000 NA
ATOM     25  H   UNL     1      43.560   9.163  10.175  0.00  0.00    +0.000 HD
ATOM     26  H   UNL     1      42.824   8.655  11.539  0.00  0.00    +0.000 HD
ENDBRANCH  23  24
ENDBRANCH  17  23
ENDBRANCH  16  21
ENDBRANCH  15  16
ENDBRANCH   1  15
TORSDOF 7
ENDMDL
MODEL 4
REMARK VINA RESULT:    -7.826      2.576      3.518
REMARK INTER + INTRA:         -11.844
REMARK INTER:                 -11.036
REMARK INTRA:                  -0.808
REMARK UNBOUND:                -1.044
REMARK  Name = 
REMARK  7 active torsions:
REMARK  status: ('A' for Active; 'I' for Inactive)
REMARK    1  A    between atoms: N_1  and  C_2
REMARK    2  A    between atoms: C_2  and  C_3
REMARK    3  A    between atoms: C_7  and  O_8
REMARK    4  A    between atoms: O_8  and  C_9
REMARK    5  A    between atoms: C_9  and  C_10
REMARK    6  A    between atoms: C_10  and  C_13
REMARK    7  A    between atoms: C_17  and  C_18
REMARK                            x       y       z     vdW  Elec       q    Type
REMARK                         _______ _______ _______ _____ _____    ______ ____
ROOT
ATOM      1  C   UNL     1      43.387   5.610  11.742  0.00  0.00    +0.000 C 
ATOM      2  F   UNL     1      42.992   6.701  11.019  0.00  0.00    +0.000 F 
ATOM      3  F   UNL     1      42.495   5.505  12.769  0.00  0.00    +0.000 F 
ENDROOT
BRANCH   1   4
ATOM      4  C   UNL     1      44.813   5.760  12.239  0.00  0.00    +0.000 A 
ATOM      5  C   UNL     1      45.629   6.796  11.762  0.00  0.00    +0.000 A 
ATOM      6  C   UNL     1      46.914   6.972  12.269  0.00  0.00    +0.000 A 
ATOM      7  C   UNL     1      47.393   6.121  13.267  0.00  0.00    +0.000 A 
ATOM      8  C   UNL     1      46.596   5.078  13.763  0.00  0.00    +0.000 A 
ATOM      9  C   UNL     1      45.311   4.895  13.234  0.00  0.00    +0.000 A 
BRANCH   8  10
ATOM     10  C   UNL     1      47.155   4.240  14.862  0.00  0.00    +0.000 C 
ATOM     11  N   UNL     1      47.264   4.779  16.114  0.00  0.00    +0.000 N 
ATOM     12  O   UNL     1      47.530   3.090  14.660  0.00  0.00    +0.000 OA
ATOM     13  H   UNL     1      46.962   5.698  16.389  0.00  0.00    +0.000 HD
ATOM     14  H   UNL     1      47.658   4.180  16.829  0.00  0.00    +0.000 HD
ENDBRANCH   8  10
ENDBRANCH   1   4
BRANCH   1  15
ATOM     15  C   UNL     1      43.284   4.359  10.852  0.00  0.00    +0.000 C 
BRANCH  15  16
ATOM     16  O   UNL     1      43.877   4.593   9.570  0.00  0.00    +0.000 OA
BRANCH  16  21
ATOM     17  C   UNL     1      46.351   3.012   7.419  0.00  0.00    +0.000 A 
ATOM     18  C   UNL     1      46.261   1.669   7.811  0.00  0.00    +0.000 A 
ATOM     19  C   UNL     1      45.358   1.278   8.797  0.00  0.00    +0.000 A 
ATOM     20  C   UNL     1      44.536   2.225   9.412  0.00  0.00    +0.000 A 
ATOM     21  C   UNL     1      44.615   3.568   9.042  0.00  0.00    +0.000 A 
ATOM     22  C   UNL     1      45.519   3.952   8.046  0.00  0.00    +0.000 A 
BRANCH  17  23
ATOM     23  C   UNL     1      47.342   3.442   6.369  0.00  0.00    +0.000 C 
BRANCH  23  24
ATOM     24  N   UNL     1      48.518   2.578   6.352  0.00  0.00    +0.000 NA
ATOM     25  H   UNL     1      49.144   2.856   7.105  0.00  0.00    +0.000 HD
ATOM     26  H   UNL     1      49.025   2.737   5.483  0.00  0.00    +0.000 HD
ENDBRANCH  23  24
ENDBRANCH  17  23
ENDBRANCH  16  21
ENDBRANCH  15  16
ENDBRANCH   1  15
TORSDOF 7
ENDMDL
MODEL 5
REMARK VINA RESULT:    -7.310      2.318      6.135
REMARK INTER + INTRA:         -11.131
REMARK INTER:                 -10.078
REMARK INTRA:                  -1.053
REMARK UNBOUND:                -1.044
REMARK  Name = 
REMARK  7 active torsions:
REMARK  status: ('A' for Active; 'I' for Inactive)
REMARK    1  A    between atoms: N_1  and  C_2
REMARK    2  A    between atoms: C_2  and  C_3
REMARK    3  A    between atoms: C_7  and  O_8
REMARK    4  A    between atoms: O_8  and  C_9
REMARK    5  A    between atoms: C_9  and  C_10
REMARK    6  A    between atoms: C_10  and  C_13
REMARK    7  A    between atoms: C_17  and  C_18
REMARK                            x       y       z     vdW  Elec       q    Type
REMARK                         _______ _______ _______ _____ _____    ______ ____
ROOT
ATOM      1  C   UNL     1      43.845   3.027  11.386  0.00  0.00    +0.000 C 
ATOM      2  F   UNL     1      43.341   1.779  11.623  0.00  0.00    +0.000 F 
ATOM      3  F   UNL     1      42.787   3.881  11.498  0.00  0.00    +0.000 F 
ENDROOT
BRANCH   1   4
ATOM      4  C   UNL     1      44.501   3.111  10.019  0.00  0.00    +0.000 A 
ATOM      5  C   UNL     1      44.415   4.287   9.260  0.00  0.00    +0.000 A 
ATOM      6  C   UNL     1      45.074   4.386   8.036  0.00  0.00    +0.000 A 
ATOM      7  C   UNL     1      45.834   3.314   7.565  0.00  0.00    +0.000 A 
ATOM      8  C   UNL     1      45.937   2.127   8.307  0.00  0.00    +0.000 A 
ATOM      9  C   UNL     1      45.256   2.028   9.527  0.00  0.00    +0.000 A 
BRANCH   8  10
ATOM     10  C   UNL     1      46.806   1.043   7.764  0.00  0.00    +0.000 C 
ATOM     11  N   UNL     1      47.904   1.384   7.025  0.00  0.00    +0.000 N 
ATOM     12  O   UNL     1      46.545  -0.140   7.956  0.00  0.00    +0.000 OA
ATOM     13  H   UNL     1      48.220   2.320   6.834  0.00  0.00    +0.000 HD
ATOM     14  H   UNL     1      48.461   0.618   6.667  0.00  0.00    +0.000 HD
ENDBRANCH   8  10
ENDBRANCH   1   4
BRANCH   1  15
ATOM     15  C   UNL     1      44.882   3.360  12.472  0.00  0.00    +0.000 C 
BRANCH  15  16
ATOM     16  O   UNL     1      44.531   4.563  13.163  0.00  0.00    +0.000 OA
BRANCH  16  21
ATOM     17  C   UNL     1      47.341   6.781  12.507  0.00  0.00    +0.000 A 
ATOM     18  C   UNL     1      46.702   7.913  11.985  0.00  0.00    +0.000 A 
ATOM     19  C   UNL     1      45.315   7.948  11.857  0.00  0.00    +0.000 A 
ATOM     20  C   UNL     1      44.547   6.848  12.244  0.00  0.00    +0.000 A 
ATOM     21  C   UNL     1      45.164   5.708  12.759  0.00  0.00    +0.000 A 
ATOM     22  C   UNL     1      46.556   5.683  12.891  0.00  0.00    +0.000 A 
BRANCH  17  23
ATOM     23  C   UNL     1      48.842   6.731  12.627  0.00  0.00    +0.000 C 
BRANCH  23  24
ATOM     24  N   UNL     1      49.268   6.590  14.015  0.00  0.00    +0.000 NA
ATOM     25  H   UNL     1      50.107   7.147  14.163  0.00  0.00    +0.000 HD
ATOM     26  H   UNL     1      49.535   5.620  14.176  0.00  0.00    +0.000 HD
ENDBRANCH  23  24
ENDBRANCH  17  23
ENDBRANCH  16  21
ENDBRANCH  15  16
ENDBRANCH   1  15
TORSDOF 7
ENDMDL
MODEL 6
REMARK VINA RESULT:    -7.006      2.334      2.888
REMARK INTER + INTRA:         -10.712
REMARK INTER:                  -9.987
REMARK INTRA:                  -0.726
REMARK UNBOUND:                -1.044
REMARK  Name = 
REMARK  7 active torsions:
REMARK  status: ('A' for Active; 'I' for Inactive)
REMARK    1  A    between atoms: N_1  and  C_2
REMARK    2  A    between atoms: C_2  and  C_3
REMARK    3  A    between atoms: C_7  and  O_8
REMARK    4  A    between atoms: O_8  and  C_9
REMARK    5  A    between atoms: C_9  and  C_10
REMARK    6  A    between atoms: C_10  and  C_13
REMARK    7  A    between atoms: C_17  and  C_18
REMARK                            x       y       z     vdW  Elec       q    Type
REMARK                         _______ _______ _______ _____ _____    ______ ____
ROOT
ATOM      1  C   UNL     1      44.264   4.991  11.102  0.00  0.00    +0.000 C 
ATOM      2  F   UNL     1      43.226   5.867  11.252  0.00  0.00    +0.000 F 
ATOM      3  F   UNL     1      43.732   3.750  11.297  0.00  0.00    +0.000 F 
ENDROOT
BRANCH   1   4
ATOM      4  C   UNL     1      45.388   5.288  12.079  0.00  0.00    +0.000 A 
ATOM      5  C   UNL     1      45.512   4.550  13.266  0.00  0.00    +0.000 A 
ATOM      6  C   UNL     1      46.582   4.779  14.129  0.00  0.00    +0.000 A 
ATOM      7  C   UNL     1      47.543   5.738  13.808  0.00  0.00    +0.000 A 
ATOM      8  C   UNL     1      47.442   6.488  12.627  0.00  0.00    +0.000 A 
ATOM      9  C   UNL     1      46.353   6.266  11.774  0.00  0.00    +0.000 A 
BRANCH   8  10
ATOM     10  C   UNL     1      48.532   7.461  12.327  0.00  0.00    +0.000 C 
ATOM     11  N   UNL     1      49.832   7.053  12.441  0.00  0.00    +0.000 N 
ATOM     12  O   UNL     1      48.284   8.616  11.997  0.00  0.00    +0.000 OA
ATOM     13  H   UNL     1      50.141   6.125  12.677  0.00  0.00    +0.000 HD
ATOM     14  H   UNL     1      50.541   7.747  12.239  0.00  0.00    +0.000 HD
ENDBRANCH   8  10
ENDBRANCH   1   4
BRANCH   1  15
ATOM     15  C   UNL     1      44.799   5.092   9.663  0.00  0.00    +0.000 C 
BRANCH  15  16
ATOM     16  O   UNL     1      44.192   4.106   8.821  0.00  0.00    +0.000 OA
BRANCH  16  21
ATOM     17  C   UNL     1      46.623   2.497   6.641  0.00  0.00    +0.000 A 
ATOM     18  C   UNL     1      46.768   1.241   7.244  0.00  0.00    +0.000 A 
ATOM     19  C   UNL     1      46.040   0.916   8.387  0.00  0.00    +0.000 A 
ATOM     20  C   UNL     1      45.162   1.845   8.948  0.00  0.00    +0.000 A 
ATOM     21  C   UNL     1      45.008   3.104   8.368  0.00  0.00    +0.000 A 
ATOM     22  C   UNL     1      45.736   3.421   7.216  0.00  0.00    +0.000 A 
BRANCH  17  23
ATOM     23  C   UNL     1      47.424   2.860   5.417  0.00  0.00    +0.000 C 
BRANCH  23  24
ATOM     24  N   UNL     1      48.535   1.937   5.209  0.00  0.00    +0.000 NA
ATOM     25  H   UNL     1      48.428   1.142   5.835  0.00  0.00    +0.000 HD
ATOM     26  H   UNL     1      49.399   2.403   5.481  0.00  0.00    +0.000 HD
ENDBRANCH  23  24
ENDBRANCH  17  23
ENDBRANCH  16  21
ENDBRANCH  15  16
ENDBRANCH   1  15
TORSDOF 7
ENDMDL
MODEL 7
REMARK VINA RESULT:    -6.708      2.512      3.188
REMARK INTER + INTRA:         -10.301
REMARK INTER:                  -9.644
REMARK INTRA:                  -0.657
REMARK UNBOUND:                -1.044
REMARK  Name = 
REMARK  7 active torsions:
REMARK  status: ('A' for Active; 'I' for Inactive)
REMARK    1  A    between atoms: N_1  and  C_2
REMARK    2  A    between atoms: C_2  and  C_3
REMARK    3  A    between atoms: C_7  and  O_8
REMARK    4  A    between atoms: O_8  and  C_9
REMARK    5  A    between atoms: C_9  and  C_10
REMARK    6  A    between atoms: C_10  and  C_13
REMARK    7  A    between atoms: C_17  and  C_18
REMARK                            x       y       z     vdW  Elec       q    Type
REMARK                         _______ _______ _______ _____ _____    ______ ____
ROOT
ATOM      1  C   UNL     1      45.176   5.416  11.251  0.00  0.00    +0.000 C 
ATOM      2  F   UNL     1      43.827   5.402  11.469  0.00  0.00    +0.000 F 
ATOM      3  F   UNL     1      45.659   4.290  11.851  0.00  0.00    +0.000 F 
ENDROOT
BRANCH   1   4
ATOM      4  C   UNL     1      45.816   6.676  11.806  0.00  0.00    +0.000 A 
ATOM      5  C   UNL     1      45.019   7.732  12.272  0.00  0.00    +0.000 A 
ATOM      6  C   UNL     1      45.607   8.859  12.844  0.00  0.00    +0.000 A 
ATOM      7  C   UNL     1      46.996   8.935  12.965  0.00  0.00    +0.000 A 
ATOM      8  C   UNL     1      47.814   7.891  12.509  0.00  0.00    +0.000 A 
ATOM      9  C   UNL     1      47.216   6.770  11.917  0.00  0.00    +0.000 A 
BRANCH   8  10
ATOM     10  C   UNL     1      49.285   8.021  12.716  0.00  0.00    +0.000 C 
ATOM     11  N   UNL     1      50.112   7.062  12.200  0.00  0.00    +0.000 N 
ATOM     12  O   UNL     1      49.760   8.958  13.348  0.00  0.00    +0.000 OA
ATOM     13  H   UNL     1      49.827   6.272  11.646  0.00  0.00    +0.000 HD
ATOM     14  H   UNL     1      51.102   7.182  12.372  0.00  0.00    +0.000 HD
ENDBRANCH   8  10
ENDBRANCH   1   4
BRANCH   1  15
ATOM     15  C   UNL     1      45.437   5.334   9.737  0.00  0.00    +0.000 C 
BRANCH  15  16
ATOM     16  O   UNL     1      44.595   4.352   9.124  0.00  0.00    +0.000 OA
BRANCH  16  21
ATOM     17  C   UNL     1      46.608   2.539   6.694  0.00  0.00    +0.000 A 
ATOM     18  C   UNL     1      46.609   1.243   7.227  0.00  0.00    +0.000 A 
ATOM     19  C   UNL     1      45.922   0.961   8.406  0.00  0.00    +0.000 A 
ATOM     20  C   UNL     1      45.230   1.973   9.074  0.00  0.00    +0.000 A 
ATOM     21  C   UNL     1      45.222   3.272   8.565  0.00  0.00    +0.000 A 
ATOM     22  C   UNL     1      45.908   3.546   7.377  0.00  0.00    +0.000 A 
BRANCH  17  23
ATOM     23  C   UNL     1      47.367   2.852   5.431  0.00  0.00    +0.000 C 
BRANCH  23  24
ATOM     24  N   UNL     1      48.445   1.896   5.200  0.00  0.00    +0.000 NA
ATOM     25  H   UNL     1      48.353   1.514   4.260  0.00  0.00    +0.000 HD
ATOM     26  H   UNL     1      48.327   1.112   5.840  0.00  0.00    +0.000 HD
ENDBRANCH  23  24
ENDBRANCH  17  23
ENDBRANCH  16  21
ENDBRANCH  15  16
ENDBRANCH   1  15
TORSDOF 7
ENDMDL
MODEL 8
REMARK VINA RESULT:    -6.563      2.014      2.839
REMARK INTER + INTRA:         -10.100
REMARK INTER:                  -9.477
REMARK INTRA:                  -0.623
REMARK UNBOUND:                -1.044
REMARK  Name = 
REMARK  7 active torsions:
REMARK  status: ('A' for Active; 'I' for Inactive)
REMARK    1  A    between atoms: N_1  and  C_2
REMARK    2  A    between atoms: C_2  and  C_3
REMARK    3  A    between atoms: C_7  and  O_8
REMARK    4  A    between atoms: O_8  and  C_9
REMARK    5  A    between atoms: C_9  and  C_10
REMARK    6  A    between atoms: C_10  and  C_13
REMARK    7  A    between atoms: C_17  and  C_18
REMARK                            x       y       z     vdW  Elec       q    Type
REMARK                         _______ _______ _______ _____ _____    ______ ____
ROOT
ATOM      1  C   UNL     1      45.727   6.363  11.788  0.00  0.00    +0.000 C 
ATOM      2  F   UNL     1      45.720   5.892  13.070  0.00  0.00    +0.000 F 
ATOM      3  F   UNL     1      46.995   6.162  11.327  0.00  0.00    +0.000 F 
ENDROOT
BRANCH   1   4
ATOM      4  C   UNL     1      45.327   7.827  11.731  0.00  0.00    +0.000 A 
ATOM      5  C   UNL     1      46.229   8.826  12.125  0.00  0.00    +0.000 A 
ATOM      6  C   UNL     1      45.885  10.171  12.009  0.00  0.00    +0.000 A 
ATOM      7  C   UNL     1      44.641  10.530  11.487  0.00  0.00    +0.000 A 
ATOM      8  C   UNL     1      43.722   9.549  11.085  0.00  0.00    +0.000 A 
ATOM      9  C   UNL     1      44.068   8.198  11.223  0.00  0.00    +0.000 A 
BRANCH   8  10
ATOM     10  C   UNL     1      42.432  10.008  10.493  0.00  0.00    +0.000 C 
ATOM     11  N   UNL     1      41.261   9.614  11.076  0.00  0.00    +0.000 N 
ATOM     12  O   UNL     1      42.405  10.714   9.491  0.00  0.00    +0.000 OA
ATOM     13  H   UNL     1      41.173   9.060  11.912  0.00  0.00    +0.000 HD
ATOM     14  H   UNL     1      40.408   9.938  10.637  0.00  0.00    +0.000 HD
ENDBRANCH   8  10
ENDBRANCH   1   4
BRANCH   1  15
ATOM     15  C   UNL     1      44.744   5.532  10.946  0.00  0.00    +0.000 C 
BRANCH  15  16
ATOM     16  O   UNL     1      45.195   5.425   9.591  0.00  0.00    +0.000 OA
BRANCH  16  21
ATOM     17  C   UNL     1      46.465   2.852   7.352  0.00  0.00    +0.000 A 
ATOM     18  C   UNL     1      45.942   1.685   7.924  0.00  0.00    +0.000 A 
ATOM     19  C   UNL     1      45.145   1.751   9.066  0.00  0.00    +0.000 A 
ATOM     20  C   UNL     1      44.866   2.985   9.656  0.00  0.00    +0.000 A 
ATOM     21  C   UNL     1      45.383   4.158   9.106  0.00  0.00    +0.000 A 
ATOM     22  C   UNL     1      46.176   4.085   7.956  0.00  0.00    +0.000 A 
BRANCH  17  23
ATOM     23  C   UNL     1      47.344   2.782   6.131  0.00  0.00    +0.000 C 
BRANCH  23  24
ATOM     24  N   UNL     1      48.418   1.808   6.295  0.00  0.00    +0.000 NA
ATOM     25  H   UNL     1      48.283   1.051   5.627  0.00  0.00    +0.000 HD
ATOM     26  H   UNL     1      48.339   1.391   7.221  0.00  0.00    +0.000 HD
ENDBRANCH  23  24
ENDBRANCH  17  23
ENDBRANCH  16  21
ENDBRANCH  15  16
ENDBRANCH   1  15
TORSDOF 7
ENDMDL
MODEL 9
REMARK VINA RESULT:    -6.509      5.837      7.428
REMARK INTER + INTRA:         -10.026
REMARK INTER:                  -9.491
REMARK INTRA:                  -0.535
REMARK UNBOUND:                -1.044
REMARK  Name = 
REMARK  7 active torsions:
REMARK  status: ('A' for Active; 'I' for Inactive)
REMARK    1  A    between atoms: N_1  and  C_2
REMARK    2  A    between atoms: C_2  and  C_3
REMARK    3  A    between atoms: C_7  and  O_8
REMARK    4  A    between atoms: O_8  and  C_9
REMARK    5  A    between atoms: C_9  and  C_10
REMARK    6  A    between atoms: C_10  and  C_13
REMARK    7  A    between atoms: C_17  and  C_18
REMARK                            x       y       z     vdW  Elec       q    Type
REMARK                         _______ _______ _______ _____ _____    ______ ____
ROOT
ATOM      1  C   UNL     1      47.644   3.866  17.034  0.00  0.00    +0.000 C 
ATOM      2  F   UNL     1      47.002   4.463  18.082  0.00  0.00    +0.000 F 
ATOM      3  F   UNL     1      47.144   2.599  16.968  0.00  0.00    +0.000 F 
ENDROOT
BRANCH   1   4
ATOM      4  C   UNL     1      49.150   3.874  17.227  0.00  0.00    +0.000 A 
ATOM      5  C   UNL     1      49.834   5.081  17.437  0.00  0.00    +0.000 A 
ATOM      6  C   UNL     1      51.206   5.080  17.681  0.00  0.00    +0.000 A 
ATOM      7  C   UNL     1      51.905   3.872  17.729  0.00  0.00    +0.000 A 
ATOM      8  C   UNL     1      51.243   2.652  17.523  0.00  0.00    +0.000 A 
ATOM      9  C   UNL     1      49.867   2.663  17.259  0.00  0.00    +0.000 A 
BRANCH   8  10
ATOM     10  C   UNL     1      52.045   1.400  17.637  0.00  0.00    +0.000 C 
ATOM     11  N   UNL     1      51.439   0.266  18.100  0.00  0.00    +0.000 N 
ATOM     12  O   UNL     1      53.235   1.375  17.338  0.00  0.00    +0.000 OA
ATOM     13  H   UNL     1      50.467   0.174  18.344  0.00  0.00    +0.000 HD
ATOM     14  H   UNL     1      52.020  -0.559  18.171  0.00  0.00    +0.000 HD
ENDBRANCH   8  10
ENDBRANCH   1   4
BRANCH   1  15
ATOM     15  C   UNL     1      47.290   4.618  15.740  0.00  0.00    +0.000 C 
BRANCH  15  16
ATOM     16  O   UNL     1      46.992   3.701  14.681  0.00  0.00    +0.000 OA
BRANCH  16  21
ATOM     17  C   UNL     1      45.050   3.795  11.604  0.00  0.00    +0.000 A 
ATOM     18  C   UNL     1      45.284   5.100  11.152  0.00  0.00    +0.000 A 
ATOM     19  C   UNL     1      46.108   5.962  11.873  0.00  0.00    +0.000 A 
ATOM     20  C   UNL     1      46.705   5.534  13.060  0.00  0.00    +0.000 A 
ATOM     21  C   UNL     1      46.479   4.240  13.532  0.00  0.00    +0.000 A 
ATOM     22  C   UNL     1      45.656   3.378  12.799  0.00  0.00    +0.000 A 
BRANCH  17  23
ATOM     23  C   UNL     1      44.142   2.867  10.839  0.00  0.00    +0.000 C 
BRANCH  23  24
ATOM     24  N   UNL     1      43.075   2.340  11.683  0.00  0.00    +0.000 NA
ATOM     25  H   UNL     1      43.477   1.696  12.361  0.00  0.00    +0.000 HD
ATOM     26  H   UNL     1      42.444   1.790  11.103  0.00  0.00    +0.000 HD
ENDBRANCH  23  24
ENDBRANCH  17  23
ENDBRANCH  16  21
ENDBRANCH  15  16
ENDBRANCH   1  15
TORSDOF 7
ENDMDL
