MODEL 1
REMARK VINA RESULT:    -7.552      0.000      0.000
REMARK INTER + INTRA:          -9.700
REMARK INTER:                  -9.318
REMARK INTRA:                  -0.381
REMARK UNBOUND:                -0.381
REMARK  Name = 
REMARK  6 active torsions:
REMARK  status: ('A' for Active; 'I' for Inactive)
REMARK    1  A    between atoms: C_1  and  C_2
REMARK    2  A    between atoms: C_5  and  C_6
REMARK    3  A    between atoms: C_10  and  N_11
REMARK    4  A    between atoms: N_11  and  C_12
REMARK    5  A    between atoms: C_12  and  C_13
REMARK    6  A    between atoms: C_12  and  C_14
REMARK                            x       y       z     vdW  Elec       q    Type
REMARK                         _______ _______ _______ _____ _____    ______ ____
ROOT
ATOM      1  C   UNL     1      42.634   5.517  11.021  0.00  0.00    +0.000 C 
ATOM      2  C   UNL     1      43.870   5.125  11.780  0.00  0.00    +0.000 A 
ATOM      3  C   UNL     1      44.131   5.807  12.976  0.00  0.00    +0.000 A 
ATOM      4  N   UNL     1      45.151   5.541  13.817  0.00  0.00    +0.000 NA
ATOM      5  C   UNL     1      45.952   4.513  13.446  0.00  0.00    +0.000 A 
ATOM      6  C   UNL     1      45.803   3.796  12.268  0.00  0.00    +0.000 A 
ATOM      7  C   UNL     1      44.777   4.123  11.373  0.00  0.00    +0.000 A 
ENDROOT
BRANCH   5   8
ATOM      8  C   UNL     1      47.052   4.152  14.391  0.00  0.00    +0.000 C 
ATOM      9  N   UNL     1      47.488   5.176  15.189  0.00  0.00    +0.000 N 
ATOM     10  O   UNL     1      47.529   3.029  14.473  0.00  0.00    +0.000 OA
ATOM     11  H   UNL     1      47.046   6.100  15.102  0.00  0.00    +0.000 HD
ATOM     12  H   UNL     1      48.209   5.019  15.873  0.00  0.00    +0.000 HD
ENDBRANCH   5   8
BRANCH   7  13
ATOM     13  N   UNL     1      44.613   3.393  10.184  0.00  0.00    +0.000 N 
ATOM     14  H   UNL     1      43.735   2.890  10.127  0.00  0.00    +0.000 HD
BRANCH  13  15
ATOM     15  C   UNL     1      45.013   3.991   8.887  0.00  0.00    +0.000 C 
ATOM     16  C   UNL     1      45.818   5.271   9.143  0.00  0.00    +0.000 C 
BRANCH  15  17
ATOM     17  C   UNL     1      45.813   3.012   8.037  0.00  0.00    +0.000 A 
ATOM     18  C   UNL     1      46.445   3.430   6.853  0.00  0.00    +0.000 A 
ATOM     19  C   UNL     1      47.210   2.537   6.095  0.00  0.00    +0.000 A 
ATOM     20  C   UNL     1      47.352   1.213   6.506  0.00  0.00    +0.000 A 
ATOM     21  C   UNL     1      46.741   0.784   7.680  0.00  0.00    +0.000 A 
ATOM     22  C   UNL     1      45.980   1.675   8.439  0.00  0.00    +0.000 A 
ENDBRANCH  15  17
ENDBRANCH  13  15
ENDBRANCH   7  13
TORSDOF 4
ENDMDL
MODEL 2
REMARK VINA RESULT:    -7.322      1.821      3.203
REMARK INTER + INTRA:          -9.416
REMARK INTER:                  -8.675
REMARK INTRA:                  -0.741
REMARK UNBOUND:                -0.381
REMARK  Name = 
REMARK  6 active torsions:
REMARK  status: ('A' for Active; 'I' for Inactive)
REMARK    1  A    between atoms: C_1  and  C_2
REMARK    2  A    between atoms: C_5  and  C_6
REMARK    3  A    between atoms: C_10  and  N_11
REMARK    4  A    between atoms: N_11  and  C_12
REMARK    5  A    between atoms: C_12  and  C_13
REMARK    6  A    between atoms: C_12  and  C_14
REMARK                            x       y       z     vdW  Elec       q    Type
REMARK                         _______ _______ _______ _____ _____    ______ ____
ROOT
ATOM      1  C   UNL     1      47.235   8.554  12.111  0.00  0.00    +0.000 C 
ATOM      2  C   UNL     1      47.216   7.251  12.860  0.00  0.00    +0.000 A 
ATOM      3  C   UNL     1      48.173   7.076  13.867  0.00  0.00    +0.000 A 
ATOM      4  N   UNL     1      48.259   6.006  14.682  0.00  0.00    +0.000 NA
ATOM      5  C   UNL     1      47.313   5.056  14.488  0.00  0.00    +0.000 A 
ATOM      6  C   UNL     1      46.342   5.114  13.499  0.00  0.00    +0.000 A 
ATOM      7  C   UNL     1      46.302   6.202  12.619  0.00  0.00    +0.000 A 
ENDROOT
BRANCH   5   8
ATOM      8  C   UNL     1      47.342   3.888  15.421  0.00  0.00    +0.000 C 
ATOM      9  N   UNL     1      46.797   4.121  16.656  0.00  0.00    +0.000 N 
ATOM     10  O   UNL     1      47.800   2.795  15.119  0.00  0.00    +0.000 OA
ATOM     11  H   UNL     1      46.405   5.048  16.861  0.00  0.00    +0.000 HD
ATOM     12  H   UNL     1      46.751   3.386  17.340  0.00  0.00    +0.000 HD
ENDBRANCH   5   8
BRANCH   7  13
ATOM     13  N   UNL     1      45.314   6.273  11.623  0.00  0.00    +0.000 N 
ATOM     14  H   UNL     1      45.630   6.701  10.760  0.00  0.00    +0.000 HD
BRANCH  13  15
ATOM     15  C   UNL     1      44.412   5.119  11.391  0.00  0.00    +0.000 C 
ATOM     16  C   UNL     1      42.981   5.626  11.178  0.00  0.00    +0.000 C 
BRANCH  15  17
ATOM     17  C   UNL     1      44.867   4.275  10.207  0.00  0.00    +0.000 A 
ATOM     18  C   UNL     1      44.587   2.899  10.147  0.00  0.00    +0.000 A 
ATOM     19  C   UNL     1      44.973   2.136   9.041  0.00  0.00    +0.000 A 
ATOM     20  C   UNL     1      45.648   2.735   7.979  0.00  0.00    +0.000 A 
ATOM     21  C   UNL     1      45.925   4.097   8.016  0.00  0.00    +0.000 A 
ATOM     22  C   UNL     1      45.537   4.861   9.118  0.00  0.00    +0.000 A 
ENDBRANCH  15  17
ENDBRANCH  13  15
ENDBRANCH   7  13
TORSDOF 4
ENDMDL
MODEL 3
REMARK VINA RESULT:    -7.092      2.203      2.593
REMARK INTER + INTRA:          -9.132
REMARK INTER:                  -8.354
REMARK INTRA:                  -0.778
REMARK UNBOUND:                -0.381
REMARK  Name = 
REMARK  6 active torsions:
REMARK  status: ('A' for Active; 'I' for Inactive)
REMARK    1  A    between atoms: C_1  and  C_2
REMARK    2  A    between atoms: C_5  and  C_6
REMARK    3  A    between atoms: C_10  and  N_11
REMARK    4  A    between atoms: N_11  and  C_12
REMARK    5  A    between atoms: C_12  and  C_13
REMARK    6  A    between atoms: C_12  and  C_14
REMARK                            x       y       z     vdW  Elec       q    Type
REMARK                         _______ _______ _______ _____ _____    ______ ____
ROOT
ATOM      1  C   UNL     1      42.654   5.396  11.596  0.00  0.00    +0.000 C 
ATOM      2  C   UNL     1      44.069   5.902  11.570  0.00  0.00    +0.000 A 
ATOM      3  C   UNL     1      44.446   6.804  12.574  0.00  0.00    +0.000 A 
ATOM      4  N   UNL     1      45.686   7.304  12.745  0.00  0.00    +0.000 NA
ATOM      5  C   UNL     1      46.615   6.858  11.865  0.00  0.00    +0.000 A 
ATOM      6  C   UNL     1      46.342   5.992  10.817  0.00  0.00    +0.000 A 
ATOM      7  C   UNL     1      45.037   5.529  10.612  0.00  0.00    +0.000 A 
ENDROOT
BRANCH   5   8
ATOM      8  C   UNL     1      48.014   7.343  12.072  0.00  0.00    +0.000 C 
ATOM      9  N   UNL     1      48.743   6.633  12.988  0.00  0.00    +0.000 N 
ATOM     10  O   UNL     1      48.495   8.290  11.466  0.00  0.00    +0.000 OA
ATOM     11  H   UNL     1      48.306   5.831  13.460  0.00  0.00    +0.000 HD
ATOM     12  H   UNL     1      49.701   6.873  13.174  0.00  0.00    +0.000 HD
ENDBRANCH   5   8
BRANCH   7  13
ATOM     13  N   UNL     1      44.754   4.642   9.559  0.00  0.00    +0.000 N 
ATOM     14  H   UNL     1      44.842   5.056   8.638  0.00  0.00    +0.000 HD
BRANCH  13  15
ATOM     15  C   UNL     1      45.259   3.249   9.610  0.00  0.00    +0.000 C 
ATOM     16  C   UNL     1      44.091   2.293   9.880  0.00  0.00    +0.000 C 
BRANCH  15  17
ATOM     17  C   UNL     1      45.983   2.864   8.325  0.00  0.00    +0.000 A 
ATOM     18  C   UNL     1      46.395   1.540   8.094  0.00  0.00    +0.000 A 
ATOM     19  C   UNL     1      47.025   1.183   6.898  0.00  0.00    +0.000 A 
ATOM     20  C   UNL     1      47.257   2.144   5.915  0.00  0.00    +0.000 A 
ATOM     21  C   UNL     1      46.848   3.458   6.122  0.00  0.00    +0.000 A 
ATOM     22  C   UNL     1      46.216   3.814   7.315  0.00  0.00    +0.000 A 
ENDBRANCH  15  17
ENDBRANCH  13  15
ENDBRANCH   7  13
TORSDOF 4
ENDMDL
MODEL 4
REMARK VINA RESULT:    -7.016      2.405      2.917
REMARK INTER + INTRA:          -9.038
REMARK INTER:                  -8.319
REMARK INTRA:                  -0.719
REMARK UNBOUND:                -0.381
REMARK  Name = 
REMARK  6 active torsions:
REMARK  status: ('A' for Active; 'I' for Inactive)
REMARK    1  A    between atoms: C_1  and  C_2
REMARK    2  A    between atoms: C_5  and  C_6
REMARK    3  A    between atoms: C_10  and  N_11
REMARK    4  A    between atoms: N_11  and  C_12
REMARK    5  A    between atoms: C_12  and  C_13
REMARK    6  A    between atoms: C_12  and  C_14
REMARK                            x       y       z     vdW  Elec       q    Type
REMARK                         _______ _______ _______ _____ _____    ______ ____
ROOT
ATOM      1  C   UNL     1      44.149   9.238  11.045  0.00  0.00    +0.000 C 
ATOM      2  C   UNL     1      45.186   8.414  11.755  0.00  0.00    +0.000 A 
ATOM      3  C   UNL     1      46.095   9.095  12.575  0.00  0.00    +0.000 A 
ATOM      4  N   UNL     1      47.042   8.513  13.337  0.00  0.00    +0.000 NA
ATOM      5  C   UNL     1      47.071   7.160  13.289  0.00  0.00    +0.000 A 
ATOM      6  C   UNL     1      46.241   6.391  12.487  0.00  0.00    +0.000 A 
ATOM      7  C   UNL     1      45.303   7.010  11.653  0.00  0.00    +0.000 A 
ENDROOT
BRANCH   5   8
ATOM      8  C   UNL     1      48.068   6.484  14.175  0.00  0.00    +0.000 C 
ATOM      9  N   UNL     1      47.537   5.589  15.065  0.00  0.00    +0.000 N 
ATOM     10  O   UNL     1      49.272   6.689  14.114  0.00  0.00    +0.000 OA
ATOM     11  H   UNL     1      46.521   5.432  15.069  0.00  0.00    +0.000 HD
ATOM     12  H   UNL     1      48.135   5.070  15.685  0.00  0.00    +0.000 HD
ENDBRANCH   5   8
BRANCH   7  13
ATOM     13  N   UNL     1      44.450   6.238  10.846  0.00  0.00    +0.000 N 
ATOM     14  H   UNL     1      44.465   6.496   9.866  0.00  0.00    +0.000 HD
BRANCH  13  15
ATOM     15  C   UNL     1      44.367   4.771  11.050  0.00  0.00    +0.000 C 
ATOM     16  C   UNL     1      42.907   4.372  11.293  0.00  0.00    +0.000 C 
BRANCH  15  17
ATOM     17  C   UNL     1      44.946   4.004   9.867  0.00  0.00    +0.000 A 
ATOM     18  C   UNL     1      45.607   4.673   8.823  0.00  0.00    +0.000 A 
ATOM     19  C   UNL     1      46.170   3.962   7.758  0.00  0.00    +0.000 A 
ATOM     20  C   UNL     1      46.078   2.572   7.718  0.00  0.00    +0.000 A 
ATOM     21  C   UNL     1      45.436   1.892   8.748  0.00  0.00    +0.000 A 
ATOM     22  C   UNL     1      44.876   2.601   9.813  0.00  0.00    +0.000 A 
ENDBRANCH  15  17
ENDBRANCH  13  15
ENDBRANCH   7  13
TORSDOF 4
ENDMDL
MODEL 5
REMARK VINA RESULT:    -6.758      2.882      5.913
REMARK INTER + INTRA:          -8.719
REMARK INTER:                  -7.921
REMARK INTRA:                  -0.798
REMARK UNBOUND:                -0.381
REMARK  Name = 
REMARK  6 active torsions:
REMARK  status: ('A' for Active; 'I' for Inactive)
REMARK    1  A    between atoms: C_1  and  C_2
REMARK    2  A    between atoms: C_5  and  C_6
REMARK    3  A    between atoms: C_10  and  N_11
REMARK    4  A    between atoms: N_11  and  C_12
REMARK    5  A    between atoms: C_12  and  C_13
REMARK    6  A    between atoms: C_12  and  C_14
REMARK                            x       y       z     vdW  Elec       q    Type
REMARK                         _______ _______ _______ _____ _____    ______ ____
ROOT
ATOM      1  C   UNL     1      43.254   2.815  11.449  0.00  0.00    +0.000 C 
ATOM      2  C   UNL     1      44.229   3.065  10.333  0.00  0.00    +0.000 A 
ATOM      3  C   UNL     1      44.744   1.944   9.669  0.00  0.00    +0.000 A 
ATOM      4  N   UNL     1      45.572   1.982   8.606  0.00  0.00    +0.000 NA
ATOM      5  C   UNL     1      45.891   3.223   8.166  0.00  0.00    +0.000 A 
ATOM      6  C   UNL     1      45.463   4.396   8.770  0.00  0.00    +0.000 A 
ATOM      7  C   UNL     1      44.654   4.343   9.911  0.00  0.00    +0.000 A 
ENDROOT
BRANCH   5   8
ATOM      8  C   UNL     1      46.753   3.296   6.948  0.00  0.00    +0.000 C 
ATOM      9  N   UNL     1      47.579   2.219   6.759  0.00  0.00    +0.000 N 
ATOM     10  O   UNL     1      46.727   4.229   6.158  0.00  0.00    +0.000 OA
ATOM     11  H   UNL     1      47.555   1.447   7.436  0.00  0.00    +0.000 HD
ATOM     12  H   UNL     1      48.178   2.171   5.952  0.00  0.00    +0.000 HD
ENDBRANCH   5   8
BRANCH   7  13
ATOM     13  N   UNL     1      44.208   5.527  10.521  0.00  0.00    +0.000 N 
ATOM     14  H   UNL     1      43.478   5.386  11.210  0.00  0.00    +0.000 HD
BRANCH  13  15
ATOM     15  C   UNL     1      45.187   6.563  10.932  0.00  0.00    +0.000 C 
ATOM     16  C   UNL     1      44.444   7.856  11.287  0.00  0.00    +0.000 C 
BRANCH  15  17
ATOM     17  C   UNL     1      46.045   6.096  12.101  0.00  0.00    +0.000 A 
ATOM     18  C   UNL     1      47.352   6.582  12.281  0.00  0.00    +0.000 A 
ATOM     19  C   UNL     1      48.122   6.181  13.377  0.00  0.00    +0.000 A 
ATOM     20  C   UNL     1      47.601   5.284  14.308  0.00  0.00    +0.000 A 
ATOM     21  C   UNL     1      46.306   4.799  14.152  0.00  0.00    +0.000 A 
ATOM     22  C   UNL     1      45.535   5.202  13.060  0.00  0.00    +0.000 A 
ENDBRANCH  15  17
ENDBRANCH  13  15
ENDBRANCH   7  13
TORSDOF 4
ENDMDL
MODEL 6
REMARK VINA RESULT:    -6.596      2.545      4.071
REMARK INTER + INTRA:          -8.520
REMARK INTER:                  -8.369
REMARK INTRA:                  -0.151
REMARK UNBOUND:                -0.381
REMARK  Name = 
REMARK  6 active torsions:
REMARK  status: ('A' for Active; 'I' for Inactive)
REMARK    1  A    between atoms: C_1  and  C_2
REMARK    2  A    between atoms: C_5  and  C_6
REMARK    3  A    between atoms: C_10  and  N_11
REMARK    4  A    between atoms: N_11  and  C_12
REMARK    5  A    between atoms: C_12  and  C_13
REMARK    6  A    between atoms: C_12  and  C_14
REMARK                            x       y       z     vdW  Elec       q    Type
REMARK                         _______ _______ _______ _____ _____    ______ ____
ROOT
ATOM      1  C   UNL     1      46.812   3.591  13.537  0.00  0.00    +0.000 C 
ATOM      2  C   UNL     1      46.439   5.032  13.331  0.00  0.00    +0.000 A 
ATOM      3  C   UNL     1      47.467   5.979  13.417  0.00  0.00    +0.000 A 
ATOM      4  N   UNL     1      47.328   7.301  13.193  0.00  0.00    +0.000 NA
ATOM      5  C   UNL     1      46.081   7.699  12.842  0.00  0.00    +0.000 A 
ATOM      6  C   UNL     1      44.987   6.850  12.761  0.00  0.00    +0.000 A 
ATOM      7  C   UNL     1      45.132   5.490  13.056  0.00  0.00    +0.000 A 
ENDROOT
BRANCH   5   8
ATOM      8  C   UNL     1      45.912   9.149  12.522  0.00  0.00    +0.000 C 
ATOM      9  N   UNL     1      44.658   9.649  12.755  0.00  0.00    +0.000 N 
ATOM     10  O   UNL     1      46.815   9.857  12.100  0.00  0.00    +0.000 OA
ATOM     11  H   UNL     1      43.933   9.025  13.129  0.00  0.00    +0.000 HD
ATOM     12  H   UNL     1      44.458  10.621  12.591  0.00  0.00    +0.000 HD
ENDBRANCH   5   8
BRANCH   7  13
ATOM     13  N   UNL     1      44.031   4.622  12.965  0.00  0.00    +0.000 N 
ATOM     14  H   UNL     1      43.433   4.627  13.784  0.00  0.00    +0.000 HD
BRANCH  13  15
ATOM     15  C   UNL     1      43.264   4.531  11.699  0.00  0.00    +0.000 C 
ATOM     16  C   UNL     1      42.691   5.910  11.349  0.00  0.00    +0.000 C 
BRANCH  15  17
ATOM     17  C   UNL     1      44.121   3.999  10.557  0.00  0.00    +0.000 A 
ATOM     18  C   UNL     1      44.161   2.625  10.261  0.00  0.00    +0.000 A 
ATOM     19  C   UNL     1      44.919   2.145   9.188  0.00  0.00    +0.000 A 
ATOM     20  C   UNL     1      45.651   3.028   8.397  0.00  0.00    +0.000 A 
ATOM     21  C   UNL     1      45.615   4.392   8.669  0.00  0.00    +0.000 A 
ATOM     22  C   UNL     1      44.856   4.873   9.738  0.00  0.00    +0.000 A 
ENDBRANCH  15  17
ENDBRANCH  13  15
ENDBRANCH   7  13
TORSDOF 4
ENDMDL
MODEL 7
REMARK VINA RESULT:    -6.525      2.230      3.665
REMARK INTER + INTRA:          -8.433
REMARK INTER:                  -7.735
REMARK INTRA:                  -0.698
REMARK UNBOUND:                -0.381
REMARK  Name = 
REMARK  6 active torsions:
REMARK  status: ('A' for Active; 'I' for Inactive)
REMARK    1  A    between atoms: C_1  and  C_2
REMARK    2  A    between atoms: C_5  and  C_6
REMARK    3  A    between atoms: C_10  and  N_11
REMARK    4  A    between atoms: N_11  and  C_12
REMARK    5  A    between atoms: C_12  and  C_13
REMARK    6  A    between atoms: C_12  and  C_14
REMARK                            x       y       z     vdW  Elec       q    Type
REMARK                         _______ _______ _______ _____ _____    ______ ____
ROOT
ATOM      1  C   UNL     1      48.782   8.529  12.375  0.00  0.00    +0.000 C 
ATOM      2  C   UNL     1      48.387   7.328  13.187  0.00  0.00    +0.000 A 
ATOM      3  C   UNL     1      49.069   7.116  14.392  0.00  0.00    +0.000 A 
ATOM      4  N   UNL     1      48.801   6.135  15.276  0.00  0.00    +0.000 NA
ATOM      5  C   UNL     1      47.770   5.322  14.942  0.00  0.00    +0.000 A 
ATOM      6  C   UNL     1      47.051   5.423  13.760  0.00  0.00    +0.000 A 
ATOM      7  C   UNL     1      47.380   6.408  12.821  0.00  0.00    +0.000 A 
ENDROOT
BRANCH   5   8
ATOM      8  C   UNL     1      47.406   4.266  15.934  0.00  0.00    +0.000 C 
ATOM      9  N   UNL     1      46.994   4.735  17.153  0.00  0.00    +0.000 N 
ATOM     10  O   UNL     1      47.450   3.068  15.691  0.00  0.00    +0.000 OA
ATOM     11  H   UNL     1      46.953   5.750  17.309  0.00  0.00    +0.000 HD
ATOM     12  H   UNL     1      46.707   4.097  17.875  0.00  0.00    +0.000 HD
ENDBRANCH   5   8
BRANCH   7  13
ATOM     13  N   UNL     1      46.649   6.524  11.627  0.00  0.00    +0.000 N 
ATOM     14  H   UNL     1      47.196   6.354  10.791  0.00  0.00    +0.000 HD
BRANCH  13  15
ATOM     15  C   UNL     1      45.281   5.958  11.539  0.00  0.00    +0.000 C 
ATOM     16  C   UNL     1      44.280   7.085  11.258  0.00  0.00    +0.000 C 
BRANCH  15  17
ATOM     17  C   UNL     1      45.185   4.875  10.472  0.00  0.00    +0.000 A 
ATOM     18  C   UNL     1      45.690   5.087   9.177  0.00  0.00    +0.000 A 
ATOM     19  C   UNL     1      45.635   4.076   8.212  0.00  0.00    +0.000 A 
ATOM     20  C   UNL     1      45.072   2.840   8.524  0.00  0.00    +0.000 A 
ATOM     21  C   UNL     1      44.577   2.609   9.803  0.00  0.00    +0.000 A 
ATOM     22  C   UNL     1      44.634   3.616  10.768  0.00  0.00    +0.000 A 
ENDBRANCH  15  17
ENDBRANCH  13  15
ENDBRANCH   7  13
TORSDOF 4
ENDMDL
MODEL 8
REMARK VINA RESULT:    -6.522      3.515      6.052
REMARK INTER + INTRA:          -8.428
REMARK INTER:                  -7.987
REMARK INTRA:                  -0.441
REMARK UNBOUND:                -0.381
REMARK  Name = 
REMARK  6 active torsions:
REMARK  status: ('A' for Active; 'I' for Inactive)
REMARK    1  A    between atoms: C_1  and  C_2
REMARK    2  A    between atoms: C_5  and  C_6
REMARK    3  A    between atoms: C_10  and  N_11
REMARK    4  A    between atoms: N_11  and  C_12
REMARK    5  A    between atoms: C_12  and  C_13
REMARK    6  A    between atoms: C_12  and  C_14
REMARK                            x       y       z     vdW  Elec       q    Type
REMARK                         _______ _______ _______ _____ _____    ______ ____
ROOT
ATOM      1  C   UNL     1      42.829   5.131  12.895  0.00  0.00    +0.000 C 
ATOM      2  C   UNL     1      43.681   4.723  11.726  0.00  0.00    +0.000 A 
ATOM      3  C   UNL     1      43.442   3.459  11.170  0.00  0.00    +0.000 A 
ATOM      4  N   UNL     1      44.060   2.960  10.080  0.00  0.00    +0.000 NA
ATOM      5  C   UNL     1      44.963   3.786   9.499  0.00  0.00    +0.000 A 
ATOM      6  C   UNL     1      45.297   5.040   9.987  0.00  0.00    +0.000 A 
ATOM      7  C   UNL     1      44.694   5.523  11.154  0.00  0.00    +0.000 A 
ENDROOT
BRANCH   5   8
ATOM      8  C   UNL     1      45.615   3.285   8.250  0.00  0.00    +0.000 C 
ATOM      9  N   UNL     1      45.937   1.954   8.261  0.00  0.00    +0.000 N 
ATOM     10  O   UNL     1      45.837   3.991   7.277  0.00  0.00    +0.000 OA
ATOM     11  H   UNL     1      45.715   1.393   9.092  0.00  0.00    +0.000 HD
ATOM     12  H   UNL     1      46.358   1.525   7.454  0.00  0.00    +0.000 HD
ENDBRANCH   5   8
BRANCH   7  13
ATOM     13  N   UNL     1      45.020   6.797  11.648  0.00  0.00    +0.000 N 
ATOM     14  H   UNL     1      44.216   7.395  11.806  0.00  0.00    +0.000 HD
BRANCH  13  15
ATOM     15  C   UNL     1      46.054   6.941  12.700  0.00  0.00    +0.000 C 
ATOM     16  C   UNL     1      46.598   5.557  13.073  0.00  0.00    +0.000 C 
BRANCH  15  17
ATOM     17  C   UNL     1      47.185   7.862  12.257  0.00  0.00    +0.000 A 
ATOM     18  C   UNL     1      47.005   9.255  12.202  0.00  0.00    +0.000 A 
ATOM     19  C   UNL     1      48.056  10.100  11.832  0.00  0.00    +0.000 A 
ATOM     20  C   UNL     1      49.302   9.566  11.509  0.00  0.00    +0.000 A 
ATOM     21  C   UNL     1      49.502   8.191  11.568  0.00  0.00    +0.000 A 
ATOM     22  C   UNL     1      48.454   7.347  11.940  0.00  0.00    +0.000 A 
ENDBRANCH  15  17
ENDBRANCH  13  15
ENDBRANCH   7  13
TORSDOF 4
ENDMDL
MODEL 9
REMARK VINA RESULT:    -6.383      3.703      6.096
REMARK INTER + INTRA:          -8.257
REMARK INTER:                  -7.508
REMARK INTRA:                  -0.749
REMARK UNBOUND:                -0.381
REMARK  Name = 
REMARK  6 active torsions:
REMARK  status: ('A' for Active; 'I' for Inactive)
REMARK    1  A    between atoms: C_1  and  C_2
REMARK    2  A    between atoms: C_5  and  C_6
REMARK    3  A    between atoms: C_10  and  N_11
REMARK    4  A    between atoms: N_11  and  C_12
REMARK    5  A    between atoms: C_12  and  C_13
REMARK    6  A    between atoms: C_12  and  C_14
REMARK                            x       y       z     vdW  Elec       q    Type
REMARK                         _______ _______ _______ _____ _____    ______ ____
ROOT
ATOM      1  C   UNL     1      47.737   5.549  15.044  0.00  0.00    +0.000 C 
ATOM      2  C   UNL     1      46.828   5.025  13.968  0.00  0.00    +0.000 A 
ATOM      3  C   UNL     1      46.818   3.641  13.754  0.00  0.00    +0.000 A 
ATOM      4  N   UNL     1      46.018   2.994  12.883  0.00  0.00    +0.000 NA
ATOM      5  C   UNL     1      45.159   3.781  12.193  0.00  0.00    +0.000 A 
ATOM      6  C   UNL     1      45.110   5.163  12.304  0.00  0.00    +0.000 A 
ATOM      7  C   UNL     1      45.988   5.829  13.166  0.00  0.00    +0.000 A 
ENDROOT
BRANCH   5   8
ATOM      8  C   UNL     1      44.213   3.084  11.269  0.00  0.00    +0.000 C 
ATOM      9  N   UNL     1      44.804   2.448  10.210  0.00  0.00    +0.000 N 
ATOM     10  O   UNL     1      43.002   3.058  11.437  0.00  0.00    +0.000 OA
ATOM     11  H   UNL     1      45.827   2.478  10.117  0.00  0.00    +0.000 HD
ATOM     12  H   UNL     1      44.248   1.933   9.549  0.00  0.00    +0.000 HD
ENDBRANCH   5   8
BRANCH   7  13
ATOM     13  N   UNL     1      45.936   7.228  13.292  0.00  0.00    +0.000 N 
ATOM     14  H   UNL     1      46.418   7.586  14.109  0.00  0.00    +0.000 HD
BRANCH  13  15
ATOM     15  C   UNL     1      46.122   8.086  12.097  0.00  0.00    +0.000 C 
ATOM     16  C   UNL     1      45.237   9.331  12.221  0.00  0.00    +0.000 C 
BRANCH  15  17
ATOM     17  C   UNL     1      47.582   8.479  11.907  0.00  0.00    +0.000 A 
ATOM     18  C   UNL     1      48.573   7.506  11.694  0.00  0.00    +0.000 A 
ATOM     19  C   UNL     1      49.906   7.874  11.482  0.00  0.00    +0.000 A 
ATOM     20  C   UNL     1      50.269   9.219  11.483  0.00  0.00    +0.000 A 
ATOM     21  C   UNL     1      49.300  10.197  11.682  0.00  0.00    +0.000 A 
ATOM     22  C   UNL     1      47.969   9.831  11.890  0.00  0.00    +0.000 A 
ENDBRANCH  15  17
ENDBRANCH  13  15
ENDBRANCH   7  13
TORSDOF 4
ENDMDL
