MODEL 1
REMARK VINA RESULT:    -7.558      0.000      0.000
REMARK INTER + INTRA:         -11.663
REMARK INTER:                 -10.651
REMARK INTRA:                  -1.012
REMARK UNBOUND:                -1.012
REMARK  Name = 
REMARK  8 active torsions:
REMARK  status: ('A' for Active; 'I' for Inactive)
REMARK    1  A    between atoms: C_1  and  O_2
REMARK    2  A    between atoms: O_2  and  C_3
REMARK    3  A    between atoms: C_6  and  C_7
REMARK    4  A    between atoms: N_9  and  C_10
REMARK    5  A    between atoms: C_10  and  C_11
REMARK    6  A    between atoms: C_14  and  C_15
REMARK    7  A    between atoms: C_15  and  N_16
REMARK    8  A    between atoms: C_17  and  C_19
REMARK                            x       y       z     vdW  Elec       q    Type
REMARK                         _______ _______ _______ _____ _____    ______ ____
ROOT
ATOM      1  C   UNL     1      44.849   6.192  11.261  0.00  0.00    +0.000 A 
ATOM      2  C   UNL     1      44.641   7.561  11.471  0.00  0.00    +0.000 A 
ATOM      3  C   UNL     1      45.475   8.286  12.331  0.00  0.00    +0.000 A 
ATOM      4  C   UNL     1      46.547   7.661  12.982  0.00  0.00    +0.000 A 
ATOM      5  C   UNL     1      46.739   6.286  12.789  0.00  0.00    +0.000 A 
ATOM      6  C   UNL     1      45.905   5.562  11.931  0.00  0.00    +0.000 A 
ENDROOT
BRANCH   1   7
ATOM      7  C   UNL     1      43.990   5.420  10.291  0.00  0.00    +0.000 C 
BRANCH   7  10
ATOM      8  C   UNL     1      44.625   3.163   9.505  0.00  0.00    +0.000 C 
ATOM      9  O   UNL     1      43.774   2.631  10.210  0.00  0.00    +0.000 OA
ATOM     10  N   UNL     1      44.792   4.531   9.486  0.00  0.00    +0.000 N 
ATOM     11  H   UNL     1      45.516   4.921   8.897  0.00  0.00    +0.000 HD
BRANCH   8  15
ATOM     12  C   UNL     1      47.229   1.695   6.959  0.00  0.00    +0.000 A 
ATOM     13  C   UNL     1      46.648   0.627   7.622  0.00  0.00    +0.000 A 
ATOM     14  C   UNL     1      45.680   1.035   8.588  0.00  0.00    +0.000 A 
ATOM     15  C   UNL     1      45.528   2.407   8.641  0.00  0.00    +0.000 A 
ATOM     16  S   UNL     1      46.572   3.175   7.522  0.00  0.00    +0.000 S 
BRANCH  12  18
ATOM     17  C   UNL     1      47.874   2.531   4.860  0.00  0.00    +0.000 C 
ATOM     18  O   UNL     1      48.167   1.746   6.005  0.00  0.00    +0.000 OA
ENDBRANCH  12  18
ENDBRANCH   8  15
ENDBRANCH   7  10
ENDBRANCH   1   7
BRANCH   4  19
ATOM     19  C   UNL     1      47.477   8.444  13.873  0.00  0.00    +0.000 C 
BRANCH  19  20
ATOM     20  N   UNL     1      47.974   7.650  14.968  0.00  0.00    +0.000 N 
ATOM     21  C   UNL     1      49.303   7.312  15.032  0.00  0.00    +0.000 C 
ATOM     22  O   UNL     1      50.079   7.537  14.106  0.00  0.00    +0.000 OA
ATOM     23  H   UNL     1      47.409   7.618  15.812  0.00  0.00    +0.000 HD
BRANCH  21  24
ATOM     24  C   UNL     1      49.762   6.656  16.261  0.00  0.00    +0.000 A 
ATOM     25  C   UNL     1      50.803   7.207  16.997  0.00  0.00    +0.000 A 
ATOM     26  S   UNL     1      51.138   6.363  18.441  0.00  0.00    +0.000 S 
ATOM     27  C   UNL     1      49.844   5.290  18.174  0.00  0.00    +0.000 A 
ATOM     28  N   UNL     1      49.479   4.380  19.116  0.00  0.00    +0.000 NA
ATOM     29  C   UNL     1      48.458   3.659  18.792  0.00  0.00    +0.000 A 
ATOM     30  N   UNL     1      47.800   3.731  17.591  0.00  0.00    +0.000 N 
ATOM     31  C   UNL     1      48.173   4.591  16.586  0.00  0.00    +0.000 A 
ATOM     32  O   UNL     1      47.642   4.555  15.482  0.00  0.00    +0.000 OA
ATOM     33  C   UNL     1      49.249   5.495  16.942  0.00  0.00    +0.000 A 
ATOM     34  H   UNL     1      47.045   3.096  17.377  0.00  0.00    +0.000 HD
ENDBRANCH  21  24
ENDBRANCH  19  20
ENDBRANCH   4  19
TORSDOF 7
ENDMDL
MODEL 2
REMARK VINA RESULT:    -7.372      1.396      1.813
REMARK INTER + INTRA:         -11.402
REMARK INTER:                 -10.128
REMARK INTRA:                  -1.274
REMARK UNBOUND:                -1.012
REMARK  Name = 
REMARK  8 active torsions:
REMARK  status: ('A' for Active; 'I' for Inactive)
REMARK    1  A    between atoms: C_1  and  O_2
REMARK    2  A    between atoms: O_2  and  C_3
REMARK    3  A    between atoms: C_6  and  C_7
REMARK    4  A    between atoms: N_9  and  C_10
REMARK    5  A    between atoms: C_10  and  C_11
REMARK    6  A    between atoms: C_14  and  C_15
REMARK    7  A    between atoms: C_15  and  N_16
REMARK    8  A    between atoms: C_17  and  C_19
REMARK                            x       y       z     vdW  Elec       q    Type
REMARK                         _______ _______ _______ _____ _____    ______ ____
ROOT
ATOM      1  C   UNL     1      45.922   7.383  11.879  0.00  0.00    +0.000 A 
ATOM      2  C   UNL     1      47.217   6.857  11.775  0.00  0.00    +0.000 A 
ATOM      3  C   UNL     1      48.253   7.348  12.579  0.00  0.00    +0.000 A 
ATOM      4  C   UNL     1      48.011   8.359  13.518  0.00  0.00    +0.000 A 
ATOM      5  C   UNL     1      46.721   8.901  13.605  0.00  0.00    +0.000 A 
ATOM      6  C   UNL     1      45.686   8.411  12.801  0.00  0.00    +0.000 A 
ENDROOT
BRANCH   1   7
ATOM      7  C   UNL     1      44.790   6.818  11.058  0.00  0.00    +0.000 C 
BRANCH   7  10
ATOM      8  C   UNL     1      44.461   4.577  10.066  0.00  0.00    +0.000 C 
ATOM      9  O   UNL     1      43.340   4.478  10.554  0.00  0.00    +0.000 OA
ATOM     10  N   UNL     1      45.236   5.699  10.265  0.00  0.00    +0.000 N 
ATOM     11  H   UNL     1      46.159   5.728   9.850  0.00  0.00    +0.000 HD
BRANCH   8  15
ATOM     12  C   UNL     1      46.325   2.237   7.524  0.00  0.00    +0.000 A 
ATOM     13  C   UNL     1      45.682   1.424   8.441  0.00  0.00    +0.000 A 
ATOM     14  C   UNL     1      44.968   2.164   9.431  0.00  0.00    +0.000 A 
ATOM     15  C   UNL     1      45.068   3.530   9.248  0.00  0.00    +0.000 A 
ATOM     16  S   UNL     1      46.036   3.888   7.882  0.00  0.00    +0.000 S 
BRANCH  12  18
ATOM     17  C   UNL     1      47.093   2.887   5.400  0.00  0.00    +0.000 C 
ATOM     18  O   UNL     1      47.093   1.949   6.465  0.00  0.00    +0.000 OA
ENDBRANCH  12  18
ENDBRANCH   8  15
ENDBRANCH   7  10
ENDBRANCH   1   7
BRANCH   4  19
ATOM     19  C   UNL     1      49.110   8.861  14.419  0.00  0.00    +0.000 C 
BRANCH  19  20
ATOM     20  N   UNL     1      49.427   7.920  15.463  0.00  0.00    +0.000 N 
ATOM     21  C   UNL     1      48.790   7.990  16.677  0.00  0.00    +0.000 C 
ATOM     22  O   UNL     1      48.049   8.926  16.972  0.00  0.00    +0.000 OA
ATOM     23  H   UNL     1      49.879   7.053  15.186  0.00  0.00    +0.000 HD
BRANCH  21  24
ATOM     24  C   UNL     1      49.038   6.896  17.622  0.00  0.00    +0.000 A 
ATOM     25  C   UNL     1      49.611   7.161  18.859  0.00  0.00    +0.000 A 
ATOM     26  S   UNL     1      49.737   5.785  19.860  0.00  0.00    +0.000 S 
ATOM     27  C   UNL     1      48.948   4.812  18.708  0.00  0.00    +0.000 A 
ATOM     28  N   UNL     1      48.604   3.527  18.990  0.00  0.00    +0.000 NA
ATOM     29  C   UNL     1      47.979   2.922  18.036  0.00  0.00    +0.000 A 
ATOM     30  N   UNL     1      47.711   3.468  16.807  0.00  0.00    +0.000 N 
ATOM     31  C   UNL     1      48.096   4.740  16.456  0.00  0.00    +0.000 A 
ATOM     32  O   UNL     1      47.946   5.162  15.315  0.00  0.00    +0.000 OA
ATOM     33  C   UNL     1      48.708   5.496  17.530  0.00  0.00    +0.000 A 
ATOM     34  H   UNL     1      47.270   2.920  16.083  0.00  0.00    +0.000 HD
ENDBRANCH  21  24
ENDBRANCH  19  20
ENDBRANCH   4  19
TORSDOF 7
ENDMDL
MODEL 3
REMARK VINA RESULT:    -6.745      4.588      7.688
REMARK INTER + INTRA:         -10.517
REMARK INTER:                  -9.549
REMARK INTRA:                  -0.968
REMARK UNBOUND:                -1.012
REMARK  Name = 
REMARK  8 active torsions:
REMARK  status: ('A' for Active; 'I' for Inactive)
REMARK    1  A    between atoms: C_1  and  O_2
REMARK    2  A    between atoms: O_2  and  C_3
REMARK    3  A    between atoms: C_6  and  C_7
REMARK    4  A    between atoms: N_9  and  C_10
REMARK    5  A    between atoms: C_10  and  C_11
REMARK    6  A    between atoms: C_14  and  C_15
REMARK    7  A    between atoms: C_15  and  N_16
REMARK    8  A    between atoms: C_17  and  C_19
REMARK                            x       y       z     vdW  Elec       q    Type
REMARK                         _______ _______ _______ _____ _____    ______ ____
ROOT
ATOM      1  C   UNL     1      49.772   9.209  11.502  0.00  0.00    +0.000 A 
ATOM      2  C   UNL     1      48.890  10.251  11.816  0.00  0.00    +0.000 A 
ATOM      3  C   UNL     1      47.595   9.977  12.273  0.00  0.00    +0.000 A 
ATOM      4  C   UNL     1      47.163   8.655  12.446  0.00  0.00    +0.000 A 
ATOM      5  C   UNL     1      48.038   7.613  12.109  0.00  0.00    +0.000 A 
ATOM      6  C   UNL     1      49.331   7.888  11.651  0.00  0.00    +0.000 A 
ENDROOT
BRANCH   1   7
ATOM      7  C   UNL     1      51.186   9.498  11.066  0.00  0.00    +0.000 C 
BRANCH   7  10
ATOM      8  C   UNL     1      52.947   7.930  10.320  0.00  0.00    +0.000 C 
ATOM      9  O   UNL     1      53.719   8.316  11.191  0.00  0.00    +0.000 OA
ATOM     10  N   UNL     1      51.680   8.460  10.195  0.00  0.00    +0.000 N 
ATOM     11  H   UNL     1      51.084   8.116   9.453  0.00  0.00    +0.000 HD
BRANCH   8  15
ATOM     12  C   UNL     1      53.502   5.464   7.316  0.00  0.00    +0.000 A 
ATOM     13  C   UNL     1      54.246   4.992   8.384  0.00  0.00    +0.000 A 
ATOM     14  C   UNL     1      54.131   5.814   9.545  0.00  0.00    +0.000 A 
ATOM     15  C   UNL     1      53.294   6.895   9.349  0.00  0.00    +0.000 A 
ATOM     16  S   UNL     1      52.669   6.897   7.755  0.00  0.00    +0.000 S 
BRANCH  12  18
ATOM     17  C   UNL     1      54.422   4.264   5.517  0.00  0.00    +0.000 C 
ATOM     18  O   UNL     1      53.343   5.002   6.069  0.00  0.00    +0.000 OA
ENDBRANCH  12  18
ENDBRANCH   8  15
ENDBRANCH   7  10
ENDBRANCH   1   7
BRANCH   4  19
ATOM     19  C   UNL     1      45.787   8.352  12.981  0.00  0.00    +0.000 C 
BRANCH  19  20
ATOM     20  N   UNL     1      45.422   6.972  12.788  0.00  0.00    +0.000 N 
ATOM     21  C   UNL     1      44.538   6.620  11.798  0.00  0.00    +0.000 C 
ATOM     22  O   UNL     1      43.920   7.459  11.147  0.00  0.00    +0.000 OA
ATOM     23  H   UNL     1      46.044   6.268  13.175  0.00  0.00    +0.000 HD
BRANCH  21  24
ATOM     24  C   UNL     1      44.353   5.186  11.552  0.00  0.00    +0.000 A 
ATOM     25  C   UNL     1      43.617   4.417  12.442  0.00  0.00    +0.000 A 
ATOM     26  S   UNL     1      43.427   2.795  11.947  0.00  0.00    +0.000 S 
ATOM     27  C   UNL     1      44.245   3.093  10.485  0.00  0.00    +0.000 A 
ATOM     28  N   UNL     1      44.320   2.143   9.514  0.00  0.00    +0.000 NA
ATOM     29  C   UNL     1      44.939   2.522   8.446  0.00  0.00    +0.000 A 
ATOM     30  N   UNL     1      45.531   3.747   8.279  0.00  0.00    +0.000 N 
ATOM     31  C   UNL     1      45.535   4.713   9.255  0.00  0.00    +0.000 A 
ATOM     32  O   UNL     1      46.170   5.754   9.124  0.00  0.00    +0.000 OA
ATOM     33  C   UNL     1      44.764   4.375  10.434  0.00  0.00    +0.000 A 
ATOM     34  H   UNL     1      46.052   3.959   7.440  0.00  0.00    +0.000 HD
ENDBRANCH  21  24
ENDBRANCH  19  20
ENDBRANCH   4  19
TORSDOF 7
ENDMDL
MODEL 4
REMARK VINA RESULT:    -6.675      3.349      8.964
REMARK INTER + INTRA:         -10.419
REMARK INTER:                  -9.560
REMARK INTRA:                  -0.859
REMARK UNBOUND:                -1.012
REMARK  Name = 
REMARK  8 active torsions:
REMARK  status: ('A' for Active; 'I' for Inactive)
REMARK    1  A    between atoms: C_1  and  O_2
REMARK    2  A    between atoms: O_2  and  C_3
REMARK    3  A    between atoms: C_6  and  C_7
REMARK    4  A    between atoms: N_9  and  C_10
REMARK    5  A    between atoms: C_10  and  C_11
REMARK    6  A    between atoms: C_14  and  C_15
REMARK    7  A    between atoms: C_15  and  N_16
REMARK    8  A    between atoms: C_17  and  C_19
REMARK                            x       y       z     vdW  Elec       q    Type
REMARK                         _______ _______ _______ _____ _____    ______ ____
ROOT
ATOM      1  C   UNL     1      50.302   7.084  15.795  0.00  0.00    +0.000 A 
ATOM      2  C   UNL     1      50.916   7.819  14.772  0.00  0.00    +0.000 A 
ATOM      3  C   UNL     1      50.239   8.073  13.572  0.00  0.00    +0.000 A 
ATOM      4  C   UNL     1      48.929   7.616  13.380  0.00  0.00    +0.000 A 
ATOM      5  C   UNL     1      48.325   6.861  14.395  0.00  0.00    +0.000 A 
ATOM      6  C   UNL     1      49.001   6.607  15.593  0.00  0.00    +0.000 A 
ENDROOT
BRANCH   1   7
ATOM      7  C   UNL     1      51.004   6.858  17.111  0.00  0.00    +0.000 C 
BRANCH   7  10
ATOM      8  C   UNL     1      50.942   4.499  17.849  0.00  0.00    +0.000 C 
ATOM      9  O   UNL     1      49.871   4.662  18.423  0.00  0.00    +0.000 OA
ATOM     10  N   UNL     1      51.563   5.530  17.177  0.00  0.00    +0.000 N 
ATOM     11  H   UNL     1      52.452   5.348  16.728  0.00  0.00    +0.000 HD
BRANCH   8  15
ATOM     12  C   UNL     1      53.324   1.384  18.037  0.00  0.00    +0.000 A 
ATOM     13  C   UNL     1      52.120   0.955  17.507  0.00  0.00    +0.000 A 
ATOM     14  C   UNL     1      51.159   2.004  17.393  0.00  0.00    +0.000 A 
ATOM     15  C   UNL     1      51.648   3.221  17.829  0.00  0.00    +0.000 A 
ATOM     16  S   UNL     1      53.262   3.063  18.377  0.00  0.00    +0.000 S 
BRANCH  12  18
ATOM     17  C   UNL     1      55.170   1.133  19.471  0.00  0.00    +0.000 C 
ATOM     18  O   UNL     1      54.460   0.730  18.310  0.00  0.00    +0.000 OA
ENDBRANCH  12  18
ENDBRANCH   8  15
ENDBRANCH   7  10
ENDBRANCH   1   7
BRANCH   4  19
ATOM     19  C   UNL     1      48.177   7.925  12.111  0.00  0.00    +0.000 C 
BRANCH  19  20
ATOM     20  N   UNL     1      47.447   6.783  11.621  0.00  0.00    +0.000 N 
ATOM     21  C   UNL     1      46.095   6.868  11.397  0.00  0.00    +0.000 C 
ATOM     22  O   UNL     1      45.438   7.849  11.737  0.00  0.00    +0.000 OA
ATOM     23  H   UNL     1      47.983   6.048  11.169  0.00  0.00    +0.000 HD
BRANCH  21  24
ATOM     24  C   UNL     1      45.459   5.724  10.737  0.00  0.00    +0.000 A 
ATOM     25  C   UNL     1      45.713   5.464   9.397  0.00  0.00    +0.000 A 
ATOM     26  S   UNL     1      44.963   4.042   8.823  0.00  0.00    +0.000 S 
ATOM     27  C   UNL     1      44.350   3.682  10.370  0.00  0.00    +0.000 A 
ATOM     28  N   UNL     1      43.714   2.506  10.618  0.00  0.00    +0.000 NA
ATOM     29  C   UNL     1      43.336   2.353  11.843  0.00  0.00    +0.000 A 
ATOM     30  N   UNL     1      43.493   3.291  12.832  0.00  0.00    +0.000 N 
ATOM     31  C   UNL     1      44.072   4.517  12.612  0.00  0.00    +0.000 A 
ATOM     32  O   UNL     1      44.096   5.379  13.483  0.00  0.00    +0.000 OA
ATOM     33  C   UNL     1      44.607   4.694  11.277  0.00  0.00    +0.000 A 
ATOM     34  H   UNL     1      43.121   3.133  13.757  0.00  0.00    +0.000 HD
ENDBRANCH  21  24
ENDBRANCH  19  20
ENDBRANCH   4  19
TORSDOF 7
ENDMDL
MODEL 5
REMARK VINA RESULT:    -6.446      2.162      3.017
REMARK INTER + INTRA:         -10.096
REMARK INTER:                  -9.266
REMARK INTRA:                  -0.830
REMARK UNBOUND:                -1.012
REMARK  Name = 
REMARK  8 active torsions:
REMARK  status: ('A' for Active; 'I' for Inactive)
REMARK    1  A    between atoms: C_1  and  O_2
REMARK    2  A    between atoms: O_2  and  C_3
REMARK    3  A    between atoms: C_6  and  C_7
REMARK    4  A    between atoms: N_9  and  C_10
REMARK    5  A    between atoms: C_10  and  C_11
REMARK    6  A    between atoms: C_14  and  C_15
REMARK    7  A    between atoms: C_15  and  N_16
REMARK    8  A    between atoms: C_17  and  C_19
REMARK                            x       y       z     vdW  Elec       q    Type
REMARK                         _______ _______ _______ _____ _____    ______ ____
ROOT
ATOM      1  C   UNL     1      45.989   7.090  12.023  0.00  0.00    +0.000 A 
ATOM      2  C   UNL     1      47.206   6.428  12.232  0.00  0.00    +0.000 A 
ATOM      3  C   UNL     1      48.159   6.950  13.115  0.00  0.00    +0.000 A 
ATOM      4  C   UNL     1      47.906   8.132  13.822  0.00  0.00    +0.000 A 
ATOM      5  C   UNL     1      46.699   8.806  13.594  0.00  0.00    +0.000 A 
ATOM      6  C   UNL     1      45.747   8.285  12.711  0.00  0.00    +0.000 A 
ENDROOT
BRANCH   1   7
ATOM      7  C   UNL     1      44.935   6.502  11.118  0.00  0.00    +0.000 C 
BRANCH   7  10
ATOM      8  C   UNL     1      44.897   4.520   9.640  0.00  0.00    +0.000 C 
ATOM      9  O   UNL     1      43.785   4.192  10.037  0.00  0.00    +0.000 OA
ATOM     10  N   UNL     1      45.529   5.647  10.120  0.00  0.00    +0.000 N 
ATOM     11  H   UNL     1      46.452   5.870   9.769  0.00  0.00    +0.000 HD
BRANCH   8  15
ATOM     12  C   UNL     1      46.680   1.962   7.254  0.00  0.00    +0.000 A 
ATOM     13  C   UNL     1      47.015   3.234   6.824  0.00  0.00    +0.000 A 
ATOM     14  C   UNL     1      46.417   4.261   7.614  0.00  0.00    +0.000 A 
ATOM     15  C   UNL     1      45.644   3.758   8.642  0.00  0.00    +0.000 A 
ATOM     16  S   UNL     1      45.650   2.046   8.622  0.00  0.00    +0.000 S 
BRANCH  12  18
ATOM     17  C   UNL     1      46.689  -0.361   7.615  0.00  0.00    +0.000 C 
ATOM     18  O   UNL     1      47.015   0.750   6.794  0.00  0.00    +0.000 OA
ENDBRANCH  12  18
ENDBRANCH   8  15
ENDBRANCH   7  10
ENDBRANCH   1   7
BRANCH   4  19
ATOM     19  C   UNL     1      48.908   8.676  14.809  0.00  0.00    +0.000 C 
BRANCH  19  20
ATOM     20  N   UNL     1      49.211   7.729  15.851  0.00  0.00    +0.000 N 
ATOM     21  C   UNL     1      48.645   7.861  17.094  0.00  0.00    +0.000 C 
ATOM     22  O   UNL     1      47.989   8.850  17.411  0.00  0.00    +0.000 OA
ATOM     23  H   UNL     1      49.586   6.828  15.566  0.00  0.00    +0.000 HD
BRANCH  21  24
ATOM     24  C   UNL     1      48.864   6.764  18.043  0.00  0.00    +0.000 A 
ATOM     25  C   UNL     1      48.230   5.544  17.856  0.00  0.00    +0.000 A 
ATOM     26  S   UNL     1      48.675   4.360  19.001  0.00  0.00    +0.000 S 
ATOM     27  C   UNL     1      49.798   5.413  19.727  0.00  0.00    +0.000 A 
ATOM     28  N   UNL     1      50.638   4.980  20.705  0.00  0.00    +0.000 NA
ATOM     29  C   UNL     1      51.460   5.877  21.137  0.00  0.00    +0.000 A 
ATOM     30  N   UNL     1      51.484   7.182  20.715  0.00  0.00    +0.000 N 
ATOM     31  C   UNL     1      50.613   7.679  19.776  0.00  0.00    +0.000 A 
ATOM     32  O   UNL     1      50.580   8.873  19.502  0.00  0.00    +0.000 OA
ATOM     33  C   UNL     1      49.740   6.684  19.185  0.00  0.00    +0.000 A 
ATOM     34  H   UNL     1      52.114   7.849  21.137  0.00  0.00    +0.000 HD
ENDBRANCH  21  24
ENDBRANCH  19  20
ENDBRANCH   4  19
TORSDOF 7
ENDMDL
MODEL 6
REMARK VINA RESULT:    -6.036      3.423      5.262
REMARK INTER + INTRA:          -9.518
REMARK INTER:                  -8.616
REMARK INTRA:                  -0.902
REMARK UNBOUND:                -1.012
REMARK  Name = 
REMARK  8 active torsions:
REMARK  status: ('A' for Active; 'I' for Inactive)
REMARK    1  A    between atoms: C_1  and  O_2
REMARK    2  A    between atoms: O_2  and  C_3
REMARK    3  A    between atoms: C_6  and  C_7
REMARK    4  A    between atoms: N_9  and  C_10
REMARK    5  A    between atoms: C_10  and  C_11
REMARK    6  A    between atoms: C_14  and  C_15
REMARK    7  A    between atoms: C_15  and  N_16
REMARK    8  A    between atoms: C_17  and  C_19
REMARK                            x       y       z     vdW  Elec       q    Type
REMARK                         _______ _______ _______ _____ _____    ______ ____
ROOT
ATOM      1  C   UNL     1      48.798   8.396  14.085  0.00  0.00    +0.000 A 
ATOM      2  C   UNL     1      49.783   7.463  14.436  0.00  0.00    +0.000 A 
ATOM      3  C   UNL     1      50.058   7.188  15.782  0.00  0.00    +0.000 A 
ATOM      4  C   UNL     1      49.338   7.824  16.802  0.00  0.00    +0.000 A 
ATOM      5  C   UNL     1      48.370   8.774  16.450  0.00  0.00    +0.000 A 
ATOM      6  C   UNL     1      48.097   9.049  15.106  0.00  0.00    +0.000 A 
ENDROOT
BRANCH   1   7
ATOM      7  C   UNL     1      48.458   8.652  12.638  0.00  0.00    +0.000 C 
BRANCH   7  10
ATOM      8  C   UNL     1      46.245   7.681  12.114  0.00  0.00    +0.000 C 
ATOM      9  O   UNL     1      45.662   8.661  12.565  0.00  0.00    +0.000 OA
ATOM     10  N   UNL     1      47.622   7.603  12.110  0.00  0.00    +0.000 N 
ATOM     11  H   UNL     1      48.057   6.768  11.738  0.00  0.00    +0.000 HD
BRANCH   8  15
ATOM     12  C   UNL     1      43.991   4.628  11.110  0.00  0.00    +0.000 A 
ATOM     13  C   UNL     1      44.972   4.755  10.142  0.00  0.00    +0.000 A 
ATOM     14  C   UNL     1      45.860   5.844  10.394  0.00  0.00    +0.000 A 
ATOM     15  C   UNL     1      45.548   6.526  11.555  0.00  0.00    +0.000 A 
ATOM     16  S   UNL     1      44.178   5.835  12.313  0.00  0.00    +0.000 S 
BRANCH  12  18
ATOM     17  C   UNL     1      43.310   2.453  11.683  0.00  0.00    +0.000 C 
ATOM     18  O   UNL     1      42.979   3.760  11.242  0.00  0.00    +0.000 OA
ENDBRANCH  12  18
ENDBRANCH   8  15
ENDBRANCH   7  10
ENDBRANCH   1   7
BRANCH   4  19
ATOM     19  C   UNL     1      49.595   7.499  18.252  0.00  0.00    +0.000 C 
BRANCH  19  20
ATOM     20  N   UNL     1      50.714   6.607  18.417  0.00  0.00    +0.000 N 
ATOM     21  C   UNL     1      50.521   5.332  18.885  0.00  0.00    +0.000 C 
ATOM     22  O   UNL     1      49.435   4.952  19.315  0.00  0.00    +0.000 OA
ATOM     23  H   UNL     1      51.564   6.828  17.906  0.00  0.00    +0.000 HD
BRANCH  21  24
ATOM     24  C   UNL     1      51.680   4.433  18.860  0.00  0.00    +0.000 A 
ATOM     25  C   UNL     1      52.825   4.751  19.578  0.00  0.00    +0.000 A 
ATOM     26  S   UNL     1      54.032   3.547  19.508  0.00  0.00    +0.000 S 
ATOM     27  C   UNL     1      53.027   2.523  18.591  0.00  0.00    +0.000 A 
ATOM     28  N   UNL     1      53.403   1.250  18.298  0.00  0.00    +0.000 NA
ATOM     29  C   UNL     1      52.526   0.578  17.628  0.00  0.00    +0.000 A 
ATOM     30  N   UNL     1      51.330   1.080  17.182  0.00  0.00    +0.000 N 
ATOM     31  C   UNL     1      50.939   2.378  17.401  0.00  0.00    +0.000 A 
ATOM     32  O   UNL     1      49.919   2.834  16.894  0.00  0.00    +0.000 OA
ATOM     33  C   UNL     1      51.842   3.142  18.238  0.00  0.00    +0.000 A 
ATOM     34  H   UNL     1      50.715   0.519  16.611  0.00  0.00    +0.000 HD
ENDBRANCH  21  24
ENDBRANCH  19  20
ENDBRANCH   4  19
TORSDOF 7
ENDMDL
MODEL 7
REMARK VINA RESULT:    -5.809      3.027      3.899
REMARK INTER + INTRA:          -9.198
REMARK INTER:                  -8.436
REMARK INTRA:                  -0.762
REMARK UNBOUND:                -1.012
REMARK  Name = 
REMARK  8 active torsions:
REMARK  status: ('A' for Active; 'I' for Inactive)
REMARK    1  A    between atoms: C_1  and  O_2
REMARK    2  A    between atoms: O_2  and  C_3
REMARK    3  A    between atoms: C_6  and  C_7
REMARK    4  A    between atoms: N_9  and  C_10
REMARK    5  A    between atoms: C_10  and  C_11
REMARK    6  A    between atoms: C_14  and  C_15
REMARK    7  A    between atoms: C_15  and  N_16
REMARK    8  A    between atoms: C_17  and  C_19
REMARK                            x       y       z     vdW  Elec       q    Type
REMARK                         _______ _______ _______ _____ _____    ______ ____
ROOT
ATOM      1  C   UNL     1      45.825   6.936  11.893  0.00  0.00    +0.000 A 
ATOM      2  C   UNL     1      47.200   6.669  11.865  0.00  0.00    +0.000 A 
ATOM      3  C   UNL     1      48.101   7.490  12.555  0.00  0.00    +0.000 A 
ATOM      4  C   UNL     1      47.643   8.580  13.305  0.00  0.00    +0.000 A 
ATOM      5  C   UNL     1      46.270   8.861  13.314  0.00  0.00    +0.000 A 
ATOM      6  C   UNL     1      45.370   8.042  12.624  0.00  0.00    +0.000 A 
ENDROOT
BRANCH   1   7
ATOM      7  C   UNL     1      44.845   6.022  11.200  0.00  0.00    +0.000 C 
BRANCH   7  10
ATOM      8  C   UNL     1      44.834   4.451   9.291  0.00  0.00    +0.000 C 
ATOM      9  O   UNL     1      43.612   4.495   9.207  0.00  0.00    +0.000 OA
ATOM     10  N   UNL     1      45.516   5.177  10.244  0.00  0.00    +0.000 N 
ATOM     11  H   UNL     1      46.525   5.098  10.280  0.00  0.00    +0.000 HD
BRANCH   8  15
ATOM     12  C   UNL     1      46.805   1.766   7.213  0.00  0.00    +0.000 A 
ATOM     13  C   UNL     1      47.202   3.013   6.763  0.00  0.00    +0.000 A 
ATOM     14  C   UNL     1      46.545   4.082   7.443  0.00  0.00    +0.000 A 
ATOM     15  C   UNL     1      45.664   3.635   8.409  0.00  0.00    +0.000 A 
ATOM     16  S   UNL     1      45.645   1.924   8.465  0.00  0.00    +0.000 S 
BRANCH  12  18
ATOM     17  C   UNL     1      46.625  -0.547   7.592  0.00  0.00    +0.000 C 
ATOM     18  O   UNL     1      47.166   0.530   6.843  0.00  0.00    +0.000 OA
ENDBRANCH  12  18
ENDBRANCH   8  15
ENDBRANCH   7  10
ENDBRANCH   1   7
BRANCH   4  19
ATOM     19  C   UNL     1      48.601   9.441  14.089  0.00  0.00    +0.000 C 
BRANCH  19  20
ATOM     20  N   UNL     1      49.735   8.692  14.568  0.00  0.00    +0.000 N 
ATOM     21  C   UNL     1      50.904   9.334  14.891  0.00  0.00    +0.000 C 
ATOM     22  O   UNL     1      51.082  10.525  14.651  0.00  0.00    +0.000 OA
ATOM     23  H   UNL     1      49.554   7.764  14.943  0.00  0.00    +0.000 HD
BRANCH  21  24
ATOM     24  C   UNL     1      51.948   8.529  15.534  0.00  0.00    +0.000 A 
ATOM     25  C   UNL     1      51.854   8.216  16.884  0.00  0.00    +0.000 A 
ATOM     26  S   UNL     1      53.104   7.195  17.436  0.00  0.00    +0.000 S 
ATOM     27  C   UNL     1      53.759   7.066  15.870  0.00  0.00    +0.000 A 
ATOM     28  N   UNL     1      54.786   6.215  15.606  0.00  0.00    +0.000 NA
ATOM     29  C   UNL     1      55.155   6.195  14.368  0.00  0.00    +0.000 A 
ATOM     30  N   UNL     1      54.623   6.984  13.382  0.00  0.00    +0.000 N 
ATOM     31  C   UNL     1      53.629   7.903  13.616  0.00  0.00    +0.000 A 
ATOM     32  O   UNL     1      53.252   8.676  12.742  0.00  0.00    +0.000 OA
ATOM     33  C   UNL     1      53.109   7.889  14.969  0.00  0.00    +0.000 A 
ATOM     34  H   UNL     1      54.998   6.963  12.444  0.00  0.00    +0.000 HD
ENDBRANCH  21  24
ENDBRANCH  19  20
ENDBRANCH   4  19
TORSDOF 7
ENDMDL
MODEL 8
REMARK VINA RESULT:    -5.580      5.252      7.178
REMARK INTER + INTRA:          -8.876
REMARK INTER:                  -7.946
REMARK INTRA:                  -0.930
REMARK UNBOUND:                -1.012
REMARK  Name = 
REMARK  8 active torsions:
REMARK  status: ('A' for Active; 'I' for Inactive)
REMARK    1  A    between atoms: C_1  and  O_2
REMARK    2  A    between atoms: O_2  and  C_3
REMARK    3  A    between atoms: C_6  and  C_7
REMARK    4  A    between atoms: N_9  and  C_10
REMARK    5  A    between atoms: C_10  and  C_11
REMARK    6  A    between atoms: C_14  and  C_15
REMARK    7  A    between atoms: C_15  and  N_16
REMARK    8  A    between atoms: C_17  and  C_19
REMARK                            x       y       z     vdW  Elec       q    Type
REMARK                         _______ _______ _______ _____ _____    ______ ____
ROOT
ATOM      1  C   UNL     1      52.712   8.634   9.792  0.00  0.00    +0.000 A 
ATOM      2  C   UNL     1      52.711   9.614  10.793  0.00  0.00    +0.000 A 
ATOM      3  C   UNL     1      51.867   9.498  11.905  0.00  0.00    +0.000 A 
ATOM      4  C   UNL     1      51.024   8.389  12.048  0.00  0.00    +0.000 A 
ATOM      5  C   UNL     1      51.007   7.421  11.035  0.00  0.00    +0.000 A 
ATOM      6  C   UNL     1      51.850   7.538   9.924  0.00  0.00    +0.000 A 
ENDROOT
BRANCH   1   7
ATOM      7  C   UNL     1      53.660   8.724   8.622  0.00  0.00    +0.000 C 
BRANCH   7  10
ATOM      8  C   UNL     1      53.613   6.970   6.880  0.00  0.00    +0.000 C 
ATOM      9  O   UNL     1      52.967   7.684   6.119  0.00  0.00    +0.000 OA
ATOM     10  N   UNL     1      53.996   7.411   8.128  0.00  0.00    +0.000 N 
ATOM     11  H   UNL     1      54.519   6.781   8.723  0.00  0.00    +0.000 HD
BRANCH   8  15
ATOM     12  C   UNL     1      54.186   3.137   6.254  0.00  0.00    +0.000 A 
ATOM     13  C   UNL     1      55.262   3.813   5.704  0.00  0.00    +0.000 A 
ATOM     14  C   UNL     1      55.166   5.228   5.863  0.00  0.00    +0.000 A 
ATOM     15  C   UNL     1      54.024   5.611   6.540  0.00  0.00    +0.000 A 
ATOM     16  S   UNL     1      53.084   4.243   6.962  0.00  0.00    +0.000 S 
BRANCH  12  18
ATOM     17  C   UNL     1      54.858   0.983   6.911  0.00  0.00    +0.000 C 
ATOM     18  O   UNL     1      53.892   1.832   6.312  0.00  0.00    +0.000 OA
ENDBRANCH  12  18
ENDBRANCH   8  15
ENDBRANCH   7  10
ENDBRANCH   1   7
BRANCH   4  19
ATOM     19  C   UNL     1      50.146   8.234  13.265  0.00  0.00    +0.000 C 
BRANCH  19  20
ATOM     20  N   UNL     1      48.966   7.457  12.986  0.00  0.00    +0.000 N 
ATOM     21  C   UNL     1      47.727   7.922  13.351  0.00  0.00    +0.000 C 
ATOM     22  O   UNL     1      47.586   8.925  14.048  0.00  0.00    +0.000 OA
ATOM     23  H   UNL     1      49.039   6.742  12.267  0.00  0.00    +0.000 HD
BRANCH  21  24
ATOM     24  C   UNL     1      46.566   7.161  12.879  0.00  0.00    +0.000 A 
ATOM     25  C   UNL     1      45.594   7.781  12.106  0.00  0.00    +0.000 A 
ATOM     26  S   UNL     1      44.370   6.721  11.569  0.00  0.00    +0.000 S 
ATOM     27  C   UNL     1      45.149   5.383  12.277  0.00  0.00    +0.000 A 
ATOM     28  N   UNL     1      44.693   4.117  12.076  0.00  0.00    +0.000 NA
ATOM     29  C   UNL     1      45.404   3.200  12.643  0.00  0.00    +0.000 A 
ATOM     30  N   UNL     1      46.499   3.437  13.433  0.00  0.00    +0.000 N 
ATOM     31  C   UNL     1      46.956   4.701  13.715  0.00  0.00    +0.000 A 
ATOM     32  O   UNL     1      47.865   4.890  14.516  0.00  0.00    +0.000 OA
ATOM     33  C   UNL     1      46.255   5.760  13.016  0.00  0.00    +0.000 A 
ATOM     34  H   UNL     1      46.976   2.677  13.896  0.00  0.00    +0.000 HD
ENDBRANCH  21  24
ENDBRANCH  19  20
ENDBRANCH   4  19
TORSDOF 7
ENDMDL
