MODEL 1
REMARK VINA RESULT:    -8.445      0.000      0.000
REMARK INTER + INTRA:         -11.697
REMARK INTER:                 -10.914
REMARK INTRA:                  -0.783
REMARK UNBOUND:                -0.783
REMARK  Name = 
REMARK  5 active torsions:
REMARK  status: ('A' for Active; 'I' for Inactive)
REMARK    1  A    between atoms: C_8  and  C_9
REMARK    2  A    between atoms: N_11  and  C_12
REMARK    3  A    between atoms: C_12  and  C_13
REMARK    4  A    between atoms: C_16  and  O_17
REMARK    5  A    between atoms: O_17  and  C_18
REMARK                            x       y       z     vdW  Elec       q    Type
REMARK                         _______ _______ _______ _____ _____    ______ ____
ROOT
ATOM      1  C   UNL     1      47.844   6.873  13.726  0.00  0.00    +0.000 C 
ATOM      2  O   UNL     1      48.541   7.284  12.800  0.00  0.00    +0.000 OA
ATOM      3  N   UNL     1      46.478   6.859  13.639  0.00  0.00    +0.000 N 
ATOM      4  H   UNL     1      45.919   6.550  14.429  0.00  0.00    +0.000 HD
ENDROOT
BRANCH   1  12
ATOM      5  N   UNL     1      49.694   4.028  19.008  0.00  0.00    +0.000 N 
ATOM      6  C   UNL     1      48.907   4.091  17.892  0.00  0.00    +0.000 A 
ATOM      7  N   UNL     1      48.016   3.142  17.735  0.00  0.00    +0.000 NA
ATOM      8  N   UNL     1      47.180   3.192  16.642  0.00  0.00    +0.000 N 
ATOM      9  C   UNL     1      47.150   4.169  15.662  0.00  0.00    +0.000 A 
ATOM     10  O   UNL     1      46.327   4.135  14.750  0.00  0.00    +0.000 OA
ATOM     11  C   UNL     1      48.155   5.213  15.797  0.00  0.00    +0.000 A 
ATOM     12  C   UNL     1      48.454   6.368  14.969  0.00  0.00    +0.000 A 
ATOM     13  C   UNL     1      49.530   7.061  15.517  0.00  0.00    +0.000 A 
ATOM     14  S   UNL     1      50.145   6.372  16.949  0.00  0.00    +0.000 S 
ATOM     15  C   UNL     1      48.996   5.133  16.890  0.00  0.00    +0.000 A 
ATOM     16  H   UNL     1      49.702   3.130  19.475  0.00  0.00    +0.000 HD
ATOM     17  H   UNL     1      50.570   4.535  19.002  0.00  0.00    +0.000 HD
ATOM     18  H   UNL     1      46.483   2.456  16.584  0.00  0.00    +0.000 HD
ENDBRANCH   1  12
BRANCH   3  19
ATOM     19  C   UNL     1      45.775   7.293  12.459  0.00  0.00    +0.000 C 
BRANCH  19  20
ATOM     20  C   UNL     1      45.464   6.154  11.534  0.00  0.00    +0.000 A 
ATOM     21  C   UNL     1      44.643   5.088  11.920  0.00  0.00    +0.000 A 
ATOM     22  C   UNL     1      44.346   4.077  11.008  0.00  0.00    +0.000 A 
ATOM     23  C   UNL     1      44.886   4.169   9.733  0.00  0.00    +0.000 A 
ATOM     24  N   UNL     1      45.734   5.148   9.351  0.00  0.00    +0.000 NA
ATOM     25  C   UNL     1      45.996   6.118  10.250  0.00  0.00    +0.000 A 
BRANCH  23  26
ATOM     26  O   UNL     1      44.525   3.190   8.817  0.00  0.00    +0.000 OA
BRANCH  26  27
ATOM     27  C   UNL     1      45.531   2.655   8.048  0.00  0.00    +0.000 A 
ATOM     28  C   UNL     1      46.048   3.265   6.905  0.00  0.00    +0.000 A 
ATOM     29  C   UNL     1      47.069   2.640   6.192  0.00  0.00    +0.000 A 
ATOM     30  C   UNL     1      47.505   1.400   6.625  0.00  0.00    +0.000 A 
ATOM     31  N   UNL     1      46.998   0.760   7.703  0.00  0.00    +0.000 NA
ATOM     32  C   UNL     1      46.025   1.404   8.389  0.00  0.00    +0.000 A 
ENDBRANCH  26  27
ENDBRANCH  23  26
ENDBRANCH  19  20
ENDBRANCH   3  19
TORSDOF 5
ENDMDL
MODEL 2
REMARK VINA RESULT:    -8.389      1.544      2.104
REMARK INTER + INTRA:         -11.624
REMARK INTER:                 -11.447
REMARK INTRA:                  -0.177
REMARK UNBOUND:                -0.783
REMARK  Name = 
REMARK  5 active torsions:
REMARK  status: ('A' for Active; 'I' for Inactive)
REMARK    1  A    between atoms: C_8  and  C_9
REMARK    2  A    between atoms: N_11  and  C_12
REMARK    3  A    between atoms: C_12  and  C_13
REMARK    4  A    between atoms: C_16  and  O_17
REMARK    5  A    between atoms: O_17  and  C_18
REMARK                            x       y       z     vdW  Elec       q    Type
REMARK                         _______ _______ _______ _____ _____    ______ ____
ROOT
ATOM      1  C   UNL     1      46.485   4.463  14.325  0.00  0.00    +0.000 C 
ATOM      2  O   UNL     1      46.627   3.288  13.990  0.00  0.00    +0.000 OA
ATOM      3  N   UNL     1      45.365   5.171  13.980  0.00  0.00    +0.000 N 
ATOM      4  H   UNL     1      45.283   6.151  14.234  0.00  0.00    +0.000 HD
ENDROOT
BRANCH   1  12
ATOM      5  N   UNL     1      50.535   6.841  18.490  0.00  0.00    +0.000 N 
ATOM      6  C   UNL     1      49.583   5.929  18.129  0.00  0.00    +0.000 A 
ATOM      7  N   UNL     1      49.214   5.060  19.038  0.00  0.00    +0.000 NA
ATOM      8  N   UNL     1      48.230   4.148  18.723  0.00  0.00    +0.000 N 
ATOM      9  C   UNL     1      47.543   4.046  17.526  0.00  0.00    +0.000 A 
ATOM     10  O   UNL     1      46.649   3.219  17.370  0.00  0.00    +0.000 OA
ATOM     11  C   UNL     1      47.964   4.978  16.489  0.00  0.00    +0.000 A 
ATOM     12  C   UNL     1      47.513   5.156  15.121  0.00  0.00    +0.000 A 
ATOM     13  C   UNL     1      48.245   6.178  14.524  0.00  0.00    +0.000 A 
ATOM     14  S   UNL     1      49.404   6.894  15.548  0.00  0.00    +0.000 S 
ATOM     15  C   UNL     1      48.965   5.870  16.820  0.00  0.00    +0.000 A 
ATOM     16  H   UNL     1      51.055   6.608  19.327  0.00  0.00    +0.000 HD
ATOM     17  H   UNL     1      51.059   7.299  17.754  0.00  0.00    +0.000 HD
ATOM     18  H   UNL     1      47.951   3.521  19.471  0.00  0.00    +0.000 HD
ENDBRANCH   1  12
BRANCH   3  19
ATOM     19  C   UNL     1      44.279   4.586  13.237  0.00  0.00    +0.000 C 
BRANCH  19  20
ATOM     20  C   UNL     1      44.545   4.573  11.761  0.00  0.00    +0.000 A 
ATOM     21  C   UNL     1      45.453   5.454  11.164  0.00  0.00    +0.000 A 
ATOM     22  C   UNL     1      45.701   5.371   9.794  0.00  0.00    +0.000 A 
ATOM     23  C   UNL     1      45.024   4.402   9.067  0.00  0.00    +0.000 A 
ATOM     24  N   UNL     1      44.094   3.583   9.601  0.00  0.00    +0.000 NA
ATOM     25  C   UNL     1      43.882   3.678  10.929  0.00  0.00    +0.000 A 
BRANCH  23  26
ATOM     26  O   UNL     1      45.332   4.288   7.717  0.00  0.00    +0.000 OA
BRANCH  26  27
ATOM     27  C   UNL     1      46.116   3.223   7.345  0.00  0.00    +0.000 A 
ATOM     28  C   UNL     1      46.908   3.201   6.197  0.00  0.00    +0.000 A 
ATOM     29  C   UNL     1      47.668   2.070   5.906  0.00  0.00    +0.000 A 
ATOM     30  C   UNL     1      47.572   0.981   6.755  0.00  0.00    +0.000 A 
ATOM     31  N   UNL     1      46.783   0.952   7.853  0.00  0.00    +0.000 NA
ATOM     32  C   UNL     1      46.076   2.074   8.122  0.00  0.00    +0.000 A 
ENDBRANCH  26  27
ENDBRANCH  23  26
ENDBRANCH  19  20
ENDBRANCH   3  19
TORSDOF 5
ENDMDL
MODEL 3
REMARK VINA RESULT:    -8.227      1.657      2.310
REMARK INTER + INTRA:         -11.415
REMARK INTER:                 -10.900
REMARK INTRA:                  -0.515
REMARK UNBOUND:                -0.783
REMARK  Name = 
REMARK  5 active torsions:
REMARK  status: ('A' for Active; 'I' for Inactive)
REMARK    1  A    between atoms: C_8  and  C_9
REMARK    2  A    between atoms: N_11  and  C_12
REMARK    3  A    between atoms: C_12  and  C_13
REMARK    4  A    between atoms: C_16  and  O_17
REMARK    5  A    between atoms: O_17  and  C_18
REMARK                            x       y       z     vdW  Elec       q    Type
REMARK                         _______ _______ _______ _____ _____    ______ ____
ROOT
ATOM      1  C   UNL     1      47.848   5.911  14.543  0.00  0.00    +0.000 C 
ATOM      2  O   UNL     1      48.873   6.278  13.970  0.00  0.00    +0.000 OA
ATOM      3  N   UNL     1      46.609   6.153  14.012  0.00  0.00    +0.000 N 
ATOM      4  H   UNL     1      45.774   5.875  14.518  0.00  0.00    +0.000 HD
ENDROOT
BRANCH   1  12
ATOM      5  N   UNL     1      48.579   3.662  20.358  0.00  0.00    +0.000 N 
ATOM      6  C   UNL     1      48.636   4.683  19.451  0.00  0.00    +0.000 A 
ATOM      7  N   UNL     1      49.083   5.838  19.880  0.00  0.00    +0.000 NA
ATOM      8  N   UNL     1      49.190   6.881  18.987  0.00  0.00    +0.000 N 
ATOM      9  C   UNL     1      48.892   6.852  17.636  0.00  0.00    +0.000 A 
ATOM     10  O   UNL     1      49.069   7.835  16.920  0.00  0.00    +0.000 OA
ATOM     11  C   UNL     1      48.359   5.589  17.145  0.00  0.00    +0.000 A 
ATOM     12  C   UNL     1      47.912   5.186  15.824  0.00  0.00    +0.000 A 
ATOM     13  C   UNL     1      47.470   3.867  15.870  0.00  0.00    +0.000 A 
ATOM     14  S   UNL     1      47.592   3.145  17.410  0.00  0.00    +0.000 S 
ATOM     15  C   UNL     1      48.242   4.563  18.062  0.00  0.00    +0.000 A 
ATOM     16  H   UNL     1      48.635   3.947  21.328  0.00  0.00    +0.000 HD
ATOM     17  H   UNL     1      47.963   2.882  20.159  0.00  0.00    +0.000 HD
ATOM     18  H   UNL     1      49.576   7.744  19.357  0.00  0.00    +0.000 HD
ENDBRANCH   1  12
BRANCH   3  19
ATOM     19  C   UNL     1      46.427   6.819  12.748  0.00  0.00    +0.000 C 
BRANCH  19  20
ATOM     20  C   UNL     1      45.878   5.900  11.698  0.00  0.00    +0.000 A 
ATOM     21  C   UNL     1      46.030   6.161  10.332  0.00  0.00    +0.000 A 
ATOM     22  C   UNL     1      45.542   5.252   9.394  0.00  0.00    +0.000 A 
ATOM     23  C   UNL     1      44.914   4.107   9.861  0.00  0.00    +0.000 A 
ATOM     24  N   UNL     1      44.693   3.858  11.170  0.00  0.00    +0.000 NA
ATOM     25  C   UNL     1      45.185   4.749  12.055  0.00  0.00    +0.000 A 
BRANCH  23  26
ATOM     26  O   UNL     1      44.495   3.180   8.916  0.00  0.00    +0.000 OA
BRANCH  26  27
ATOM     27  C   UNL     1      45.465   2.619   8.120  0.00  0.00    +0.000 A 
ATOM     28  C   UNL     1      45.975   3.223   6.971  0.00  0.00    +0.000 A 
ATOM     29  C   UNL     1      46.959   2.571   6.229  0.00  0.00    +0.000 A 
ATOM     30  C   UNL     1      47.365   1.314   6.642  0.00  0.00    +0.000 A 
ATOM     31  N   UNL     1      46.862   0.681   7.727  0.00  0.00    +0.000 NA
ATOM     32  C   UNL     1      45.926   1.350   8.439  0.00  0.00    +0.000 A 
ENDBRANCH  26  27
ENDBRANCH  23  26
ENDBRANCH  19  20
ENDBRANCH   3  19
TORSDOF 5
ENDMDL
MODEL 4
REMARK VINA RESULT:    -8.115      2.314      3.744
REMARK INTER + INTRA:         -11.270
REMARK INTER:                 -10.392
REMARK INTRA:                  -0.878
REMARK UNBOUND:                -0.783
REMARK  Name = 
REMARK  5 active torsions:
REMARK  status: ('A' for Active; 'I' for Inactive)
REMARK    1  A    between atoms: C_8  and  C_9
REMARK    2  A    between atoms: N_11  and  C_12
REMARK    3  A    between atoms: C_12  and  C_13
REMARK    4  A    between atoms: C_16  and  O_17
REMARK    5  A    between atoms: O_17  and  C_18
REMARK                            x       y       z     vdW  Elec       q    Type
REMARK                         _______ _______ _______ _____ _____    ______ ____
ROOT
ATOM      1  C   UNL     1      47.415   5.850  13.971  0.00  0.00    +0.000 C 
ATOM      2  O   UNL     1      47.397   4.633  14.148  0.00  0.00    +0.000 OA
ATOM      3  N   UNL     1      46.307   6.522  13.527  0.00  0.00    +0.000 N 
ATOM      4  H   UNL     1      46.353   7.521  13.353  0.00  0.00    +0.000 HD
ENDROOT
BRANCH   1  12
ATOM      5  N   UNL     1      52.583   9.411  14.111  0.00  0.00    +0.000 N 
ATOM      6  C   UNL     1      51.490   8.910  13.463  0.00  0.00    +0.000 A 
ATOM      7  N   UNL     1      51.335   9.246  12.205  0.00  0.00    +0.000 NA
ATOM      8  N   UNL     1      50.265   8.731  11.507  0.00  0.00    +0.000 N 
ATOM      9  C   UNL     1      49.308   7.851  11.983  0.00  0.00    +0.000 A 
ATOM     10  O   UNL     1      48.418   7.419  11.255  0.00  0.00    +0.000 OA
ATOM     11  C   UNL     1      49.440   7.493  13.388  0.00  0.00    +0.000 A 
ATOM     12  C   UNL     1      48.630   6.639  14.239  0.00  0.00    +0.000 A 
ATOM     13  C   UNL     1      49.165   6.631  15.524  0.00  0.00    +0.000 A 
ATOM     14  S   UNL     1      50.565   7.586  15.702  0.00  0.00    +0.000 S 
ATOM     15  C   UNL     1      50.508   8.037  14.074  0.00  0.00    +0.000 A 
ATOM     16  H   UNL     1      53.030  10.196  13.653  0.00  0.00    +0.000 HD
ATOM     17  H   UNL     1      52.565   9.439  15.123  0.00  0.00    +0.000 HD
ATOM     18  H   UNL     1      50.209   8.989  10.527  0.00  0.00    +0.000 HD
ENDBRANCH   1  12
BRANCH   3  19
ATOM     19  C   UNL     1      45.054   5.861  13.269  0.00  0.00    +0.000 C 
BRANCH  19  20
ATOM     20  C   UNL     1      44.939   5.401  11.846  0.00  0.00    +0.000 A 
ATOM     21  C   UNL     1      45.792   5.875  10.843  0.00  0.00    +0.000 A 
ATOM     22  C   UNL     1      45.675   5.381   9.544  0.00  0.00    +0.000 A 
ATOM     23  C   UNL     1      44.701   4.425   9.295  0.00  0.00    +0.000 A 
ATOM     24  N   UNL     1      43.821   3.997  10.225  0.00  0.00    +0.000 NA
ATOM     25  C   UNL     1      43.964   4.483  11.475  0.00  0.00    +0.000 A 
BRANCH  23  26
ATOM     26  O   UNL     1      44.643   3.895   8.013  0.00  0.00    +0.000 OA
BRANCH  26  27
ATOM     27  C   UNL     1      45.642   3.022   7.654  0.00  0.00    +0.000 A 
ATOM     28  C   UNL     1      46.539   3.250   6.610  0.00  0.00    +0.000 A 
ATOM     29  C   UNL     1      47.518   2.301   6.323  0.00  0.00    +0.000 A 
ATOM     30  C   UNL     1      47.534   1.133   7.066  0.00  0.00    +0.000 A 
ATOM     31  N   UNL     1      46.655   0.860   8.056  0.00  0.00    +0.000 NA
ATOM     32  C   UNL     1      45.731   1.812   8.327  0.00  0.00    +0.000 A 
ENDBRANCH  26  27
ENDBRANCH  23  26
ENDBRANCH  19  20
ENDBRANCH   3  19
TORSDOF 5
ENDMDL
MODEL 5
REMARK VINA RESULT:    -7.981      3.524      4.415
REMARK INTER + INTRA:         -11.096
REMARK INTER:                 -10.210
REMARK INTRA:                  -0.886
REMARK UNBOUND:                -0.783
REMARK  Name = 
REMARK  5 active torsions:
REMARK  status: ('A' for Active; 'I' for Inactive)
REMARK    1  A    between atoms: C_8  and  C_9
REMARK    2  A    between atoms: N_11  and  C_12
REMARK    3  A    between atoms: C_12  and  C_13
REMARK    4  A    between atoms: C_16  and  O_17
REMARK    5  A    between atoms: O_17  and  C_18
REMARK                            x       y       z     vdW  Elec       q    Type
REMARK                         _______ _______ _______ _____ _____    ______ ____
ROOT
ATOM      1  C   UNL     1      45.555   8.194  12.211  0.00  0.00    +0.000 C 
ATOM      2  O   UNL     1      44.524   8.576  11.661  0.00  0.00    +0.000 OA
ATOM      3  N   UNL     1      45.591   7.027  12.926  0.00  0.00    +0.000 N 
ATOM      4  H   UNL     1      46.443   6.747  13.403  0.00  0.00    +0.000 HD
ENDROOT
BRANCH   1  12
ATOM      5  N   UNL     1      51.335  10.636  11.999  0.00  0.00    +0.000 N 
ATOM      6  C   UNL     1      50.487   9.566  12.067  0.00  0.00    +0.000 A 
ATOM      7  N   UNL     1      51.031   8.378  12.174  0.00  0.00    +0.000 NA
ATOM      8  N   UNL     1      50.208   7.279  12.283  0.00  0.00    +0.000 N 
ATOM      9  C   UNL     1      48.824   7.276  12.316  0.00  0.00    +0.000 A 
ATOM     10  O   UNL     1      48.190   6.234  12.461  0.00  0.00    +0.000 OA
ATOM     11  C   UNL     1      48.198   8.582  12.161  0.00  0.00    +0.000 A 
ATOM     12  C   UNL     1      46.801   8.974  12.115  0.00  0.00    +0.000 A 
ATOM     13  C   UNL     1      46.716  10.352  11.935  0.00  0.00    +0.000 A 
ATOM     14  S   UNL     1      48.227  11.135  11.835  0.00  0.00    +0.000 S 
ATOM     15  C   UNL     1      49.042   9.667  12.034  0.00  0.00    +0.000 A 
ATOM     16  H   UNL     1      52.296  10.406  11.775  0.00  0.00    +0.000 HD
ATOM     17  H   UNL     1      50.981  11.499  11.606  0.00  0.00    +0.000 HD
ATOM     18  H   UNL     1      50.676   6.386  12.402  0.00  0.00    +0.000 HD
ENDBRANCH   1  12
BRANCH   3  19
ATOM     19  C   UNL     1      44.445   6.165  13.056  0.00  0.00    +0.000 C 
BRANCH  19  20
ATOM     20  C   UNL     1      44.427   5.086  12.015  0.00  0.00    +0.000 A 
ATOM     21  C   UNL     1      43.722   5.226  10.814  0.00  0.00    +0.000 A 
ATOM     22  C   UNL     1      43.775   4.214   9.857  0.00  0.00    +0.000 A 
ATOM     23  C   UNL     1      44.536   3.089  10.139  0.00  0.00    +0.000 A 
ATOM     24  N   UNL     1      45.173   2.894  11.314  0.00  0.00    +0.000 NA
ATOM     25  C   UNL     1      45.113   3.894  12.217  0.00  0.00    +0.000 A 
BRANCH  23  26
ATOM     26  O   UNL     1      44.632   2.121   9.148  0.00  0.00    +0.000 OA
BRANCH  26  27
ATOM     27  C   UNL     1      45.718   2.194   8.309  0.00  0.00    +0.000 A 
ATOM     28  C   UNL     1      46.132   3.363   7.670  0.00  0.00    +0.000 A 
ATOM     29  C   UNL     1      47.247   3.334   6.835  0.00  0.00    +0.000 A 
ATOM     30  C   UNL     1      47.883   2.121   6.635  0.00  0.00    +0.000 A 
ATOM     31  N   UNL     1      47.485   0.961   7.205  0.00  0.00    +0.000 NA
ATOM     32  C   UNL     1      46.413   1.027   8.029  0.00  0.00    +0.000 A 
ENDBRANCH  26  27
ENDBRANCH  23  26
ENDBRANCH  19  20
ENDBRANCH   3  19
TORSDOF 5
ENDMDL
MODEL 6
REMARK VINA RESULT:    -7.787      1.405      1.867
REMARK INTER + INTRA:         -10.846
REMARK INTER:                  -9.946
REMARK INTRA:                  -0.900
REMARK UNBOUND:                -0.783
REMARK  Name = 
REMARK  5 active torsions:
REMARK  status: ('A' for Active; 'I' for Inactive)
REMARK    1  A    between atoms: C_8  and  C_9
REMARK    2  A    between atoms: N_11  and  C_12
REMARK    3  A    between atoms: C_12  and  C_13
REMARK    4  A    between atoms: C_16  and  O_17
REMARK    5  A    between atoms: O_17  and  C_18
REMARK                            x       y       z     vdW  Elec       q    Type
REMARK                         _______ _______ _______ _____ _____    ______ ____
ROOT
ATOM      1  C   UNL     1      48.882   7.335  15.052  0.00  0.00    +0.000 C 
ATOM      2  O   UNL     1      49.819   7.547  14.284  0.00  0.00    +0.000 OA
ATOM      3  N   UNL     1      47.593   7.639  14.703  0.00  0.00    +0.000 N 
ATOM      4  H   UNL     1      46.837   7.491  15.365  0.00  0.00    +0.000 HD
ENDROOT
BRANCH   1  12
ATOM      5  N   UNL     1      49.250   4.023  20.372  0.00  0.00    +0.000 N 
ATOM      6  C   UNL     1      48.881   4.151  19.062  0.00  0.00    +0.000 A 
ATOM      7  N   UNL     1      48.240   3.144  18.521  0.00  0.00    +0.000 NA
ATOM      8  N   UNL     1      47.819   3.250  17.214  0.00  0.00    +0.000 N 
ATOM      9  C   UNL     1      47.978   4.341  16.376  0.00  0.00    +0.000 A 
ATOM     10  O   UNL     1      47.520   4.343  15.235  0.00  0.00    +0.000 OA
ATOM     11  C   UNL     1      48.719   5.457  16.945  0.00  0.00    +0.000 A 
ATOM     12  C   UNL     1      49.107   6.736  16.379  0.00  0.00    +0.000 A 
ATOM     13  C   UNL     1      49.827   7.459  17.326  0.00  0.00    +0.000 A 
ATOM     14  S   UNL     1      50.021   6.654  18.816  0.00  0.00    +0.000 S 
ATOM     15  C   UNL     1      49.148   5.321  18.250  0.00  0.00    +0.000 A 
ATOM     16  H   UNL     1      49.232   3.076  20.731  0.00  0.00    +0.000 HD
ATOM     17  H   UNL     1      49.996   4.615  20.716  0.00  0.00    +0.000 HD
ATOM     18  H   UNL     1      47.295   2.460  16.851  0.00  0.00    +0.000 HD
ENDBRANCH   1  12
BRANCH   3  19
ATOM     19  C   UNL     1      47.249   8.193  13.419  0.00  0.00    +0.000 C 
BRANCH  19  20
ATOM     20  C   UNL     1      46.368   7.276  12.624  0.00  0.00    +0.000 A 
ATOM     21  C   UNL     1      45.321   7.758  11.831  0.00  0.00    +0.000 A 
ATOM     22  C   UNL     1      44.560   6.869  11.073  0.00  0.00    +0.000 A 
ATOM     23  C   UNL     1      44.876   5.519  11.140  0.00  0.00    +0.000 A 
ATOM     24  N   UNL     1      45.835   5.016  11.945  0.00  0.00    +0.000 NA
ATOM     25  C   UNL     1      46.563   5.900  12.658  0.00  0.00    +0.000 A 
BRANCH  23  26
ATOM     26  O   UNL     1      44.152   4.655  10.328  0.00  0.00    +0.000 OA
BRANCH  26  27
ATOM     27  C   UNL     1      44.867   3.890   9.438  0.00  0.00    +0.000 A 
ATOM     28  C   UNL     1      45.601   4.413   8.374  0.00  0.00    +0.000 A 
ATOM     29  C   UNL     1      46.293   3.552   7.525  0.00  0.00    +0.000 A 
ATOM     30  C   UNL     1      46.187   2.189   7.747  0.00  0.00    +0.000 A 
ATOM     31  N   UNL     1      45.452   1.646   8.743  0.00  0.00    +0.000 NA
ATOM     32  C   UNL     1      44.811   2.510   9.565  0.00  0.00    +0.000 A 
ENDBRANCH  26  27
ENDBRANCH  23  26
ENDBRANCH  19  20
ENDBRANCH   3  19
TORSDOF 5
ENDMDL
MODEL 7
REMARK VINA RESULT:    -7.740      1.832      2.856
REMARK INTER + INTRA:         -10.785
REMARK INTER:                 -10.251
REMARK INTRA:                  -0.534
REMARK UNBOUND:                -0.783
REMARK  Name = 
REMARK  5 active torsions:
REMARK  status: ('A' for Active; 'I' for Inactive)
REMARK    1  A    between atoms: C_8  and  C_9
REMARK    2  A    between atoms: N_11  and  C_12
REMARK    3  A    between atoms: C_12  and  C_13
REMARK    4  A    between atoms: C_16  and  O_17
REMARK    5  A    between atoms: O_17  and  C_18
REMARK                            x       y       z     vdW  Elec       q    Type
REMARK                         _______ _______ _______ _____ _____    ______ ____
ROOT
ATOM      1  C   UNL     1      46.064   4.759  14.019  0.00  0.00    +0.000 C 
ATOM      2  O   UNL     1      45.832   3.627  13.597  0.00  0.00    +0.000 OA
ATOM      3  N   UNL     1      45.299   5.831  13.641  0.00  0.00    +0.000 N 
ATOM      4  H   UNL     1      45.529   6.763  13.971  0.00  0.00    +0.000 HD
ENDROOT
BRANCH   1  12
ATOM      5  N   UNL     1      51.119   6.480  17.320  0.00  0.00    +0.000 N 
ATOM      6  C   UNL     1      50.271   6.631  16.258  0.00  0.00    +0.000 A 
ATOM      7  N   UNL     1      50.566   7.565  15.387  0.00  0.00    +0.000 NA
ATOM      8  N   UNL     1      49.756   7.723  14.284  0.00  0.00    +0.000 N 
ATOM      9  C   UNL     1      48.639   6.974  13.959  0.00  0.00    +0.000 A 
ATOM     10  O   UNL     1      48.014   7.175  12.921  0.00  0.00    +0.000 OA
ATOM     11  C   UNL     1      48.272   5.954  14.931  0.00  0.00    +0.000 A 
ATOM     12  C   UNL     1      47.171   5.008  14.958  0.00  0.00    +0.000 A 
ATOM     13  C   UNL     1      47.247   4.247  16.121  0.00  0.00    +0.000 A 
ATOM     14  S   UNL     1      48.570   4.636  17.123  0.00  0.00    +0.000 S 
ATOM     15  C   UNL     1      49.087   5.826  16.039  0.00  0.00    +0.000 A 
ATOM     16  H   UNL     1      51.744   7.260  17.482  0.00  0.00    +0.000 HD
ATOM     17  H   UNL     1      50.767   6.011  18.146  0.00  0.00    +0.000 HD
ATOM     18  H   UNL     1      50.046   8.434  13.620  0.00  0.00    +0.000 HD
ENDBRANCH   1  12
BRANCH   3  19
ATOM     19  C   UNL     1      44.169   5.701  12.758  0.00  0.00    +0.000 C 
BRANCH  19  20
ATOM     20  C   UNL     1      44.583   5.391  11.350  0.00  0.00    +0.000 A 
ATOM     21  C   UNL     1      45.717   5.966  10.767  0.00  0.00    +0.000 A 
ATOM     22  C   UNL     1      46.087   5.610   9.471  0.00  0.00    +0.000 A 
ATOM     23  C   UNL     1      45.300   4.685   8.800  0.00  0.00    +0.000 A 
ATOM     24  N   UNL     1      44.164   4.163   9.309  0.00  0.00    +0.000 NA
ATOM     25  C   UNL     1      43.837   4.517  10.568  0.00  0.00    +0.000 A 
BRANCH  23  26
ATOM     26  O   UNL     1      45.721   4.290   7.536  0.00  0.00    +0.000 OA
BRANCH  26  27
ATOM     27  C   UNL     1      46.257   3.031   7.423  0.00  0.00    +0.000 A 
ATOM     28  C   UNL     1      45.838   1.934   8.175  0.00  0.00    +0.000 A 
ATOM     29  C   UNL     1      46.448   0.695   7.987  0.00  0.00    +0.000 A 
ATOM     30  C   UNL     1      47.490   0.611   7.079  0.00  0.00    +0.000 A 
ATOM     31  N   UNL     1      47.950   1.662   6.364  0.00  0.00    +0.000 NA
ATOM     32  C   UNL     1      47.321   2.845   6.552  0.00  0.00    +0.000 A 
ENDBRANCH  26  27
ENDBRANCH  23  26
ENDBRANCH  19  20
ENDBRANCH   3  19
TORSDOF 5
ENDMDL
MODEL 8
REMARK VINA RESULT:    -7.727      2.365      3.011
REMARK INTER + INTRA:         -10.769
REMARK INTER:                  -9.843
REMARK INTRA:                  -0.926
REMARK UNBOUND:                -0.783
REMARK  Name = 
REMARK  5 active torsions:
REMARK  status: ('A' for Active; 'I' for Inactive)
REMARK    1  A    between atoms: C_8  and  C_9
REMARK    2  A    between atoms: N_11  and  C_12
REMARK    3  A    between atoms: C_12  and  C_13
REMARK    4  A    between atoms: C_16  and  O_17
REMARK    5  A    between atoms: O_17  and  C_18
REMARK                            x       y       z     vdW  Elec       q    Type
REMARK                         _______ _______ _______ _____ _____    ______ ____
ROOT
ATOM      1  C   UNL     1      47.053   7.807  13.441  0.00  0.00    +0.000 C 
ATOM      2  O   UNL     1      46.229   8.713  13.323  0.00  0.00    +0.000 OA
ATOM      3  N   UNL     1      46.677   6.492  13.396  0.00  0.00    +0.000 N 
ATOM      4  H   UNL     1      47.368   5.759  13.532  0.00  0.00    +0.000 HD
ENDROOT
BRANCH   1  12
ATOM      5  N   UNL     1      53.085   8.461  15.054  0.00  0.00    +0.000 N 
ATOM      6  C   UNL     1      51.863   7.865  15.198  0.00  0.00    +0.000 A 
ATOM      7  N   UNL     1      51.744   6.966  16.143  0.00  0.00    +0.000 NA
ATOM      8  N   UNL     1      50.518   6.370  16.343  0.00  0.00    +0.000 N 
ATOM      9  C   UNL     1      49.346   6.630  15.654  0.00  0.00    +0.000 A 
ATOM     10  O   UNL     1      48.293   6.069  15.948  0.00  0.00    +0.000 OA
ATOM     11  C   UNL     1      49.464   7.600  14.575  0.00  0.00    +0.000 A 
ATOM     12  C   UNL     1      48.485   8.103  13.627  0.00  0.00    +0.000 A 
ATOM     13  C   UNL     1      49.097   9.014  12.773  0.00  0.00    +0.000 A 
ATOM     14  S   UNL     1      50.753   9.263  13.091  0.00  0.00    +0.000 S 
ATOM     15  C   UNL     1      50.707   8.170  14.380  0.00  0.00    +0.000 A 
ATOM     16  H   UNL     1      53.852   7.978  15.507  0.00  0.00    +0.000 HD
ATOM     17  H   UNL     1      53.298   8.902  14.169  0.00  0.00    +0.000 HD
ATOM     18  H   UNL     1      50.467   5.708  17.111  0.00  0.00    +0.000 HD
ENDBRANCH   1  12
BRANCH   3  19
ATOM     19  C   UNL     1      45.313   6.084  13.181  0.00  0.00    +0.000 C 
BRANCH  19  20
ATOM     20  C   UNL     1      45.098   5.526  11.806  0.00  0.00    +0.000 A 
ATOM     21  C   UNL     1      45.895   5.905  10.720  0.00  0.00    +0.000 A 
ATOM     22  C   UNL     1      45.686   5.322   9.471  0.00  0.00    +0.000 A 
ATOM     23  C   UNL     1      44.679   4.374   9.353  0.00  0.00    +0.000 A 
ATOM     24  N   UNL     1      43.852   4.036  10.365  0.00  0.00    +0.000 NA
ATOM     25  C   UNL     1      44.083   4.608  11.564  0.00  0.00    +0.000 A 
BRANCH  23  26
ATOM     26  O   UNL     1      44.530   3.754   8.119  0.00  0.00    +0.000 OA
BRANCH  26  27
ATOM     27  C   UNL     1      45.565   2.959   7.692  0.00  0.00    +0.000 A 
ATOM     28  C   UNL     1      46.391   3.268   6.611  0.00  0.00    +0.000 A 
ATOM     29  C   UNL     1      47.416   2.393   6.255  0.00  0.00    +0.000 A 
ATOM     30  C   UNL     1      47.548   1.215   6.969  0.00  0.00    +0.000 A 
ATOM     31  N   UNL     1      46.740   0.864   7.995  0.00  0.00    +0.000 NA
ATOM     32  C   UNL     1      45.770   1.745   8.332  0.00  0.00    +0.000 A 
ENDBRANCH  26  27
ENDBRANCH  23  26
ENDBRANCH  19  20
ENDBRANCH   3  19
TORSDOF 5
ENDMDL
MODEL 9
REMARK VINA RESULT:    -7.299      3.782      8.508
REMARK INTER + INTRA:         -10.215
REMARK INTER:                  -9.896
REMARK INTRA:                  -0.319
REMARK UNBOUND:                -0.783
REMARK  Name = 
REMARK  5 active torsions:
REMARK  status: ('A' for Active; 'I' for Inactive)
REMARK    1  A    between atoms: C_8  and  C_9
REMARK    2  A    between atoms: N_11  and  C_12
REMARK    3  A    between atoms: C_12  and  C_13
REMARK    4  A    between atoms: C_16  and  O_17
REMARK    5  A    between atoms: O_17  and  C_18
REMARK                            x       y       z     vdW  Elec       q    Type
REMARK                         _______ _______ _______ _____ _____    ______ ____
ROOT
ATOM      1  C   UNL     1      48.175   6.230  14.570  0.00  0.00    +0.000 C 
ATOM      2  O   UNL     1      49.307   6.631  14.308  0.00  0.00    +0.000 OA
ATOM      3  N   UNL     1      47.837   5.824  15.833  0.00  0.00    +0.000 N 
ATOM      4  H   UNL     1      46.907   5.461  16.021  0.00  0.00    +0.000 HD
ENDROOT
BRANCH   1  12
ATOM      5  N   UNL     1      43.780   4.993  10.261  0.00  0.00    +0.000 N 
ATOM      6  C   UNL     1      44.625   4.597  11.260  0.00  0.00    +0.000 A 
ATOM      7  N   UNL     1      44.648   3.320  11.552  0.00  0.00    +0.000 NA
ATOM      8  N   UNL     1      45.513   2.877  12.528  0.00  0.00    +0.000 N 
ATOM      9  C   UNL     1      46.411   3.643  13.252  0.00  0.00    +0.000 A 
ATOM     10  O   UNL     1      47.171   3.133  14.071  0.00  0.00    +0.000 OA
ATOM     11  C   UNL     1      46.377   5.071  12.970  0.00  0.00    +0.000 A 
ATOM     12  C   UNL     1      47.129   6.177  13.534  0.00  0.00    +0.000 A 
ATOM     13  C   UNL     1      46.716   7.365  12.938  0.00  0.00    +0.000 A 
ATOM     14  S   UNL     1      45.499   7.168  11.760  0.00  0.00    +0.000 S 
ATOM     15  C   UNL     1      45.487   5.494  12.002  0.00  0.00    +0.000 A 
ATOM     16  H   UNL     1      43.064   4.320  10.015  0.00  0.00    +0.000 HD
ATOM     17  H   UNL     1      43.505   5.967  10.228  0.00  0.00    +0.000 HD
ATOM     18  H   UNL     1      45.522   1.876  12.692  0.00  0.00    +0.000 HD
ENDBRANCH   1  12
BRANCH   3  19
ATOM     19  C   UNL     1      48.766   5.867  16.933  0.00  0.00    +0.000 C 
BRANCH  19  20
ATOM     20  C   UNL     1      49.459   4.553  17.141  0.00  0.00    +0.000 A 
ATOM     21  C   UNL     1      48.771   3.336  17.096  0.00  0.00    +0.000 A 
ATOM     22  C   UNL     1      49.469   2.139  17.247  0.00  0.00    +0.000 A 
ATOM     23  C   UNL     1      50.841   2.205  17.442  0.00  0.00    +0.000 A 
ATOM     24  N   UNL     1      51.524   3.364  17.557  0.00  0.00    +0.000 NA
ATOM     25  C   UNL     1      50.825   4.505  17.395  0.00  0.00    +0.000 A 
BRANCH  23  26
ATOM     26  O   UNL     1      51.530   1.001  17.524  0.00  0.00    +0.000 OA
BRANCH  26  27
ATOM     27  C   UNL     1      52.899   1.072  17.614  0.00  0.00    +0.000 A 
ATOM     28  C   UNL     1      53.773   0.437  16.732  0.00  0.00    +0.000 A 
ATOM     29  C   UNL     1      55.149   0.569  16.910  0.00  0.00    +0.000 A 
ATOM     30  C   UNL     1      55.601   1.300  17.995  0.00  0.00    +0.000 A 
ATOM     31  N   UNL     1      54.784   1.894  18.893  0.00  0.00    +0.000 NA
ATOM     32  C   UNL     1      53.453   1.767  18.680  0.00  0.00    +0.000 A 
ENDBRANCH  26  27
ENDBRANCH  23  26
ENDBRANCH  19  20
ENDBRANCH   3  19
TORSDOF 5
ENDMDL
