MODEL 1
REMARK VINA RESULT:    -8.416      0.000      0.000
REMARK INTER + INTRA:         -12.997
REMARK INTER:                 -11.861
REMARK INTRA:                  -1.136
REMARK UNBOUND:                -1.136
REMARK  Name = 
REMARK  7 active torsions:
REMARK  status: ('A' for Active; 'I' for Inactive)
REMARK    1  A    between atoms: C_2  and  C_20
REMARK    2  A    between atoms: N_3  and  C_4
REMARK    3  A    between atoms: C_4  and  C_5
REMARK    4  A    between atoms: C_8  and  C_9
REMARK    5  A    between atoms: C_9  and  N_10
REMARK    6  A    between atoms: N_10  and  C_11
REMARK    7  A    between atoms: C_11  and  C_12
REMARK                            x       y       z     vdW  Elec       q    Type
REMARK                         _______ _______ _______ _____ _____    ______ ____
ROOT
ATOM      1  C   UNL     1      46.936   8.274  12.706  0.00  0.00    +0.000 C 
ENDROOT
BRANCH   1   2
ATOM      2  C   UNL     1      46.055   7.146  12.225  0.00  0.00    +0.000 A 
ATOM      3  C   UNL     1      44.913   6.778  12.947  0.00  0.00    +0.000 A 
ATOM      4  C   UNL     1      44.123   5.704  12.527  0.00  0.00    +0.000 A 
ATOM      5  C   UNL     1      44.463   4.964  11.385  0.00  0.00    +0.000 A 
ATOM      6  C   UNL     1      45.625   5.312  10.683  0.00  0.00    +0.000 A 
ATOM      7  C   UNL     1      46.414   6.389  11.101  0.00  0.00    +0.000 A 
BRANCH   5   8
ATOM      8  C   UNL     1      43.620   3.790  10.943  0.00  0.00    +0.000 C 
BRANCH   8   9
ATOM      9  N   UNL     1      43.841   3.457   9.540  0.00  0.00    +0.000 NA
ATOM     10  H   UNL     1      44.426   4.171   9.103  0.00  0.00    +0.000 HD
BRANCH   9  11
ATOM     11  C   UNL     1      44.544   2.165   9.419  0.00  0.00    +0.000 C 
BRANCH  11  12
ATOM     12  C   UNL     1      45.654   2.169   8.376  0.00  0.00    +0.000 A 
ATOM     13  N   UNL     1      45.900   3.330   7.728  0.00  0.00    +0.000 NA
ATOM     14  C   UNL     1      46.897   3.303   6.819  0.00  0.00    +0.000 A 
ATOM     15  C   UNL     1      47.650   2.186   6.548  0.00  0.00    +0.000 A 
ATOM     16  C   UNL     1      47.327   1.065   7.271  0.00  0.00    +0.000 A 
ATOM     17  N   UNL     1      46.345   1.026   8.189  0.00  0.00    +0.000 NA
ENDBRANCH  11  12
ENDBRANCH   9  11
ENDBRANCH   8   9
ENDBRANCH   5   8
ENDBRANCH   1   2
BRANCH   1  20
ATOM     18  O   UNL     1      49.033   6.401  13.307  0.00  0.00    +0.000 OA
ATOM     19  C   UNL     1      48.424   6.976  14.200  0.00  0.00    +0.000 C 
ATOM     20  N   UNL     1      47.465   7.938  13.998  0.00  0.00    +0.000 N 
ATOM     21  H   UNL     1      46.892   8.211  14.782  0.00  0.00    +0.000 HD
BRANCH  19  22
ATOM     22  C   UNL     1      48.479   6.579  15.602  0.00  0.00    +0.000 A 
ATOM     23  C   UNL     1      49.035   7.374  16.587  0.00  0.00    +0.000 A 
ATOM     24  S   UNL     1      49.466   6.456  17.973  0.00  0.00    +0.000 S 
ATOM     25  C   UNL     1      48.792   5.035  17.313  0.00  0.00    +0.000 A 
ATOM     26  N   UNL     1      48.937   3.814  17.894  0.00  0.00    +0.000 NA
ATOM     27  C   UNL     1      48.327   2.856  17.273  0.00  0.00    +0.000 A 
ATOM     28  N   UNL     1      47.543   3.016  16.156  0.00  0.00    +0.000 N 
ATOM     29  C   UNL     1      47.338   4.231  15.554  0.00  0.00    +0.000 A 
ATOM     30  O   UNL     1      46.560   4.373  14.624  0.00  0.00    +0.000 OA
ATOM     31  C   UNL     1      48.123   5.299  16.138  0.00  0.00    +0.000 A 
ATOM     32  H   UNL     1      47.020   2.239  15.772  0.00  0.00    +0.000 HD
ENDBRANCH  19  22
ENDBRANCH   1  20
TORSDOF 7
ENDMDL
MODEL 2
REMARK VINA RESULT:    -7.911      1.451      2.037
REMARK INTER + INTRA:         -12.285
REMARK INTER:                 -11.059
REMARK INTRA:                  -1.226
REMARK UNBOUND:                -1.136
REMARK  Name = 
REMARK  7 active torsions:
REMARK  status: ('A' for Active; 'I' for Inactive)
REMARK    1  A    between atoms: C_2  and  C_20
REMARK    2  A    between atoms: N_3  and  C_4
REMARK    3  A    between atoms: C_4  and  C_5
REMARK    4  A    between atoms: C_8  and  C_9
REMARK    5  A    between atoms: C_9  and  N_10
REMARK    6  A    between atoms: N_10  and  C_11
REMARK    7  A    between atoms: C_11  and  C_12
REMARK                            x       y       z     vdW  Elec       q    Type
REMARK                         _______ _______ _______ _____ _____    ______ ____
ROOT
ATOM      1  C   UNL     1      48.515   6.614  13.353  0.00  0.00    +0.000 C 
ENDROOT
BRANCH   1   2
ATOM      2  C   UNL     1      47.236   6.162  12.689  0.00  0.00    +0.000 A 
ATOM      3  C   UNL     1      46.850   6.693  11.452  0.00  0.00    +0.000 A 
ATOM      4  C   UNL     1      45.643   6.308  10.860  0.00  0.00    +0.000 A 
ATOM      5  C   UNL     1      44.788   5.397  11.497  0.00  0.00    +0.000 A 
ATOM      6  C   UNL     1      45.159   4.893  12.750  0.00  0.00    +0.000 A 
ATOM      7  C   UNL     1      46.368   5.275  13.341  0.00  0.00    +0.000 A 
BRANCH   5   8
ATOM      8  C   UNL     1      43.474   4.998  10.865  0.00  0.00    +0.000 C 
BRANCH   8   9
ATOM      9  N   UNL     1      43.658   4.445   9.527  0.00  0.00    +0.000 NA
ATOM     10  H   UNL     1      44.313   5.024   9.000  0.00  0.00    +0.000 HD
BRANCH   9  11
ATOM     11  C   UNL     1      44.222   3.084   9.603  0.00  0.00    +0.000 C 
BRANCH  11  12
ATOM     12  C   UNL     1      45.346   2.832   8.606  0.00  0.00    +0.000 A 
ATOM     13  N   UNL     1      45.856   1.582   8.540  0.00  0.00    +0.000 NA
ATOM     14  C   UNL     1      46.841   1.390   7.639  0.00  0.00    +0.000 A 
ATOM     15  C   UNL     1      47.319   2.375   6.809  0.00  0.00    +0.000 A 
ATOM     16  C   UNL     1      46.722   3.605   6.948  0.00  0.00    +0.000 A 
ATOM     17  N   UNL     1      45.737   3.862   7.827  0.00  0.00    +0.000 NA
ENDBRANCH  11  12
ENDBRANCH   9  11
ENDBRANCH   8   9
ENDBRANCH   5   8
ENDBRANCH   1   2
BRANCH   1  20
ATOM     18  O   UNL     1      50.410   7.299  15.403  0.00  0.00    +0.000 OA
ATOM     19  C   UNL     1      49.216   7.202  15.653  0.00  0.00    +0.000 C 
ATOM     20  N   UNL     1      48.239   6.955  14.720  0.00  0.00    +0.000 N 
ATOM     21  H   UNL     1      47.320   6.706  15.049  0.00  0.00    +0.000 HD
BRANCH  19  22
ATOM     22  C   UNL     1      48.677   7.131  17.006  0.00  0.00    +0.000 A 
ATOM     23  C   UNL     1      48.418   8.253  17.771  0.00  0.00    +0.000 A 
ATOM     24  S   UNL     1      48.341   7.872  19.444  0.00  0.00    +0.000 S 
ATOM     25  C   UNL     1      48.520   6.205  19.133  0.00  0.00    +0.000 A 
ATOM     26  N   UNL     1      48.696   5.287  20.122  0.00  0.00    +0.000 NA
ATOM     27  C   UNL     1      48.776   4.065  19.702  0.00  0.00    +0.000 A 
ATOM     28  N   UNL     1      48.643   3.673  18.392  0.00  0.00    +0.000 N 
ATOM     29  C   UNL     1      48.430   4.556  17.364  0.00  0.00    +0.000 A 
ATOM     30  O   UNL     1      48.214   4.185  16.222  0.00  0.00    +0.000 OA
ATOM     31  C   UNL     1      48.481   5.943  17.781  0.00  0.00    +0.000 A 
ATOM     32  H   UNL     1      48.625   2.692  18.142  0.00  0.00    +0.000 HD
ENDBRANCH  19  22
ENDBRANCH   1  20
TORSDOF 7
ENDMDL
MODEL 3
REMARK VINA RESULT:    -7.768      1.639      2.120
REMARK INTER + INTRA:         -12.084
REMARK INTER:                 -11.143
REMARK INTRA:                  -0.941
REMARK UNBOUND:                -1.136
REMARK  Name = 
REMARK  7 active torsions:
REMARK  status: ('A' for Active; 'I' for Inactive)
REMARK    1  A    between atoms: C_2  and  C_20
REMARK    2  A    between atoms: N_3  and  C_4
REMARK    3  A    between atoms: C_4  and  C_5
REMARK    4  A    between atoms: C_8  and  C_9
REMARK    5  A    between atoms: C_9  and  N_10
REMARK    6  A    between atoms: N_10  and  C_11
REMARK    7  A    between atoms: C_11  and  C_12
REMARK                            x       y       z     vdW  Elec       q    Type
REMARK                         _______ _______ _______ _____ _____    ______ ____
ROOT
ATOM      1  C   UNL     1      48.151   7.212  13.875  0.00  0.00    +0.000 C 
ENDROOT
BRANCH   1   2
ATOM      2  C   UNL     1      47.185   6.310  13.145  0.00  0.00    +0.000 A 
ATOM      3  C   UNL     1      46.720   6.648  11.869  0.00  0.00    +0.000 A 
ATOM      4  C   UNL     1      45.791   5.835  11.212  0.00  0.00    +0.000 A 
ATOM      5  C   UNL     1      45.294   4.675  11.822  0.00  0.00    +0.000 A 
ATOM      6  C   UNL     1      45.735   4.355  13.113  0.00  0.00    +0.000 A 
ATOM      7  C   UNL     1      46.667   5.166  13.769  0.00  0.00    +0.000 A 
BRANCH   5   8
ATOM      8  C   UNL     1      44.274   3.807  11.120  0.00  0.00    +0.000 C 
BRANCH   8   9
ATOM      9  N   UNL     1      44.872   2.592  10.578  0.00  0.00    +0.000 NA
ATOM     10  H   UNL     1      44.574   1.785  11.128  0.00  0.00    +0.000 HD
BRANCH   9  11
ATOM     11  C   UNL     1      44.433   2.374   9.186  0.00  0.00    +0.000 C 
BRANCH  11  12
ATOM     12  C   UNL     1      45.581   2.313   8.187  0.00  0.00    +0.000 A 
ATOM     13  N   UNL     1      46.351   1.202   8.186  0.00  0.00    +0.000 NA
ATOM     14  C   UNL     1      47.352   1.174   7.281  0.00  0.00    +0.000 A 
ATOM     15  C   UNL     1      47.599   2.188   6.386  0.00  0.00    +0.000 A 
ATOM     16  C   UNL     1      46.749   3.264   6.463  0.00  0.00    +0.000 A 
ATOM     17  N   UNL     1      45.735   3.353   7.342  0.00  0.00    +0.000 NA
ENDBRANCH  11  12
ENDBRANCH   9  11
ENDBRANCH   8   9
ENDBRANCH   5   8
ENDBRANCH   1   2
BRANCH   1  20
ATOM     18  O   UNL     1      48.609   8.226  16.526  0.00  0.00    +0.000 OA
ATOM     19  C   UNL     1      48.945   7.091  16.217  0.00  0.00    +0.000 C 
ATOM     20  N   UNL     1      48.695   6.505  15.000  0.00  0.00    +0.000 N 
ATOM     21  H   UNL     1      49.174   5.646  14.778  0.00  0.00    +0.000 HD
BRANCH  19  22
ATOM     22  C   UNL     1      49.840   6.266  17.020  0.00  0.00    +0.000 A 
ATOM     23  C   UNL     1      51.052   6.722  17.502  0.00  0.00    +0.000 A 
ATOM     24  S   UNL     1      52.104   5.424  17.900  0.00  0.00    +0.000 S 
ATOM     25  C   UNL     1      50.899   4.266  17.556  0.00  0.00    +0.000 A 
ATOM     26  N   UNL     1      51.150   2.929  17.532  0.00  0.00    +0.000 NA
ATOM     27  C   UNL     1      50.108   2.200  17.290  0.00  0.00    +0.000 A 
ATOM     28  N   UNL     1      48.832   2.680  17.124  0.00  0.00    +0.000 N 
ATOM     29  C   UNL     1      48.523   4.016  17.173  0.00  0.00    +0.000 A 
ATOM     30  O   UNL     1      47.373   4.420  17.124  0.00  0.00    +0.000 OA
ATOM     31  C   UNL     1      49.688   4.869  17.298  0.00  0.00    +0.000 A 
ATOM     32  H   UNL     1      48.047   2.049  17.027  0.00  0.00    +0.000 HD
ENDBRANCH  19  22
ENDBRANCH   1  20
TORSDOF 7
ENDMDL
MODEL 4
REMARK VINA RESULT:    -7.333      2.363      3.080
REMARK INTER + INTRA:         -11.470
REMARK INTER:                 -10.412
REMARK INTRA:                  -1.058
REMARK UNBOUND:                -1.136
REMARK  Name = 
REMARK  7 active torsions:
REMARK  status: ('A' for Active; 'I' for Inactive)
REMARK    1  A    between atoms: C_2  and  C_20
REMARK    2  A    between atoms: N_3  and  C_4
REMARK    3  A    between atoms: C_4  and  C_5
REMARK    4  A    between atoms: C_8  and  C_9
REMARK    5  A    between atoms: C_9  and  N_10
REMARK    6  A    between atoms: N_10  and  C_11
REMARK    7  A    between atoms: C_11  and  C_12
REMARK                            x       y       z     vdW  Elec       q    Type
REMARK                         _______ _______ _______ _____ _____    ______ ____
ROOT
ATOM      1  C   UNL     1      47.447   4.271  14.924  0.00  0.00    +0.000 C 
ENDROOT
BRANCH   1   2
ATOM      2  C   UNL     1      46.417   4.406  13.829  0.00  0.00    +0.000 A 
ATOM      3  C   UNL     1      45.993   3.281  13.109  0.00  0.00    +0.000 A 
ATOM      4  C   UNL     1      45.072   3.413  12.064  0.00  0.00    +0.000 A 
ATOM      5  C   UNL     1      44.567   4.671  11.705  0.00  0.00    +0.000 A 
ATOM      6  C   UNL     1      45.017   5.799  12.404  0.00  0.00    +0.000 A 
ATOM      7  C   UNL     1      45.935   5.667  13.452  0.00  0.00    +0.000 A 
BRANCH   5   8
ATOM      8  C   UNL     1      43.588   4.814  10.562  0.00  0.00    +0.000 C 
BRANCH   8   9
ATOM      9  N   UNL     1      43.925   3.940   9.443  0.00  0.00    +0.000 NA
ATOM     10  H   UNL     1      43.119   3.845   8.823  0.00  0.00    +0.000 HD
BRANCH   9  11
ATOM     11  C   UNL     1      45.034   4.511   8.655  0.00  0.00    +0.000 C 
BRANCH  11  12
ATOM     12  C   UNL     1      45.859   3.466   7.916  0.00  0.00    +0.000 A 
ATOM     13  N   UNL     1      45.990   2.250   8.493  0.00  0.00    +0.000 NA
ATOM     14  C   UNL     1      46.717   1.344   7.807  0.00  0.00    +0.000 A 
ATOM     15  C   UNL     1      47.296   1.596   6.587  0.00  0.00    +0.000 A 
ATOM     16  C   UNL     1      47.090   2.858   6.084  0.00  0.00    +0.000 A 
ATOM     17  N   UNL     1      46.377   3.806   6.718  0.00  0.00    +0.000 NA
ENDBRANCH  11  12
ENDBRANCH   9  11
ENDBRANCH   8   9
ENDBRANCH   5   8
ENDBRANCH   1   2
BRANCH   1  20
ATOM     18  O   UNL     1      49.742   5.195  16.388  0.00  0.00    +0.000 OA
ATOM     19  C   UNL     1      48.731   5.879  16.302  0.00  0.00    +0.000 C 
ATOM     20  N   UNL     1      47.623   5.546  15.561  0.00  0.00    +0.000 N 
ATOM     21  H   UNL     1      46.778   6.076  15.706  0.00  0.00    +0.000 HD
BRANCH  19  22
ATOM     22  C   UNL     1      48.471   7.046  17.135  0.00  0.00    +0.000 A 
ATOM     23  C   UNL     1      48.901   8.318  16.803  0.00  0.00    +0.000 A 
ATOM     24  S   UNL     1      48.958   9.345  18.178  0.00  0.00    +0.000 S 
ATOM     25  C   UNL     1      48.286   8.140  19.180  0.00  0.00    +0.000 A 
ATOM     26  N   UNL     1      48.190   8.275  20.530  0.00  0.00    +0.000 NA
ATOM     27  C   UNL     1      47.619   7.276  21.122  0.00  0.00    +0.000 A 
ATOM     28  N   UNL     1      47.088   6.181  20.485  0.00  0.00    +0.000 N 
ATOM     29  C   UNL     1      47.129   6.016  19.123  0.00  0.00    +0.000 A 
ATOM     30  O   UNL     1      46.566   5.089  18.564  0.00  0.00    +0.000 OA
ATOM     31  C   UNL     1      47.889   7.044  18.444  0.00  0.00    +0.000 A 
ATOM     32  H   UNL     1      46.574   5.477  21.000  0.00  0.00    +0.000 HD
ENDBRANCH  19  22
ENDBRANCH   1  20
TORSDOF 7
ENDMDL
MODEL 5
REMARK VINA RESULT:    -7.094      2.205      3.557
REMARK INTER + INTRA:         -11.133
REMARK INTER:                 -10.346
REMARK INTRA:                  -0.787
REMARK UNBOUND:                -1.136
REMARK  Name = 
REMARK  7 active torsions:
REMARK  status: ('A' for Active; 'I' for Inactive)
REMARK    1  A    between atoms: C_2  and  C_20
REMARK    2  A    between atoms: N_3  and  C_4
REMARK    3  A    between atoms: C_4  and  C_5
REMARK    4  A    between atoms: C_8  and  C_9
REMARK    5  A    between atoms: C_9  and  N_10
REMARK    6  A    between atoms: N_10  and  C_11
REMARK    7  A    between atoms: C_11  and  C_12
REMARK                            x       y       z     vdW  Elec       q    Type
REMARK                         _______ _______ _______ _____ _____    ______ ____
ROOT
ATOM      1  C   UNL     1      47.534   3.481  15.258  0.00  0.00    +0.000 C 
ENDROOT
BRANCH   1   2
ATOM      2  C   UNL     1      46.888   4.078  14.031  0.00  0.00    +0.000 A 
ATOM      3  C   UNL     1      47.019   5.444  13.752  0.00  0.00    +0.000 A 
ATOM      4  C   UNL     1      46.383   6.006  12.640  0.00  0.00    +0.000 A 
ATOM      5  C   UNL     1      45.592   5.219  11.791  0.00  0.00    +0.000 A 
ATOM      6  C   UNL     1      45.435   3.859  12.090  0.00  0.00    +0.000 A 
ATOM      7  C   UNL     1      46.073   3.296  13.201  0.00  0.00    +0.000 A 
BRANCH   5   8
ATOM      8  C   UNL     1      44.888   5.831  10.601  0.00  0.00    +0.000 C 
BRANCH   8   9
ATOM      9  N   UNL     1      45.501   5.428   9.339  0.00  0.00    +0.000 NA
ATOM     10  H   UNL     1      46.468   5.145   9.500  0.00  0.00    +0.000 HD
BRANCH   9  11
ATOM     11  C   UNL     1      44.784   4.275   8.762  0.00  0.00    +0.000 C 
BRANCH  11  12
ATOM     12  C   UNL     1      45.693   3.297   8.028  0.00  0.00    +0.000 A 
ATOM     13  N   UNL     1      45.760   2.032   8.499  0.00  0.00    +0.000 NA
ATOM     14  C   UNL     1      46.565   1.188   7.819  0.00  0.00    +0.000 A 
ATOM     15  C   UNL     1      47.279   1.549   6.703  0.00  0.00    +0.000 A 
ATOM     16  C   UNL     1      47.128   2.854   6.301  0.00  0.00    +0.000 A 
ATOM     17  N   UNL     1      46.344   3.744   6.934  0.00  0.00    +0.000 NA
ENDBRANCH  11  12
ENDBRANCH   9  11
ENDBRANCH   8   9
ENDBRANCH   5   8
ENDBRANCH   1   2
BRANCH   1  20
ATOM     18  O   UNL     1      49.802   3.764  17.001  0.00  0.00    +0.000 OA
ATOM     19  C   UNL     1      48.860   4.543  17.060  0.00  0.00    +0.000 C 
ATOM     20  N   UNL     1      47.776   4.524  16.215  0.00  0.00    +0.000 N 
ATOM     21  H   UNL     1      46.972   5.078  16.462  0.00  0.00    +0.000 HD
BRANCH  19  22
ATOM     22  C   UNL     1      48.648   5.475  18.160  0.00  0.00    +0.000 A 
ATOM     23  C   UNL     1      48.294   5.066  19.433  0.00  0.00    +0.000 A 
ATOM     24  S   UNL     1      47.580   6.344  20.331  0.00  0.00    +0.000 S 
ATOM     25  C   UNL     1      47.864   7.464  19.077  0.00  0.00    +0.000 A 
ATOM     26  N   UNL     1      47.371   8.732  19.096  0.00  0.00    +0.000 NA
ATOM     27  C   UNL     1      47.720   9.451  18.078  0.00  0.00    +0.000 A 
ATOM     28  N   UNL     1      48.558   9.037  17.072  0.00  0.00    +0.000 N 
ATOM     29  C   UNL     1      49.108   7.781  17.025  0.00  0.00    +0.000 A 
ATOM     30  O   UNL     1      49.928   7.461  16.180  0.00  0.00    +0.000 OA
ATOM     31  C   UNL     1      48.622   6.904  18.071  0.00  0.00    +0.000 A 
ATOM     32  H   UNL     1      48.863   9.679  16.351  0.00  0.00    +0.000 HD
ENDBRANCH  19  22
ENDBRANCH   1  20
TORSDOF 7
ENDMDL
MODEL 6
REMARK VINA RESULT:    -7.076      3.008      4.496
REMARK INTER + INTRA:         -11.107
REMARK INTER:                 -10.092
REMARK INTRA:                  -1.015
REMARK UNBOUND:                -1.136
REMARK  Name = 
REMARK  7 active torsions:
REMARK  status: ('A' for Active; 'I' for Inactive)
REMARK    1  A    between atoms: C_2  and  C_20
REMARK    2  A    between atoms: N_3  and  C_4
REMARK    3  A    between atoms: C_4  and  C_5
REMARK    4  A    between atoms: C_8  and  C_9
REMARK    5  A    between atoms: C_9  and  N_10
REMARK    6  A    between atoms: N_10  and  C_11
REMARK    7  A    between atoms: C_11  and  C_12
REMARK                            x       y       z     vdW  Elec       q    Type
REMARK                         _______ _______ _______ _____ _____    ______ ____
ROOT
ATOM      1  C   UNL     1      47.828   6.122  14.190  0.00  0.00    +0.000 C 
ENDROOT
BRANCH   1   2
ATOM      2  C   UNL     1      46.705   5.829  13.225  0.00  0.00    +0.000 A 
ATOM      3  C   UNL     1      45.629   5.019  13.609  0.00  0.00    +0.000 A 
ATOM      4  C   UNL     1      44.612   4.711  12.700  0.00  0.00    +0.000 A 
ATOM      5  C   UNL     1      44.655   5.192  11.383  0.00  0.00    +0.000 A 
ATOM      6  C   UNL     1      45.749   5.974  10.990  0.00  0.00    +0.000 A 
ATOM      7  C   UNL     1      46.765   6.285  11.900  0.00  0.00    +0.000 A 
BRANCH   5   8
ATOM      8  C   UNL     1      43.565   4.841  10.396  0.00  0.00    +0.000 C 
BRANCH   8   9
ATOM      9  N   UNL     1      44.111   4.343   9.137  0.00  0.00    +0.000 NA
ATOM     10  H   UNL     1      44.967   4.849   8.907  0.00  0.00    +0.000 HD
BRANCH   9  11
ATOM     11  C   UNL     1      44.451   2.912   9.249  0.00  0.00    +0.000 C 
BRANCH  11  12
ATOM     12  C   UNL     1      45.615   2.489   8.364  0.00  0.00    +0.000 A 
ATOM     13  N   UNL     1      46.230   3.450   7.638  0.00  0.00    +0.000 NA
ATOM     14  C   UNL     1      47.265   3.044   6.873  0.00  0.00    +0.000 A 
ATOM     15  C   UNL     1      47.708   1.745   6.816  0.00  0.00    +0.000 A 
ATOM     16  C   UNL     1      47.023   0.852   7.603  0.00  0.00    +0.000 A 
ATOM     17  N   UNL     1      45.983   1.191   8.386  0.00  0.00    +0.000 NA
ENDBRANCH  11  12
ENDBRANCH   9  11
ENDBRANCH   8   9
ENDBRANCH   5   8
ENDBRANCH   1   2
BRANCH   1  20
ATOM     18  O   UNL     1      47.916   8.877  15.007  0.00  0.00    +0.000 OA
ATOM     19  C   UNL     1      48.577   8.478  14.057  0.00  0.00    +0.000 C 
ATOM     20  N   UNL     1      48.650   7.168  13.650  0.00  0.00    +0.000 N 
ATOM     21  H   UNL     1      49.063   6.971  12.752  0.00  0.00    +0.000 HD
BRANCH  19  22
ATOM     22  C   UNL     1      49.219   9.362  13.091  0.00  0.00    +0.000 A 
ATOM     23  C   UNL     1      48.542  10.367  12.426  0.00  0.00    +0.000 A 
ATOM     24  S   UNL     1      49.364  10.845  10.996  0.00  0.00    +0.000 S 
ATOM     25  C   UNL     1      50.677   9.811  11.336  0.00  0.00    +0.000 A 
ATOM     26  N   UNL     1      51.688   9.590  10.452  0.00  0.00    +0.000 NA
ATOM     27  C   UNL     1      52.617   8.806  10.895  0.00  0.00    +0.000 A 
ATOM     28  N   UNL     1      52.656   8.266  12.158  0.00  0.00    +0.000 N 
ATOM     29  C   UNL     1      51.679   8.486  13.096  0.00  0.00    +0.000 A 
ATOM     30  O   UNL     1      51.776   8.083  14.243  0.00  0.00    +0.000 OA
ATOM     31  C   UNL     1      50.553   9.241  12.584  0.00  0.00    +0.000 A 
ATOM     32  H   UNL     1      53.457   7.733  12.472  0.00  0.00    +0.000 HD
ENDBRANCH  19  22
ENDBRANCH   1  20
TORSDOF 7
ENDMDL
MODEL 7
REMARK VINA RESULT:    -6.876      4.443      8.954
REMARK INTER + INTRA:         -10.827
REMARK INTER:                  -9.971
REMARK INTRA:                  -0.855
REMARK UNBOUND:                -1.136
REMARK  Name = 
REMARK  7 active torsions:
REMARK  status: ('A' for Active; 'I' for Inactive)
REMARK    1  A    between atoms: C_2  and  C_20
REMARK    2  A    between atoms: N_3  and  C_4
REMARK    3  A    between atoms: C_4  and  C_5
REMARK    4  A    between atoms: C_8  and  C_9
REMARK    5  A    between atoms: C_9  and  N_10
REMARK    6  A    between atoms: N_10  and  C_11
REMARK    7  A    between atoms: C_11  and  C_12
REMARK                            x       y       z     vdW  Elec       q    Type
REMARK                         _______ _______ _______ _____ _____    ______ ____
ROOT
ATOM      1  C   UNL     1      47.622   5.145  16.910  0.00  0.00    +0.000 C 
ENDROOT
BRANCH   1   2
ATOM      2  C   UNL     1      48.736   4.130  17.012  0.00  0.00    +0.000 A 
ATOM      3  C   UNL     1      48.517   2.795  16.650  0.00  0.00    +0.000 A 
ATOM      4  C   UNL     1      49.536   1.846  16.787  0.00  0.00    +0.000 A 
ATOM      5  C   UNL     1      50.789   2.206  17.303  0.00  0.00    +0.000 A 
ATOM      6  C   UNL     1      50.995   3.535  17.696  0.00  0.00    +0.000 A 
ATOM      7  C   UNL     1      49.978   4.485  17.556  0.00  0.00    +0.000 A 
BRANCH   5   8
ATOM      8  C   UNL     1      51.882   1.176  17.470  0.00  0.00    +0.000 C 
BRANCH   8   9
ATOM      9  N   UNL     1      52.817   1.540  18.530  0.00  0.00    +0.000 NA
ATOM     10  H   UNL     1      52.554   1.072  19.399  0.00  0.00    +0.000 HD
BRANCH   9  11
ATOM     11  C   UNL     1      54.185   1.109  18.184  0.00  0.00    +0.000 C 
BRANCH  11  12
ATOM     12  C   UNL     1      54.374  -0.402  18.207  0.00  0.00    +0.000 A 
ATOM     13  N   UNL     1      53.992  -1.063  19.323  0.00  0.00    +0.000 NA
ATOM     14  C   UNL     1      54.162  -2.402  19.306  0.00  0.00    +0.000 A 
ATOM     15  C   UNL     1      54.675  -3.092  18.235  0.00  0.00    +0.000 A 
ATOM     16  C   UNL     1      55.018  -2.326  17.147  0.00  0.00    +0.000 A 
ATOM     17  N   UNL     1      54.875  -0.989  17.101  0.00  0.00    +0.000 NA
ENDBRANCH  11  12
ENDBRANCH   9  11
ENDBRANCH   8   9
ENDBRANCH   5   8
ENDBRANCH   1   2
BRANCH   1  20
ATOM     18  O   UNL     1      48.825   6.342  14.590  0.00  0.00    +0.000 OA
ATOM     19  C   UNL     1      47.725   5.810  14.528  0.00  0.00    +0.000 C 
ATOM     20  N   UNL     1      47.115   5.151  15.567  0.00  0.00    +0.000 N 
ATOM     21  H   UNL     1      46.139   4.916  15.474  0.00  0.00    +0.000 HD
BRANCH  19  22
ATOM     22  C   UNL     1      46.809   5.975  13.405  0.00  0.00    +0.000 A 
ATOM     23  C   UNL     1      46.596   7.191  12.782  0.00  0.00    +0.000 A 
ATOM     24  S   UNL     1      45.112   7.206  11.917  0.00  0.00    +0.000 S 
ATOM     25  C   UNL     1      44.825   5.561  12.264  0.00  0.00    +0.000 A 
ATOM     26  N   UNL     1      43.654   4.939  11.963  0.00  0.00    +0.000 NA
ATOM     27  C   UNL     1      43.629   3.680  12.266  0.00  0.00    +0.000 A 
ATOM     28  N   UNL     1      44.686   2.976  12.790  0.00  0.00    +0.000 N 
ATOM     29  C   UNL     1      45.898   3.550  13.078  0.00  0.00    +0.000 A 
ATOM     30  O   UNL     1      46.857   2.893  13.449  0.00  0.00    +0.000 OA
ATOM     31  C   UNL     1      45.911   4.986  12.888  0.00  0.00    +0.000 A 
ATOM     32  H   UNL     1      44.630   1.974  12.919  0.00  0.00    +0.000 HD
ENDBRANCH  19  22
ENDBRANCH   1  20
TORSDOF 7
ENDMDL
MODEL 8
REMARK VINA RESULT:    -6.820      1.616      2.372
REMARK INTER + INTRA:         -10.747
REMARK INTER:                  -9.463
REMARK INTRA:                  -1.284
REMARK UNBOUND:                -1.136
REMARK  Name = 
REMARK  7 active torsions:
REMARK  status: ('A' for Active; 'I' for Inactive)
REMARK    1  A    between atoms: C_2  and  C_20
REMARK    2  A    between atoms: N_3  and  C_4
REMARK    3  A    between atoms: C_4  and  C_5
REMARK    4  A    between atoms: C_8  and  C_9
REMARK    5  A    between atoms: C_9  and  N_10
REMARK    6  A    between atoms: N_10  and  C_11
REMARK    7  A    between atoms: C_11  and  C_12
REMARK                            x       y       z     vdW  Elec       q    Type
REMARK                         _______ _______ _______ _____ _____    ______ ____
ROOT
ATOM      1  C   UNL     1      49.691   8.594  14.675  0.00  0.00    +0.000 C 
ENDROOT
BRANCH   1   2
ATOM      2  C   UNL     1      48.606   8.123  13.737  0.00  0.00    +0.000 A 
ATOM      3  C   UNL     1      47.288   8.571  13.891  0.00  0.00    +0.000 A 
ATOM      4  C   UNL     1      46.275   8.100  13.050  0.00  0.00    +0.000 A 
ATOM      5  C   UNL     1      46.552   7.159  12.048  0.00  0.00    +0.000 A 
ATOM      6  C   UNL     1      47.865   6.686  11.917  0.00  0.00    +0.000 A 
ATOM      7  C   UNL     1      48.879   7.160  12.756  0.00  0.00    +0.000 A 
BRANCH   5   8
ATOM      8  C   UNL     1      45.452   6.634  11.153  0.00  0.00    +0.000 C 
BRANCH   8   9
ATOM      9  N   UNL     1      45.418   5.175  11.130  0.00  0.00    +0.000 NA
ATOM     10  H   UNL     1      45.004   4.825  11.995  0.00  0.00    +0.000 HD
BRANCH   9  11
ATOM     11  C   UNL     1      44.589   4.695  10.008  0.00  0.00    +0.000 C 
BRANCH  11  12
ATOM     12  C   UNL     1      45.353   3.835   9.009  0.00  0.00    +0.000 A 
ATOM     13  N   UNL     1      45.937   4.461   7.963  0.00  0.00    +0.000 NA
ATOM     14  C   UNL     1      46.616   3.673   7.103  0.00  0.00    +0.000 A 
ATOM     15  C   UNL     1      46.741   2.313   7.253  0.00  0.00    +0.000 A 
ATOM     16  C   UNL     1      46.121   1.780   8.356  0.00  0.00    +0.000 A 
ATOM     17  N   UNL     1      45.429   2.510   9.249  0.00  0.00    +0.000 NA
ENDBRANCH  11  12
ENDBRANCH   9  11
ENDBRANCH   8   9
ENDBRANCH   5   8
ENDBRANCH   1   2
BRANCH   1  20
ATOM     18  O   UNL     1      51.229   6.429  15.775  0.00  0.00    +0.000 OA
ATOM     19  C   UNL     1      50.258   6.878  16.368  0.00  0.00    +0.000 C 
ATOM     20  N   UNL     1      49.517   7.957  15.951  0.00  0.00    +0.000 N 
ATOM     21  H   UNL     1      48.632   8.130  16.401  0.00  0.00    +0.000 HD
BRANCH  19  22
ATOM     22  C   UNL     1      49.618   6.210  17.495  0.00  0.00    +0.000 A 
ATOM     23  C   UNL     1      49.984   6.437  18.809  0.00  0.00    +0.000 A 
ATOM     24  S   UNL     1      49.488   5.151  19.834  0.00  0.00    +0.000 S 
ATOM     25  C   UNL     1      48.677   4.366  18.556  0.00  0.00    +0.000 A 
ATOM     26  N   UNL     1      48.147   3.119  18.676  0.00  0.00    +0.000 NA
ATOM     27  C   UNL     1      47.536   2.699  17.615  0.00  0.00    +0.000 A 
ATOM     28  N   UNL     1      47.361   3.431  16.466  0.00  0.00    +0.000 N 
ATOM     29  C   UNL     1      47.846   4.704  16.309  0.00  0.00    +0.000 A 
ATOM     30  O   UNL     1      47.596   5.378  15.322  0.00  0.00    +0.000 OA
ATOM     31  C   UNL     1      48.659   5.149  17.422  0.00  0.00    +0.000 A 
ATOM     32  H   UNL     1      46.794   3.077  15.705  0.00  0.00    +0.000 HD
ENDBRANCH  19  22
ENDBRANCH   1  20
TORSDOF 7
ENDMDL
MODEL 9
REMARK VINA RESULT:    -6.731      3.039      7.729
REMARK INTER + INTRA:         -10.622
REMARK INTER:                  -9.209
REMARK INTRA:                  -1.413
REMARK UNBOUND:                -1.136
REMARK  Name = 
REMARK  7 active torsions:
REMARK  status: ('A' for Active; 'I' for Inactive)
REMARK    1  A    between atoms: C_2  and  C_20
REMARK    2  A    between atoms: N_3  and  C_4
REMARK    3  A    between atoms: C_4  and  C_5
REMARK    4  A    between atoms: C_8  and  C_9
REMARK    5  A    between atoms: C_9  and  N_10
REMARK    6  A    between atoms: N_10  and  C_11
REMARK    7  A    between atoms: C_11  and  C_12
REMARK                            x       y       z     vdW  Elec       q    Type
REMARK                         _______ _______ _______ _____ _____    ______ ____
ROOT
ATOM      1  C   UNL     1      46.568   8.423  13.210  0.00  0.00    +0.000 C 
ENDROOT
BRANCH   1   2
ATOM      2  C   UNL     1      47.787   8.198  14.072  0.00  0.00    +0.000 A 
ATOM      3  C   UNL     1      48.783   7.297  13.674  0.00  0.00    +0.000 A 
ATOM      4  C   UNL     1      49.890   7.055  14.493  0.00  0.00    +0.000 A 
ATOM      5  C   UNL     1      50.019   7.694  15.735  0.00  0.00    +0.000 A 
ATOM      6  C   UNL     1      49.005   8.569  16.147  0.00  0.00    +0.000 A 
ATOM      7  C   UNL     1      47.899   8.814  15.325  0.00  0.00    +0.000 A 
BRANCH   5   8
ATOM      8  C   UNL     1      51.206   7.415  16.629  0.00  0.00    +0.000 C 
BRANCH   8   9
ATOM      9  N   UNL     1      51.484   5.987  16.736  0.00  0.00    +0.000 NA
ATOM     10  H   UNL     1      52.489   5.836  16.832  0.00  0.00    +0.000 HD
BRANCH   9  11
ATOM     11  C   UNL     1      50.829   5.420  17.931  0.00  0.00    +0.000 C 
BRANCH  11  12
ATOM     12  C   UNL     1      49.521   4.701  17.626  0.00  0.00    +0.000 A 
ATOM     13  N   UNL     1      49.595   3.503  17.004  0.00  0.00    +0.000 NA
ATOM     14  C   UNL     1      48.420   2.887  16.760  0.00  0.00    +0.000 A 
ATOM     15  C   UNL     1      47.198   3.406  17.117  0.00  0.00    +0.000 A 
ATOM     16  C   UNL     1      47.237   4.622  17.756  0.00  0.00    +0.000 A 
ATOM     17  N   UNL     1      48.374   5.286  18.028  0.00  0.00    +0.000 NA
ENDBRANCH  11  12
ENDBRANCH   9  11
ENDBRANCH   8   9
ENDBRANCH   5   8
ENDBRANCH   1   2
BRANCH   1  20
ATOM     18  O   UNL     1      44.490   8.002  11.269  0.00  0.00    +0.000 OA
ATOM     19  C   UNL     1      45.413   7.207  11.388  0.00  0.00    +0.000 C 
ATOM     20  N   UNL     1      46.482   7.373  12.235  0.00  0.00    +0.000 N 
ATOM     21  H   UNL     1      47.085   6.582  12.399  0.00  0.00    +0.000 HD
BRANCH  19  22
ATOM     22  C   UNL     1      45.413   5.873  10.802  0.00  0.00    +0.000 A 
ATOM     23  C   UNL     1      45.790   5.626   9.495  0.00  0.00    +0.000 A 
ATOM     24  S   UNL     1      45.168   4.128   8.929  0.00  0.00    +0.000 S 
ATOM     25  C   UNL     1      44.515   3.755  10.460  0.00  0.00    +0.000 A 
ATOM     26  N   UNL     1      43.705   2.682  10.672  0.00  0.00    +0.000 NA
ATOM     27  C   UNL     1      43.334   2.534  11.903  0.00  0.00    +0.000 A 
ATOM     28  N   UNL     1      43.741   3.327  12.949  0.00  0.00    +0.000 N 
ATOM     29  C   UNL     1      44.584   4.399  12.791  0.00  0.00    +0.000 A 
ATOM     30  O   UNL     1      45.015   5.032  13.741  0.00  0.00    +0.000 OA
ATOM     31  C   UNL     1      44.900   4.679  11.406  0.00  0.00    +0.000 A 
ATOM     32  H   UNL     1      43.486   3.103  13.902  0.00  0.00    +0.000 HD
ENDBRANCH  19  22
ENDBRANCH   1  20
TORSDOF 7
ENDMDL
