MODEL 1
REMARK VINA RESULT:    -6.703      0.000      0.000
REMARK INTER + INTRA:          -8.542
REMARK INTER:                  -8.271
REMARK INTRA:                  -0.272
REMARK UNBOUND:                -0.272
REMARK  Name = 
REMARK  5 active torsions:
REMARK  status: ('A' for Active; 'I' for Inactive)
REMARK    1  A    between atoms: C_1  and  S_2
REMARK    2  A    between atoms: S_2  and  C_3
REMARK    3  A    between atoms: C_6  and  C_7
REMARK    4  A    between atoms: C_7  and  O_8
REMARK    5  A    between atoms: O_8  and  C_9
REMARK                            x       y       z     vdW  Elec       q    Type
REMARK                         _______ _______ _______ _____ _____    ______ ____
ROOT
ATOM      1  C   UNL     1      46.017   4.595  12.849  0.00  0.00    +0.000 A 
ATOM      2  N   UNL     1      45.345   3.453  12.632  0.00  0.00    +0.000 NA
ATOM      3  C   UNL     1      44.799   3.298  11.411  0.00  0.00    +0.000 A 
ATOM      4  C   UNL     1      44.910   4.227  10.400  0.00  0.00    +0.000 A 
ATOM      5  C   UNL     1      45.598   5.372  10.738  0.00  0.00    +0.000 A 
ATOM      6  N   UNL     1      46.164   5.576  11.943  0.00  0.00    +0.000 NA
ENDROOT
BRANCH   1   8
ATOM      7  C   UNL     1      47.816   6.295  14.044  0.00  0.00    +0.000 C 
ATOM      8  S   UNL     1      46.790   4.855  14.427  0.00  0.00    +0.000 S 
ENDBRANCH   1   8
BRANCH   4   9
ATOM      9  C   UNL     1      44.330   4.006   9.043  0.00  0.00    +0.000 C 
BRANCH   9  10
ATOM     10  O   UNL     1      45.319   4.289   8.056  0.00  0.00    +0.000 OA
BRANCH  10  11
ATOM     11  C   UNL     1      46.057   3.223   7.616  0.00  0.00    +0.000 A 
ATOM     12  C   UNL     1      46.099   1.961   8.203  0.00  0.00    +0.000 A 
ATOM     13  C   UNL     1      46.902   0.992   7.621  0.00  0.00    +0.000 A 
ATOM     14  N   UNL     1      47.650   1.197   6.518  0.00  0.00    +0.000 NA
ATOM     15  C   UNL     1      47.595   2.429   5.971  0.00  0.00    +0.000 A 
ATOM     16  C   UNL     1      46.824   3.463   6.478  0.00  0.00    +0.000 A 
ENDBRANCH  10  11
ENDBRANCH   9  10
ENDBRANCH   4   9
TORSDOF 4
ENDMDL
MODEL 2
REMARK VINA RESULT:    -6.229      2.788      5.866
REMARK INTER + INTRA:          -7.958
REMARK INTER:                  -7.567
REMARK INTRA:                  -0.391
REMARK UNBOUND:                -0.272
REMARK  Name = 
REMARK  5 active torsions:
REMARK  status: ('A' for Active; 'I' for Inactive)
REMARK    1  A    between atoms: C_1  and  S_2
REMARK    2  A    between atoms: S_2  and  C_3
REMARK    3  A    between atoms: C_6  and  C_7
REMARK    4  A    between atoms: C_7  and  O_8
REMARK    5  A    between atoms: O_8  and  C_9
REMARK                            x       y       z     vdW  Elec       q    Type
REMARK                         _______ _______ _______ _____ _____    ______ ____
ROOT
ATOM      1  C   UNL     1      46.158   2.589   7.910  0.00  0.00    +0.000 A 
ATOM      2  N   UNL     1      46.081   3.927   7.823  0.00  0.00    +0.000 NA
ATOM      3  C   UNL     1      45.271   4.542   8.706  0.00  0.00    +0.000 A 
ATOM      4  C   UNL     1      44.554   3.879   9.677  0.00  0.00    +0.000 A 
ATOM      5  C   UNL     1      44.687   2.507   9.660  0.00  0.00    +0.000 A 
ATOM      6  N   UNL     1      45.482   1.843   8.800  0.00  0.00    +0.000 NA
ENDROOT
BRANCH   1   8
ATOM      7  C   UNL     1      47.113   2.780   5.340  0.00  0.00    +0.000 C 
ATOM      8  S   UNL     1      47.229   1.712   6.796  0.00  0.00    +0.000 S 
ENDBRANCH   1   8
BRANCH   4   9
ATOM      9  C   UNL     1      43.700   4.594  10.670  0.00  0.00    +0.000 C 
BRANCH   9  10
ATOM     10  O   UNL     1      44.382   5.759  11.125  0.00  0.00    +0.000 OA
BRANCH  10  11
ATOM     11  C   UNL     1      45.358   5.561  12.065  0.00  0.00    +0.000 A 
ATOM     12  C   UNL     1      45.264   4.727  13.177  0.00  0.00    +0.000 A 
ATOM     13  C   UNL     1      46.353   4.643  14.029  0.00  0.00    +0.000 A 
ATOM     14  N   UNL     1      47.504   5.323  13.850  0.00  0.00    +0.000 NA
ATOM     15  C   UNL     1      47.568   6.127  12.768  0.00  0.00    +0.000 A 
ATOM     16  C   UNL     1      46.533   6.279  11.859  0.00  0.00    +0.000 A 
ENDBRANCH  10  11
ENDBRANCH   9  10
ENDBRANCH   4   9
TORSDOF 4
ENDMDL
MODEL 3
REMARK VINA RESULT:    -6.213      1.163      2.025
REMARK INTER + INTRA:          -7.937
REMARK INTER:                  -7.521
REMARK INTRA:                  -0.416
REMARK UNBOUND:                -0.272
REMARK  Name = 
REMARK  5 active torsions:
REMARK  status: ('A' for Active; 'I' for Inactive)
REMARK    1  A    between atoms: C_1  and  S_2
REMARK    2  A    between atoms: S_2  and  C_3
REMARK    3  A    between atoms: C_6  and  C_7
REMARK    4  A    between atoms: C_7  and  O_8
REMARK    5  A    between atoms: O_8  and  C_9
REMARK                            x       y       z     vdW  Elec       q    Type
REMARK                         _______ _______ _______ _____ _____    ______ ____
ROOT
ATOM      1  C   UNL     1      46.476   5.074  13.219  0.00  0.00    +0.000 A 
ATOM      2  N   UNL     1      46.399   5.933  12.190  0.00  0.00    +0.000 NA
ATOM      3  C   UNL     1      45.633   5.559  11.148  0.00  0.00    +0.000 A 
ATOM      4  C   UNL     1      44.932   4.374  11.102  0.00  0.00    +0.000 A 
ATOM      5  C   UNL     1      45.102   3.557  12.197  0.00  0.00    +0.000 A 
ATOM      6  N   UNL     1      45.855   3.884  13.265  0.00  0.00    +0.000 NA
ENDROOT
BRANCH   1   8
ATOM      7  C   UNL     1      47.178   4.052  15.672  0.00  0.00    +0.000 C 
ATOM      8  S   UNL     1      47.445   5.514  14.641  0.00  0.00    +0.000 S 
ENDBRANCH   1   8
BRANCH   4   9
ATOM      9  C   UNL     1      44.055   4.008   9.950  0.00  0.00    +0.000 C 
BRANCH   9  10
ATOM     10  O   UNL     1      44.400   2.702   9.494  0.00  0.00    +0.000 OA
BRANCH  10  11
ATOM     11  C   UNL     1      45.360   2.635   8.519  0.00  0.00    +0.000 A 
ATOM     12  C   UNL     1      45.740   3.676   7.675  0.00  0.00    +0.000 A 
ATOM     13  C   UNL     1      46.736   3.435   6.742  0.00  0.00    +0.000 A 
ATOM     14  N   UNL     1      47.361   2.249   6.598  0.00  0.00    +0.000 NA
ATOM     15  C   UNL     1      46.972   1.256   7.425  0.00  0.00    +0.000 A 
ATOM     16  C   UNL     1      45.986   1.399   8.388  0.00  0.00    +0.000 A 
ENDBRANCH  10  11
ENDBRANCH   9  10
ENDBRANCH   4   9
TORSDOF 4
ENDMDL
MODEL 4
REMARK VINA RESULT:    -5.504      3.160      6.436
REMARK INTER + INTRA:          -7.062
REMARK INTER:                  -6.686
REMARK INTRA:                  -0.376
REMARK UNBOUND:                -0.272
REMARK  Name = 
REMARK  5 active torsions:
REMARK  status: ('A' for Active; 'I' for Inactive)
REMARK    1  A    between atoms: C_1  and  S_2
REMARK    2  A    between atoms: S_2  and  C_3
REMARK    3  A    between atoms: C_6  and  C_7
REMARK    4  A    between atoms: C_7  and  O_8
REMARK    5  A    between atoms: O_8  and  C_9
REMARK                            x       y       z     vdW  Elec       q    Type
REMARK                         _______ _______ _______ _____ _____    ______ ____
ROOT
ATOM      1  C   UNL     1      46.242   2.636   7.907  0.00  0.00    +0.000 A 
ATOM      2  N   UNL     1      46.240   3.979   7.869  0.00  0.00    +0.000 NA
ATOM      3  C   UNL     1      45.436   4.605   8.749  0.00  0.00    +0.000 A 
ATOM      4  C   UNL     1      44.652   3.948   9.671  0.00  0.00    +0.000 A 
ATOM      5  C   UNL     1      44.711   2.573   9.606  0.00  0.00    +0.000 A 
ATOM      6  N   UNL     1      45.497   1.897   8.746  0.00  0.00    +0.000 NA
ENDROOT
BRANCH   1   8
ATOM      7  C   UNL     1      47.109   2.747   5.302  0.00  0.00    +0.000 C 
ATOM      8  S   UNL     1      47.300   1.743   6.795  0.00  0.00    +0.000 S 
ENDBRANCH   1   8
BRANCH   4   9
ATOM      9  C   UNL     1      43.805   4.673  10.664  0.00  0.00    +0.000 C 
BRANCH   9  10
ATOM     10  O   UNL     1      44.613   5.076  11.766  0.00  0.00    +0.000 OA
BRANCH  10  11
ATOM     11  C   UNL     1      44.837   6.421  11.893  0.00  0.00    +0.000 A 
ATOM     12  C   UNL     1      44.204   7.426  11.166  0.00  0.00    +0.000 A 
ATOM     13  C   UNL     1      44.551   8.743  11.425  0.00  0.00    +0.000 A 
ATOM     14  N   UNL     1      45.469   9.113  12.340  0.00  0.00    +0.000 NA
ATOM     15  C   UNL     1      46.070   8.120  13.029  0.00  0.00    +0.000 A 
ATOM     16  C   UNL     1      45.792   6.776  12.842  0.00  0.00    +0.000 A 
ENDBRANCH  10  11
ENDBRANCH   9  10
ENDBRANCH   4   9
TORSDOF 4
ENDMDL
MODEL 5
REMARK VINA RESULT:    -5.404      2.376      3.433
REMARK INTER + INTRA:          -6.939
REMARK INTER:                  -6.716
REMARK INTRA:                  -0.223
REMARK UNBOUND:                -0.272
REMARK  Name = 
REMARK  5 active torsions:
REMARK  status: ('A' for Active; 'I' for Inactive)
REMARK    1  A    between atoms: C_1  and  S_2
REMARK    2  A    between atoms: S_2  and  C_3
REMARK    3  A    between atoms: C_6  and  C_7
REMARK    4  A    between atoms: C_7  and  O_8
REMARK    5  A    between atoms: O_8  and  C_9
REMARK                            x       y       z     vdW  Elec       q    Type
REMARK                         _______ _______ _______ _____ _____    ______ ____
ROOT
ATOM      1  C   UNL     1      47.511   4.509  15.445  0.00  0.00    +0.000 A 
ATOM      2  N   UNL     1      46.551   3.878  14.749  0.00  0.00    +0.000 NA
ATOM      3  C   UNL     1      46.195   4.432  13.574  0.00  0.00    +0.000 A 
ATOM      4  C   UNL     1      46.770   5.574  13.062  0.00  0.00    +0.000 A 
ATOM      5  C   UNL     1      47.726   6.153  13.868  0.00  0.00    +0.000 A 
ATOM      6  N   UNL     1      48.118   5.641  15.050  0.00  0.00    +0.000 NA
ENDROOT
BRANCH   1   8
ATOM      7  C   UNL     1      47.517   5.125  18.123  0.00  0.00    +0.000 C 
ATOM      8  S   UNL     1      48.052   3.820  16.990  0.00  0.00    +0.000 S 
ENDBRANCH   1   8
BRANCH   4   9
ATOM      9  C   UNL     1      46.385   6.138  11.735  0.00  0.00    +0.000 C 
BRANCH   9  10
ATOM     10  O   UNL     1      45.089   5.664  11.381  0.00  0.00    +0.000 OA
BRANCH  10  11
ATOM     11  C   UNL     1      45.041   4.701  10.408  0.00  0.00    +0.000 A 
ATOM     12  C   UNL     1      44.445   3.448  10.529  0.00  0.00    +0.000 A 
ATOM     13  C   UNL     1      44.487   2.592   9.439  0.00  0.00    +0.000 A 
ATOM     14  N   UNL     1      45.073   2.899   8.265  0.00  0.00    +0.000 NA
ATOM     15  C   UNL     1      45.647   4.117   8.174  0.00  0.00    +0.000 A 
ATOM     16  C   UNL     1      45.657   5.041   9.207  0.00  0.00    +0.000 A 
ENDBRANCH  10  11
ENDBRANCH   9  10
ENDBRANCH   4   9
TORSDOF 4
ENDMDL
MODEL 6
REMARK VINA RESULT:    -5.008      3.945      7.648
REMARK INTER + INTRA:          -6.451
REMARK INTER:                  -6.138
REMARK INTRA:                  -0.312
REMARK UNBOUND:                -0.272
REMARK  Name = 
REMARK  5 active torsions:
REMARK  status: ('A' for Active; 'I' for Inactive)
REMARK    1  A    between atoms: C_1  and  S_2
REMARK    2  A    between atoms: S_2  and  C_3
REMARK    3  A    between atoms: C_6  and  C_7
REMARK    4  A    between atoms: C_7  and  O_8
REMARK    5  A    between atoms: O_8  and  C_9
REMARK                            x       y       z     vdW  Elec       q    Type
REMARK                         _______ _______ _______ _____ _____    ______ ____
ROOT
ATOM      1  C   UNL     1      45.039   4.320  10.952  0.00  0.00    +0.000 A 
ATOM      2  N   UNL     1      45.167   3.297  11.814  0.00  0.00    +0.000 NA
ATOM      3  C   UNL     1      45.863   3.542  12.940  0.00  0.00    +0.000 A 
ATOM      4  C   UNL     1      46.417   4.765  13.246  0.00  0.00    +0.000 A 
ATOM      5  C   UNL     1      46.248   5.735  12.283  0.00  0.00    +0.000 A 
ATOM      6  N   UNL     1      45.561   5.543  11.140  0.00  0.00    +0.000 NA
ENDROOT
BRANCH   1   8
ATOM      7  C   UNL     1      44.704   2.440   8.976  0.00  0.00    +0.000 C 
ATOM      8  S   UNL     1      44.108   4.079   9.459  0.00  0.00    +0.000 S 
ENDBRANCH   1   8
BRANCH   4   9
ATOM      9  C   UNL     1      47.146   5.016  14.524  0.00  0.00    +0.000 C 
BRANCH   9  10
ATOM     10  O   UNL     1      46.974   3.898  15.391  0.00  0.00    +0.000 OA
BRANCH  10  11
ATOM     11  C   UNL     1      47.660   3.940  16.576  0.00  0.00    +0.000 A 
ATOM     12  C   UNL     1      47.610   2.979  17.583  0.00  0.00    +0.000 A 
ATOM     13  C   UNL     1      48.375   3.179  18.721  0.00  0.00    +0.000 A 
ATOM     14  N   UNL     1      49.167   4.252  18.917  0.00  0.00    +0.000 NA
ATOM     15  C   UNL     1      49.195   5.171  17.928  0.00  0.00    +0.000 A 
ATOM     16  C   UNL     1      48.467   5.060  16.754  0.00  0.00    +0.000 A 
ENDBRANCH  10  11
ENDBRANCH   9  10
ENDBRANCH   4   9
TORSDOF 4
ENDMDL
MODEL 7
REMARK VINA RESULT:    -4.815      2.633      3.733
REMARK INTER + INTRA:          -6.213
REMARK INTER:                  -5.796
REMARK INTRA:                  -0.417
REMARK UNBOUND:                -0.272
REMARK  Name = 
REMARK  5 active torsions:
REMARK  status: ('A' for Active; 'I' for Inactive)
REMARK    1  A    between atoms: C_1  and  S_2
REMARK    2  A    between atoms: S_2  and  C_3
REMARK    3  A    between atoms: C_6  and  C_7
REMARK    4  A    between atoms: C_7  and  O_8
REMARK    5  A    between atoms: O_8  and  C_9
REMARK                            x       y       z     vdW  Elec       q    Type
REMARK                         _______ _______ _______ _____ _____    ______ ____
ROOT
ATOM      1  C   UNL     1      48.837   7.530  12.763  0.00  0.00    +0.000 A 
ATOM      2  N   UNL     1      47.866   8.037  11.985  0.00  0.00    +0.000 NA
ATOM      3  C   UNL     1      46.742   7.305  11.870  0.00  0.00    +0.000 A 
ATOM      4  C   UNL     1      46.544   6.103  12.512  0.00  0.00    +0.000 A 
ATOM      5  C   UNL     1      47.612   5.664  13.264  0.00  0.00    +0.000 A 
ATOM      6  N   UNL     1      48.757   6.357  13.411  0.00  0.00    +0.000 NA
ENDROOT
BRANCH   1   8
ATOM      7  C   UNL     1      49.657  10.121  13.166  0.00  0.00    +0.000 C 
ATOM      8  S   UNL     1      50.337   8.455  12.983  0.00  0.00    +0.000 S 
ENDBRANCH   1   8
BRANCH   4   9
ATOM      9  C   UNL     1      45.268   5.337  12.400  0.00  0.00    +0.000 C 
BRANCH   9  10
ATOM     10  O   UNL     1      44.711   5.536  11.103  0.00  0.00    +0.000 OA
BRANCH  10  11
ATOM     11  C   UNL     1      44.936   4.540  10.189  0.00  0.00    +0.000 A 
ATOM     12  C   UNL     1      44.569   3.204  10.331  0.00  0.00    +0.000 A 
ATOM     13  C   UNL     1      44.873   2.327   9.302  0.00  0.00    +0.000 A 
ATOM     14  N   UNL     1      45.506   2.688   8.167  0.00  0.00    +0.000 NA
ATOM     15  C   UNL     1      45.853   3.987   8.056  0.00  0.00    +0.000 A 
ATOM     16  C   UNL     1      45.595   4.939   9.029  0.00  0.00    +0.000 A 
ENDBRANCH  10  11
ENDBRANCH   9  10
ENDBRANCH   4   9
TORSDOF 4
ENDMDL
MODEL 8
REMARK VINA RESULT:    -4.762      4.008      5.400
REMARK INTER + INTRA:          -6.148
REMARK INTER:                  -5.880
REMARK INTRA:                  -0.267
REMARK UNBOUND:                -0.272
REMARK  Name = 
REMARK  5 active torsions:
REMARK  status: ('A' for Active; 'I' for Inactive)
REMARK    1  A    between atoms: C_1  and  S_2
REMARK    2  A    between atoms: S_2  and  C_3
REMARK    3  A    between atoms: C_6  and  C_7
REMARK    4  A    between atoms: C_7  and  O_8
REMARK    5  A    between atoms: O_8  and  C_9
REMARK                            x       y       z     vdW  Elec       q    Type
REMARK                         _______ _______ _______ _____ _____    ______ ____
ROOT
ATOM      1  C   UNL     1      48.179   4.328  16.411  0.00  0.00    +0.000 A 
ATOM      2  N   UNL     1      48.788   5.498  16.155  0.00  0.00    +0.000 NA
ATOM      3  C   UNL     1      48.348   6.185  15.084  0.00  0.00    +0.000 A 
ATOM      4  C   UNL     1      47.318   5.761  14.275  0.00  0.00    +0.000 A 
ATOM      5  C   UNL     1      46.781   4.538  14.613  0.00  0.00    +0.000 A 
ATOM      6  N   UNL     1      47.184   3.811  15.672  0.00  0.00    +0.000 NA
ENDROOT
BRANCH   1   8
ATOM      7  C   UNL     1      50.474   3.662  17.767  0.00  0.00    +0.000 C 
ATOM      8  S   UNL     1      48.688   3.382  17.825  0.00  0.00    +0.000 S 
ENDBRANCH   1   8
BRANCH   4   9
ATOM      9  C   UNL     1      46.822   6.568  13.120  0.00  0.00    +0.000 C 
BRANCH   9  10
ATOM     10  O   UNL     1      46.652   5.716  11.991  0.00  0.00    +0.000 OA
BRANCH  10  11
ATOM     11  C   UNL     1      45.360   5.408  11.654  0.00  0.00    +0.000 A 
ATOM     12  C   UNL     1      44.889   4.150  11.289  0.00  0.00    +0.000 A 
ATOM     13  C   UNL     1      43.544   4.015  10.981  0.00  0.00    +0.000 A 
ATOM     14  N   UNL     1      42.660   5.032  11.010  0.00  0.00    +0.000 NA
ATOM     15  C   UNL     1      43.142   6.242  11.363  0.00  0.00    +0.000 A 
ATOM     16  C   UNL     1      44.468   6.477  11.688  0.00  0.00    +0.000 A 
ENDBRANCH  10  11
ENDBRANCH   9  10
ENDBRANCH   4   9
TORSDOF 4
ENDMDL
MODEL 9
REMARK VINA RESULT:    -4.605      2.962      6.375
REMARK INTER + INTRA:          -5.953
REMARK INTER:                  -5.568
REMARK INTRA:                  -0.385
REMARK UNBOUND:                -0.272
REMARK  Name = 
REMARK  5 active torsions:
REMARK  status: ('A' for Active; 'I' for Inactive)
REMARK    1  A    between atoms: C_1  and  S_2
REMARK    2  A    between atoms: S_2  and  C_3
REMARK    3  A    between atoms: C_6  and  C_7
REMARK    4  A    between atoms: C_7  and  O_8
REMARK    5  A    between atoms: O_8  and  C_9
REMARK                            x       y       z     vdW  Elec       q    Type
REMARK                         _______ _______ _______ _____ _____    ______ ____
ROOT
ATOM      1  C   UNL     1      44.917   3.515  10.218  0.00  0.00    +0.000 A 
ATOM      2  N   UNL     1      45.267   4.705   9.703  0.00  0.00    +0.000 NA
ATOM      3  C   UNL     1      45.446   5.711  10.579  0.00  0.00    +0.000 A 
ATOM      4  C   UNL     1      45.307   5.572  11.942  0.00  0.00    +0.000 A 
ATOM      5  C   UNL     1      44.921   4.317  12.361  0.00  0.00    +0.000 A 
ATOM      6  N   UNL     1      44.730   3.277  11.527  0.00  0.00    +0.000 NA
ENDROOT
BRANCH   1   8
ATOM      7  C   UNL     1      46.065   2.411   7.979  0.00  0.00    +0.000 C 
ATOM      8  S   UNL     1      44.692   2.134   9.124  0.00  0.00    +0.000 S 
ENDBRANCH   1   8
BRANCH   4   9
ATOM      9  C   UNL     1      45.556   6.697  12.892  0.00  0.00    +0.000 C 
BRANCH   9  10
ATOM     10  O   UNL     1      46.350   7.689  12.248  0.00  0.00    +0.000 OA
BRANCH  10  11
ATOM     11  C   UNL     1      47.667   7.745  12.620  0.00  0.00    +0.000 A 
ATOM     12  C   UNL     1      48.712   8.250  11.850  0.00  0.00    +0.000 A 
ATOM     13  C   UNL     1      49.991   8.233  12.385  0.00  0.00    +0.000 A 
ATOM     14  N   UNL     1      50.287   7.753  13.610  0.00  0.00    +0.000 NA
ATOM     15  C   UNL     1      49.258   7.267  14.334  0.00  0.00    +0.000 A 
ATOM     16  C   UNL     1      47.947   7.240  13.887  0.00  0.00    +0.000 A 
ENDBRANCH  10  11
ENDBRANCH   9  10
ENDBRANCH   4   9
TORSDOF 4
ENDMDL
