MODEL 1
REMARK VINA RESULT:    -7.962      0.000      0.000
REMARK INTER + INTRA:         -11.724
REMARK INTER:                 -10.987
REMARK INTRA:                  -0.737
REMARK UNBOUND:                -0.737
REMARK  Name = 
REMARK  7 active torsions:
REMARK  status: ('A' for Active; 'I' for Inactive)
REMARK    1  A    between atoms: N_1  and  C_2
REMARK    2  A    between atoms: C_2  and  C_3
REMARK    3  A    between atoms: C_7  and  C_8
REMARK    4  A    between atoms: C_8  and  C_9
REMARK    5  A    between atoms: C_9  and  N_10
REMARK    6  A    between atoms: N_10  and  C_11
REMARK    7  A    between atoms: C_14  and  C_15
REMARK                            x       y       z     vdW  Elec       q    Type
REMARK                         _______ _______ _______ _____ _____    ______ ____
ROOT
ATOM      1  N   UNL     1      43.752   4.801  10.060  0.00  0.00    +0.000 N 
ATOM      2  H   UNL     1      44.202   5.680  10.304  0.00  0.00    +0.000 HD
ENDROOT
BRANCH   1   3
ATOM      3  C   UNL     1      44.600   3.982   9.288  0.00  0.00    +0.000 A 
ATOM      4  C   UNL     1      45.557   4.507   8.412  0.00  0.00    +0.000 A 
ATOM      5  C   UNL     1      46.418   3.679   7.683  0.00  0.00    +0.000 A 
ATOM      6  C   UNL     1      46.370   2.296   7.850  0.00  0.00    +0.000 A 
ATOM      7  C   UNL     1      45.455   1.749   8.752  0.00  0.00    +0.000 A 
ATOM      8  C   UNL     1      44.593   2.591   9.478  0.00  0.00    +0.000 A 
BRANCH   6   9
ATOM      9  C   UNL     1      47.306   1.476   7.032  0.00  0.00    +0.000 C 
ATOM     10  N   UNL     1      48.390   2.106   6.485  0.00  0.00    +0.000 N 
ATOM     11  O   UNL     1      47.102   0.290   6.817  0.00  0.00    +0.000 OA
ATOM     12  H   UNL     1      48.478   3.109   6.444  0.00  0.00    +0.000 HD
ATOM     13  H   UNL     1      48.937   1.554   5.837  0.00  0.00    +0.000 HD
ENDBRANCH   6   9
ENDBRANCH   1   3
BRANCH   1  14
ATOM     14  C   UNL     1      43.104   4.157  11.215  0.00  0.00    +0.000 C 
BRANCH  14  15
ATOM     15  C   UNL     1      43.230   4.999  12.490  0.00  0.00    +0.000 C 
BRANCH  15  20
ATOM     16  C   UNL     1      46.428   7.013  13.123  0.00  0.00    +0.000 A 
ATOM     17  C   UNL     1      47.328   5.989  13.443  0.00  0.00    +0.000 A 
ATOM     18  C   UNL     1      46.916   4.657  13.429  0.00  0.00    +0.000 A 
ATOM     19  C   UNL     1      45.599   4.330  13.099  0.00  0.00    +0.000 A 
ATOM     20  C   UNL     1      44.679   5.335  12.775  0.00  0.00    +0.000 A 
ATOM     21  C   UNL     1      45.106   6.671  12.784  0.00  0.00    +0.000 A 
BRANCH  16  22
ATOM     22  C   UNL     1      46.869   8.454  13.133  0.00  0.00    +0.000 C 
BRANCH  22  23
ATOM     23  N   UNL     1      47.046   8.950  14.494  0.00  0.00    +0.000 NA
ATOM     24  H   UNL     1      46.561   8.330  15.139  0.00  0.00    +0.000 HD
ATOM     25  H   UNL     1      46.591   9.859  14.570  0.00  0.00    +0.000 HD
ENDBRANCH  22  23
ENDBRANCH  16  22
ENDBRANCH  15  20
ENDBRANCH  14  15
ENDBRANCH   1  14
TORSDOF 7
ENDMDL
MODEL 2
REMARK VINA RESULT:    -7.898      1.681      2.330
REMARK INTER + INTRA:         -11.636
REMARK INTER:                 -10.785
REMARK INTRA:                  -0.852
REMARK UNBOUND:                -0.737
REMARK  Name = 
REMARK  7 active torsions:
REMARK  status: ('A' for Active; 'I' for Inactive)
REMARK    1  A    between atoms: N_1  and  C_2
REMARK    2  A    between atoms: C_2  and  C_3
REMARK    3  A    between atoms: C_7  and  C_8
REMARK    4  A    between atoms: C_8  and  C_9
REMARK    5  A    between atoms: C_9  and  N_10
REMARK    6  A    between atoms: N_10  and  C_11
REMARK    7  A    between atoms: C_14  and  C_15
REMARK                            x       y       z     vdW  Elec       q    Type
REMARK                         _______ _______ _______ _____ _____    ______ ____
ROOT
ATOM      1  N   UNL     1      43.656   3.707  10.641  0.00  0.00    +0.000 N 
ATOM      2  H   UNL     1      42.894   3.034  10.662  0.00  0.00    +0.000 HD
ENDROOT
BRANCH   1   3
ATOM      3  C   UNL     1      44.618   3.371   9.668  0.00  0.00    +0.000 A 
ATOM      4  C   UNL     1      44.953   2.044   9.371  0.00  0.00    +0.000 A 
ATOM      5  C   UNL     1      45.881   1.728   8.373  0.00  0.00    +0.000 A 
ATOM      6  C   UNL     1      46.469   2.739   7.614  0.00  0.00    +0.000 A 
ATOM      7  C   UNL     1      46.119   4.068   7.860  0.00  0.00    +0.000 A 
ATOM      8  C   UNL     1      45.185   4.375   8.867  0.00  0.00    +0.000 A 
BRANCH   6   9
ATOM      9  C   UNL     1      47.459   2.329   6.579  0.00  0.00    +0.000 C 
ATOM     10  N   UNL     1      47.458   3.009   5.394  0.00  0.00    +0.000 N 
ATOM     11  O   UNL     1      48.223   1.391   6.758  0.00  0.00    +0.000 OA
ATOM     12  H   UNL     1      46.711   3.628   5.117  0.00  0.00    +0.000 HD
ATOM     13  H   UNL     1      48.054   2.629   4.669  0.00  0.00    +0.000 HD
ENDBRANCH   6   9
ENDBRANCH   1   3
BRANCH   1  14
ATOM     14  C   UNL     1      43.180   5.100  10.627  0.00  0.00    +0.000 C 
BRANCH  14  15
ATOM     15  C   UNL     1      43.339   5.777  11.994  0.00  0.00    +0.000 C 
BRANCH  15  20
ATOM     16  C   UNL     1      46.663   5.214  13.815  0.00  0.00    +0.000 A 
ATOM     17  C   UNL     1      47.535   5.964  13.016  0.00  0.00    +0.000 A 
ATOM     18  C   UNL     1      47.051   6.668  11.913  0.00  0.00    +0.000 A 
ATOM     19  C   UNL     1      45.693   6.629  11.591  0.00  0.00    +0.000 A 
ATOM     20  C   UNL     1      44.800   5.888  12.375  0.00  0.00    +0.000 A 
ATOM     21  C   UNL     1      45.295   5.190  13.487  0.00  0.00    +0.000 A 
BRANCH  16  22
ATOM     22  C   UNL     1      47.178   4.454  15.011  0.00  0.00    +0.000 C 
BRANCH  22  23
ATOM     23  N   UNL     1      47.559   3.092  14.654  0.00  0.00    +0.000 NA
ATOM     24  H   UNL     1      46.746   2.486  14.741  0.00  0.00    +0.000 HD
ATOM     25  H   UNL     1      48.241   2.757  15.334  0.00  0.00    +0.000 HD
ENDBRANCH  22  23
ENDBRANCH  16  22
ENDBRANCH  15  20
ENDBRANCH  14  15
ENDBRANCH   1  14
TORSDOF 7
ENDMDL
MODEL 3
REMARK VINA RESULT:    -7.378      2.763      6.556
REMARK INTER + INTRA:         -10.918
REMARK INTER:                 -10.059
REMARK INTRA:                  -0.859
REMARK UNBOUND:                -0.737
REMARK  Name = 
REMARK  7 active torsions:
REMARK  status: ('A' for Active; 'I' for Inactive)
REMARK    1  A    between atoms: N_1  and  C_2
REMARK    2  A    between atoms: C_2  and  C_3
REMARK    3  A    between atoms: C_7  and  C_8
REMARK    4  A    between atoms: C_8  and  C_9
REMARK    5  A    between atoms: C_9  and  N_10
REMARK    6  A    between atoms: N_10  and  C_11
REMARK    7  A    between atoms: C_14  and  C_15
REMARK                            x       y       z     vdW  Elec       q    Type
REMARK                         _______ _______ _______ _____ _____    ______ ____
ROOT
ATOM      1  N   UNL     1      43.901   4.272  12.439  0.00  0.00    +0.000 N 
ATOM      2  H   UNL     1      43.830   3.402  12.962  0.00  0.00    +0.000 HD
ENDROOT
BRANCH   1   3
ATOM      3  C   UNL     1      45.138   4.910  12.659  0.00  0.00    +0.000 A 
ATOM      4  C   UNL     1      46.076   4.430  13.580  0.00  0.00    +0.000 A 
ATOM      5  C   UNL     1      47.317   5.054  13.756  0.00  0.00    +0.000 A 
ATOM      6  C   UNL     1      47.666   6.156  12.977  0.00  0.00    +0.000 A 
ATOM      7  C   UNL     1      46.765   6.627  12.019  0.00  0.00    +0.000 A 
ATOM      8  C   UNL     1      45.520   5.993  11.852  0.00  0.00    +0.000 A 
BRANCH   6   9
ATOM      9  C   UNL     1      48.996   6.777  13.228  0.00  0.00    +0.000 C 
ATOM     10  N   UNL     1      49.728   7.173  12.144  0.00  0.00    +0.000 N 
ATOM     11  O   UNL     1      49.444   6.897  14.360  0.00  0.00    +0.000 OA
ATOM     12  H   UNL     1      49.506   6.894  11.201  0.00  0.00    +0.000 HD
ATOM     13  H   UNL     1      50.674   7.476  12.340  0.00  0.00    +0.000 HD
ENDBRANCH   6   9
ENDBRANCH   1   3
BRANCH   1  14
ATOM     14  C   UNL     1      43.490   4.122  11.034  0.00  0.00    +0.000 C 
BRANCH  14  15
ATOM     15  C   UNL     1      43.945   2.783  10.441  0.00  0.00    +0.000 C 
BRANCH  15  20
ATOM     16  C   UNL     1      46.523   2.063   7.699  0.00  0.00    +0.000 A 
ATOM     17  C   UNL     1      46.788   3.358   7.237  0.00  0.00    +0.000 A 
ATOM     18  C   UNL     1      46.161   4.458   7.821  0.00  0.00    +0.000 A 
ATOM     19  C   UNL     1      45.259   4.279   8.872  0.00  0.00    +0.000 A 
ATOM     20  C   UNL     1      44.977   2.995   9.354  0.00  0.00    +0.000 A 
ATOM     21  C   UNL     1      45.619   1.896   8.764  0.00  0.00    +0.000 A 
BRANCH  16  22
ATOM     22  C   UNL     1      47.200   0.869   7.074  0.00  0.00    +0.000 C 
BRANCH  22  23
ATOM     23  N   UNL     1      46.841  -0.368   7.759  0.00  0.00    +0.000 NA
ATOM     24  H   UNL     1      46.928  -0.229   8.763  0.00  0.00    +0.000 HD
ATOM     25  H   UNL     1      47.519  -1.087   7.507  0.00  0.00    +0.000 HD
ENDBRANCH  22  23
ENDBRANCH  16  22
ENDBRANCH  15  20
ENDBRANCH  14  15
ENDBRANCH   1  14
TORSDOF 7
ENDMDL
MODEL 4
REMARK VINA RESULT:    -7.169      1.361      1.657
REMARK INTER + INTRA:         -10.630
REMARK INTER:                 -10.048
REMARK INTRA:                  -0.583
REMARK UNBOUND:                -0.737
REMARK  Name = 
REMARK  7 active torsions:
REMARK  status: ('A' for Active; 'I' for Inactive)
REMARK    1  A    between atoms: N_1  and  C_2
REMARK    2  A    between atoms: C_2  and  C_3
REMARK    3  A    between atoms: C_7  and  C_8
REMARK    4  A    between atoms: C_8  and  C_9
REMARK    5  A    between atoms: C_9  and  N_10
REMARK    6  A    between atoms: N_10  and  C_11
REMARK    7  A    between atoms: C_14  and  C_15
REMARK                            x       y       z     vdW  Elec       q    Type
REMARK                         _______ _______ _______ _____ _____    ______ ____
ROOT
ATOM      1  N   UNL     1      43.623   3.617  10.466  0.00  0.00    +0.000 N 
ATOM      2  H   UNL     1      42.663   3.461  10.170  0.00  0.00    +0.000 HD
ENDROOT
BRANCH   1   3
ATOM      3  C   UNL     1      44.540   3.298   9.445  0.00  0.00    +0.000 A 
ATOM      4  C   UNL     1      45.114   4.274   8.621  0.00  0.00    +0.000 A 
ATOM      5  C   UNL     1      46.054   3.943   7.638  0.00  0.00    +0.000 A 
ATOM      6  C   UNL     1      46.476   2.623   7.485  0.00  0.00    +0.000 A 
ATOM      7  C   UNL     1      45.952   1.638   8.325  0.00  0.00    +0.000 A 
ATOM      8  C   UNL     1      45.007   1.981   9.308  0.00  0.00    +0.000 A 
BRANCH   6   9
ATOM      9  C   UNL     1      47.468   2.343   6.410  0.00  0.00    +0.000 C 
ATOM     10  N   UNL     1      47.408   3.105   5.276  0.00  0.00    +0.000 N 
ATOM     11  O   UNL     1      48.286   1.440   6.511  0.00  0.00    +0.000 OA
ATOM     12  H   UNL     1      46.623   3.698   5.055  0.00  0.00    +0.000 HD
ATOM     13  H   UNL     1      48.011   2.811   4.518  0.00  0.00    +0.000 HD
ENDBRANCH   6   9
ENDBRANCH   1   3
BRANCH   1  14
ATOM     14  C   UNL     1      43.808   4.925  11.118  0.00  0.00    +0.000 C 
BRANCH  14  15
ATOM     15  C   UNL     1      44.647   4.817  12.397  0.00  0.00    +0.000 C 
BRANCH  15  20
ATOM     16  C   UNL     1      45.875   8.446  12.329  0.00  0.00    +0.000 A 
ATOM     17  C   UNL     1      47.099   8.325  12.998  0.00  0.00    +0.000 A 
ATOM     18  C   UNL     1      47.539   7.079  13.444  0.00  0.00    +0.000 A 
ATOM     19  C   UNL     1      46.762   5.939  13.233  0.00  0.00    +0.000 A 
ATOM     20  C   UNL     1      45.534   6.032  12.566  0.00  0.00    +0.000 A 
ATOM     21  C   UNL     1      45.104   7.289  12.114  0.00  0.00    +0.000 A 
BRANCH  16  22
ATOM     22  C   UNL     1      45.395   9.789  11.841  0.00  0.00    +0.000 C 
BRANCH  22  23
ATOM     23  N   UNL     1      44.150  10.182  12.494  0.00  0.00    +0.000 NA
ATOM     24  H   UNL     1      43.636  10.809  11.879  0.00  0.00    +0.000 HD
ATOM     25  H   UNL     1      44.378  10.719  13.329  0.00  0.00    +0.000 HD
ENDBRANCH  22  23
ENDBRANCH  16  22
ENDBRANCH  15  20
ENDBRANCH  14  15
ENDBRANCH   1  14
TORSDOF 7
ENDMDL
MODEL 5
REMARK VINA RESULT:    -6.826      1.512      2.243
REMARK INTER + INTRA:         -10.156
REMARK INTER:                  -9.521
REMARK INTRA:                  -0.635
REMARK UNBOUND:                -0.737
REMARK  Name = 
REMARK  7 active torsions:
REMARK  status: ('A' for Active; 'I' for Inactive)
REMARK    1  A    between atoms: N_1  and  C_2
REMARK    2  A    between atoms: C_2  and  C_3
REMARK    3  A    between atoms: C_7  and  C_8
REMARK    4  A    between atoms: C_8  and  C_9
REMARK    5  A    between atoms: C_9  and  N_10
REMARK    6  A    between atoms: N_10  and  C_11
REMARK    7  A    between atoms: C_14  and  C_15
REMARK                            x       y       z     vdW  Elec       q    Type
REMARK                         _______ _______ _______ _____ _____    ______ ____
ROOT
ATOM      1  N   UNL     1      43.827   2.667  10.623  0.00  0.00    +0.000 N 
ATOM      2  H   UNL     1      42.871   2.518  10.308  0.00  0.00    +0.000 HD
ENDROOT
BRANCH   1   3
ATOM      3  C   UNL     1      44.728   2.712   9.541  0.00  0.00    +0.000 A 
ATOM      4  C   UNL     1      45.420   1.580   9.093  0.00  0.00    +0.000 A 
ATOM      5  C   UNL     1      46.281   1.634   7.991  0.00  0.00    +0.000 A 
ATOM      6  C   UNL     1      46.437   2.823   7.280  0.00  0.00    +0.000 A 
ATOM      7  C   UNL     1      45.723   3.955   7.679  0.00  0.00    +0.000 A 
ATOM      8  C   UNL     1      44.862   3.890   8.789  0.00  0.00    +0.000 A 
BRANCH   6   9
ATOM      9  C   UNL     1      47.380   2.810   6.127  0.00  0.00    +0.000 C 
ATOM     10  N   UNL     1      48.684   2.485   6.376  0.00  0.00    +0.000 N 
ATOM     11  O   UNL     1      47.019   3.117   4.999  0.00  0.00    +0.000 OA
ATOM     12  H   UNL     1      49.072   2.447   7.306  0.00  0.00    +0.000 HD
ATOM     13  H   UNL     1      49.322   2.604   5.599  0.00  0.00    +0.000 HD
ENDBRANCH   6   9
ENDBRANCH   1   3
BRANCH   1  14
ATOM     14  C   UNL     1      43.936   3.760  11.603  0.00  0.00    +0.000 C 
BRANCH  14  15
ATOM     15  C   UNL     1      45.388   4.007  12.030  0.00  0.00    +0.000 C 
BRANCH  15  20
ATOM     16  C   UNL     1      47.131   7.302  12.916  0.00  0.00    +0.000 A 
ATOM     17  C   UNL     1      46.285   8.227  12.291  0.00  0.00    +0.000 A 
ATOM     18  C   UNL     1      45.146   7.794  11.612  0.00  0.00    +0.000 A 
ATOM     19  C   UNL     1      44.839   6.434  11.544  0.00  0.00    +0.000 A 
ATOM     20  C   UNL     1      45.668   5.489  12.161  0.00  0.00    +0.000 A 
ATOM     21  C   UNL     1      46.807   5.935  12.848  0.00  0.00    +0.000 A 
BRANCH  16  22
ATOM     22  C   UNL     1      48.361   7.763  13.655  0.00  0.00    +0.000 C 
BRANCH  22  23
ATOM     23  N   UNL     1      49.425   6.766  13.597  0.00  0.00    +0.000 NA
ATOM     24  H   UNL     1      49.609   6.533  12.623  0.00  0.00    +0.000 HD
ATOM     25  H   UNL     1      49.092   5.910  14.039  0.00  0.00    +0.000 HD
ENDBRANCH  22  23
ENDBRANCH  16  22
ENDBRANCH  15  20
ENDBRANCH  14  15
ENDBRANCH   1  14
TORSDOF 7
ENDMDL
MODEL 6
REMARK VINA RESULT:    -6.562      2.632      6.944
REMARK INTER + INTRA:          -9.792
REMARK INTER:                  -9.249
REMARK INTRA:                  -0.543
REMARK UNBOUND:                -0.737
REMARK  Name = 
REMARK  7 active torsions:
REMARK  status: ('A' for Active; 'I' for Inactive)
REMARK    1  A    between atoms: N_1  and  C_2
REMARK    2  A    between atoms: C_2  and  C_3
REMARK    3  A    between atoms: C_7  and  C_8
REMARK    4  A    between atoms: C_8  and  C_9
REMARK    5  A    between atoms: C_9  and  N_10
REMARK    6  A    between atoms: N_10  and  C_11
REMARK    7  A    between atoms: C_14  and  C_15
REMARK                            x       y       z     vdW  Elec       q    Type
REMARK                         _______ _______ _______ _____ _____    ______ ____
ROOT
ATOM      1  N   UNL     1      43.545   5.598  11.130  0.00  0.00    +0.000 N 
ATOM      2  H   UNL     1      42.778   5.403  11.768  0.00  0.00    +0.000 HD
ENDROOT
BRANCH   1   3
ATOM      3  C   UNL     1      44.692   6.040  11.818  0.00  0.00    +0.000 A 
ATOM      4  C   UNL     1      45.054   7.391  11.883  0.00  0.00    +0.000 A 
ATOM      5  C   UNL     1      46.175   7.817  12.605  0.00  0.00    +0.000 A 
ATOM      6  C   UNL     1      46.940   6.897  13.321  0.00  0.00    +0.000 A 
ATOM      7  C   UNL     1      46.574   5.550  13.309  0.00  0.00    +0.000 A 
ATOM      8  C   UNL     1      45.447   5.133  12.579  0.00  0.00    +0.000 A 
BRANCH   6   9
ATOM      9  C   UNL     1      48.126   7.420  14.055  0.00  0.00    +0.000 C 
ATOM     10  N   UNL     1      48.261   7.076  15.371  0.00  0.00    +0.000 N 
ATOM     11  O   UNL     1      48.935   8.164  13.519  0.00  0.00    +0.000 OA
ATOM     12  H   UNL     1      47.516   6.661  15.909  0.00  0.00    +0.000 HD
ATOM     13  H   UNL     1      49.005   7.544  15.873  0.00  0.00    +0.000 HD
ENDBRANCH   6   9
ENDBRANCH   1   3
BRANCH   1  14
ATOM     14  C   UNL     1      43.753   4.521  10.148  0.00  0.00    +0.000 C 
BRANCH  14  15
ATOM     15  C   UNL     1      44.876   4.853   9.158  0.00  0.00    +0.000 C 
BRANCH  15  20
ATOM     16  C   UNL     1      46.687   2.534   6.704  0.00  0.00    +0.000 A 
ATOM     17  C   UNL     1      46.523   1.296   7.338  0.00  0.00    +0.000 A 
ATOM     18  C   UNL     1      45.812   1.204   8.534  0.00  0.00    +0.000 A 
ATOM     19  C   UNL     1      45.258   2.347   9.114  0.00  0.00    +0.000 A 
ATOM     20  C   UNL     1      45.406   3.597   8.501  0.00  0.00    +0.000 A 
ATOM     21  C   UNL     1      46.117   3.677   7.293  0.00  0.00    +0.000 A 
BRANCH  16  22
ATOM     22  C   UNL     1      47.452   2.640   5.409  0.00  0.00    +0.000 C 
BRANCH  22  23
ATOM     23  N   UNL     1      48.628   1.776   5.411  0.00  0.00    +0.000 NA
ATOM     24  H   UNL     1      49.382   2.242   5.912  0.00  0.00    +0.000 HD
ATOM     25  H   UNL     1      48.948   1.662   4.450  0.00  0.00    +0.000 HD
ENDBRANCH  22  23
ENDBRANCH  16  22
ENDBRANCH  15  20
ENDBRANCH  14  15
ENDBRANCH   1  14
TORSDOF 7
ENDMDL
MODEL 7
REMARK VINA RESULT:    -6.344      1.701      2.667
REMARK INTER + INTRA:          -9.491
REMARK INTER:                  -8.831
REMARK INTRA:                  -0.659
REMARK UNBOUND:                -0.737
REMARK  Name = 
REMARK  7 active torsions:
REMARK  status: ('A' for Active; 'I' for Inactive)
REMARK    1  A    between atoms: N_1  and  C_2
REMARK    2  A    between atoms: C_2  and  C_3
REMARK    3  A    between atoms: C_7  and  C_8
REMARK    4  A    between atoms: C_8  and  C_9
REMARK    5  A    between atoms: C_9  and  N_10
REMARK    6  A    between atoms: N_10  and  C_11
REMARK    7  A    between atoms: C_14  and  C_15
REMARK                            x       y       z     vdW  Elec       q    Type
REMARK                         _______ _______ _______ _____ _____    ______ ____
ROOT
ATOM      1  N   UNL     1      44.307   4.146  10.710  0.00  0.00    +0.000 N 
ATOM      2  H   UNL     1      43.448   4.606  10.420  0.00  0.00    +0.000 HD
ENDROOT
BRANCH   1   3
ATOM      3  C   UNL     1      45.100   3.781   9.603  0.00  0.00    +0.000 A 
ATOM      4  C   UNL     1      45.186   2.460   9.146  0.00  0.00    +0.000 A 
ATOM      5  C   UNL     1      45.946   2.122   8.021  0.00  0.00    +0.000 A 
ATOM      6  C   UNL     1      46.607   3.113   7.296  0.00  0.00    +0.000 A 
ATOM      7  C   UNL     1      46.500   4.444   7.705  0.00  0.00    +0.000 A 
ATOM      8  C   UNL     1      45.735   4.772   8.839  0.00  0.00    +0.000 A 
BRANCH   6   9
ATOM      9  C   UNL     1      47.408   2.677   6.118  0.00  0.00    +0.000 C 
ATOM     10  N   UNL     1      48.623   2.098   6.355  0.00  0.00    +0.000 N 
ATOM     11  O   UNL     1      47.019   2.862   4.973  0.00  0.00    +0.000 OA
ATOM     12  H   UNL     1      49.080   2.130   7.253  0.00  0.00    +0.000 HD
ATOM     13  H   UNL     1      49.195   1.927   5.536  0.00  0.00    +0.000 HD
ENDBRANCH   6   9
ENDBRANCH   1   3
BRANCH   1  14
ATOM     14  C   UNL     1      44.998   4.867  11.792  0.00  0.00    +0.000 C 
BRANCH  14  15
ATOM     15  C   UNL     1      44.504   6.312  11.928  0.00  0.00    +0.000 C 
BRANCH  15  20
ATOM     16  C   UNL     1      48.076   7.701  11.925  0.00  0.00    +0.000 A 
ATOM     17  C   UNL     1      47.832   9.061  12.156  0.00  0.00    +0.000 A 
ATOM     18  C   UNL     1      46.529   9.523  12.339  0.00  0.00    +0.000 A 
ATOM     19  C   UNL     1      45.452   8.636  12.288  0.00  0.00    +0.000 A 
ATOM     20  C   UNL     1      45.668   7.272  12.059  0.00  0.00    +0.000 A 
ATOM     21  C   UNL     1      46.983   6.815  11.885  0.00  0.00    +0.000 A 
BRANCH  16  22
ATOM     22  C   UNL     1      49.481   7.193  11.730  0.00  0.00    +0.000 C 
BRANCH  22  23
ATOM     23  N   UNL     1      50.346   7.575  12.842  0.00  0.00    +0.000 NA
ATOM     24  H   UNL     1      51.295   7.701  12.496  0.00  0.00    +0.000 HD
ATOM     25  H   UNL     1      50.382   6.803  13.506  0.00  0.00    +0.000 HD
ENDBRANCH  22  23
ENDBRANCH  16  22
ENDBRANCH  15  20
ENDBRANCH  14  15
ENDBRANCH   1  14
TORSDOF 7
ENDMDL
MODEL 8
REMARK VINA RESULT:    -6.042      3.655      5.604
REMARK INTER + INTRA:          -9.075
REMARK INTER:                  -8.430
REMARK INTRA:                  -0.645
REMARK UNBOUND:                -0.737
REMARK  Name = 
REMARK  7 active torsions:
REMARK  status: ('A' for Active; 'I' for Inactive)
REMARK    1  A    between atoms: N_1  and  C_2
REMARK    2  A    between atoms: C_2  and  C_3
REMARK    3  A    between atoms: C_7  and  C_8
REMARK    4  A    between atoms: C_8  and  C_9
REMARK    5  A    between atoms: C_9  and  N_10
REMARK    6  A    between atoms: N_10  and  C_11
REMARK    7  A    between atoms: C_14  and  C_15
REMARK                            x       y       z     vdW  Elec       q    Type
REMARK                         _______ _______ _______ _____ _____    ______ ____
ROOT
ATOM      1  N   UNL     1      47.114   7.220  13.594  0.00  0.00    +0.000 N 
ATOM      2  H   UNL     1      47.082   8.081  13.055  0.00  0.00    +0.000 HD
ENDROOT
BRANCH   1   3
ATOM      3  C   UNL     1      46.387   6.189  12.967  0.00  0.00    +0.000 A 
ATOM      4  C   UNL     1      45.794   6.347  11.708  0.00  0.00    +0.000 A 
ATOM      5  C   UNL     1      45.109   5.299  11.083  0.00  0.00    +0.000 A 
ATOM      6  C   UNL     1      45.039   4.045  11.689  0.00  0.00    +0.000 A 
ATOM      7  C   UNL     1      45.661   3.849  12.924  0.00  0.00    +0.000 A 
ATOM      8  C   UNL     1      46.345   4.910  13.544  0.00  0.00    +0.000 A 
BRANCH   6   9
ATOM      9  C   UNL     1      44.283   2.981  10.972  0.00  0.00    +0.000 C 
ATOM     10  N   UNL     1      44.911   2.339   9.941  0.00  0.00    +0.000 N 
ATOM     11  O   UNL     1      43.125   2.711  11.260  0.00  0.00    +0.000 OA
ATOM     12  H   UNL     1      45.766   2.676   9.525  0.00  0.00    +0.000 HD
ATOM     13  H   UNL     1      44.332   1.712   9.397  0.00  0.00    +0.000 HD
ENDBRANCH   6   9
ENDBRANCH   1   3
BRANCH   1  14
ATOM     14  C   UNL     1      48.477   6.877  14.033  0.00  0.00    +0.000 C 
BRANCH  14  15
ATOM     15  C   UNL     1      48.754   7.342  15.467  0.00  0.00    +0.000 C 
BRANCH  15  20
ATOM     16  C   UNL     1      48.927   4.050  17.420  0.00  0.00    +0.000 A 
ATOM     17  C   UNL     1      50.287   4.011  17.755  0.00  0.00    +0.000 A 
ATOM     18  C   UNL     1      51.137   5.050  17.378  0.00  0.00    +0.000 A 
ATOM     19  C   UNL     1      50.642   6.140  16.658  0.00  0.00    +0.000 A 
ATOM     20  C   UNL     1      49.287   6.204  16.312  0.00  0.00    +0.000 A 
ATOM     21  C   UNL     1      48.438   5.157  16.703  0.00  0.00    +0.000 A 
BRANCH  16  22
ATOM     22  C   UNL     1      48.003   2.932  17.828  0.00  0.00    +0.000 C 
BRANCH  22  23
ATOM     23  N   UNL     1      46.617   3.231  17.483  0.00  0.00    +0.000 NA
ATOM     24  H   UNL     1      46.477   4.239  17.513  0.00  0.00    +0.000 HD
ATOM     25  H   UNL     1      46.011   2.834  18.200  0.00  0.00    +0.000 HD
ENDBRANCH  22  23
ENDBRANCH  16  22
ENDBRANCH  15  20
ENDBRANCH  14  15
ENDBRANCH   1  14
TORSDOF 7
ENDMDL
MODEL 9
REMARK VINA RESULT:    -5.711      3.289      6.603
REMARK INTER + INTRA:          -8.618
REMARK INTER:                  -7.620
REMARK INTRA:                  -0.999
REMARK UNBOUND:                -0.737
REMARK  Name = 
REMARK  7 active torsions:
REMARK  status: ('A' for Active; 'I' for Inactive)
REMARK    1  A    between atoms: N_1  and  C_2
REMARK    2  A    between atoms: C_2  and  C_3
REMARK    3  A    between atoms: C_7  and  C_8
REMARK    4  A    between atoms: C_8  and  C_9
REMARK    5  A    between atoms: C_9  and  N_10
REMARK    6  A    between atoms: N_10  and  C_11
REMARK    7  A    between atoms: C_14  and  C_15
REMARK                            x       y       z     vdW  Elec       q    Type
REMARK                         _______ _______ _______ _____ _____    ______ ____
ROOT
ATOM      1  N   UNL     1      47.076   6.782  12.584  0.00  0.00    +0.000 N 
ATOM      2  H   UNL     1      47.912   7.296  12.318  0.00  0.00    +0.000 HD
ENDROOT
BRANCH   1   3
ATOM      3  C   UNL     1      47.350   5.832  13.589  0.00  0.00    +0.000 A 
ATOM      4  C   UNL     1      47.923   6.184  14.817  0.00  0.00    +0.000 A 
ATOM      5  C   UNL     1      48.151   5.234  15.819  0.00  0.00    +0.000 A 
ATOM      6  C   UNL     1      47.767   3.907  15.629  0.00  0.00    +0.000 A 
ATOM      7  C   UNL     1      47.152   3.539  14.430  0.00  0.00    +0.000 A 
ATOM      8  C   UNL     1      46.930   4.502  13.429  0.00  0.00    +0.000 A 
BRANCH   6   9
ATOM      9  C   UNL     1      48.052   2.948  16.732  0.00  0.00    +0.000 C 
ATOM     10  N   UNL     1      47.180   2.913  17.785  0.00  0.00    +0.000 N 
ATOM     11  O   UNL     1      49.051   2.242  16.727  0.00  0.00    +0.000 OA
ATOM     12  H   UNL     1      46.481   3.622  17.942  0.00  0.00    +0.000 HD
ATOM     13  H   UNL     1      47.466   2.344  18.572  0.00  0.00    +0.000 HD
ENDBRANCH   6   9
ENDBRANCH   1   3
BRANCH   1  14
ATOM     14  C   UNL     1      45.921   7.663  12.823  0.00  0.00    +0.000 C 
BRANCH  14  15
ATOM     15  C   UNL     1      44.866   7.542  11.717  0.00  0.00    +0.000 C 
BRANCH  15  20
ATOM     16  C   UNL     1      44.201   4.000  10.414  0.00  0.00    +0.000 A 
ATOM     17  C   UNL     1      43.499   3.447  11.493  0.00  0.00    +0.000 A 
ATOM     18  C   UNL     1      43.219   4.217  12.621  0.00  0.00    +0.000 A 
ATOM     19  C   UNL     1      43.638   5.547  12.689  0.00  0.00    +0.000 A 
ATOM     20  C   UNL     1      44.341   6.125  11.624  0.00  0.00    +0.000 A 
ATOM     21  C   UNL     1      44.611   5.343  10.490  0.00  0.00    +0.000 A 
BRANCH  16  22
ATOM     22  C   UNL     1      44.505   3.174   9.190  0.00  0.00    +0.000 C 
BRANCH  22  23
ATOM     23  N   UNL     1      44.618   1.756   9.516  0.00  0.00    +0.000 NA
ATOM     24  H   UNL     1      44.399   1.624  10.502  0.00  0.00    +0.000 HD
ATOM     25  H   UNL     1      45.589   1.472   9.396  0.00  0.00    +0.000 HD
ENDBRANCH  22  23
ENDBRANCH  16  22
ENDBRANCH  15  20
ENDBRANCH  14  15
ENDBRANCH   1  14
TORSDOF 7
ENDMDL
