MODEL 1
REMARK VINA RESULT:    -8.131      0.000      0.000
REMARK INTER + INTRA:         -12.619
REMARK INTER:                 -11.458
REMARK INTRA:                  -1.161
REMARK UNBOUND:                -1.161
REMARK  Name = 
REMARK  11 active torsions:
REMARK  status: ('A' for Active; 'I' for Inactive)
REMARK    1  A    between atoms: C_1  and  O_2
REMARK    2  A    between atoms: O_2  and  C_3
REMARK    3  A    between atoms: N_7  and  C_8
REMARK    4  A    between atoms: C_8  and  C_9
REMARK    5  A    between atoms: C_9  and  C_10
REMARK    6  A    between atoms: C_9  and  C_11
REMARK    7  A    between atoms: C_9  and  C_12
REMARK    8  A    between atoms: C_15  and  O_16
REMARK    9  A    between atoms: O_16  and  C_17
REMARK   10  A    between atoms: C_18  and  O_19
REMARK   11  A    between atoms: O_19  and  C_20
REMARK                            x       y       z     vdW  Elec       q    Type
REMARK                         _______ _______ _______ _____ _____    ______ ____
ROOT
ATOM      1  C   UNL     1      43.727   4.477  11.805  0.00  0.00    +0.000 C 
ATOM      2  C   UNL     1      42.598   5.487  12.123  0.00  0.00    +0.000 C 
ATOM      3  C   UNL     1      43.373   3.170  12.559  0.00  0.00    +0.000 C 
ENDROOT
BRANCH   1   4
ATOM      4  C   UNL     1      45.125   4.952  12.242  0.00  0.00    +0.000 A 
ATOM      5  C   UNL     1      45.716   6.075  11.642  0.00  0.00    +0.000 A 
ATOM      6  C   UNL     1      46.970   6.547  12.051  0.00  0.00    +0.000 A 
ATOM      7  C   UNL     1      47.689   5.908  13.067  0.00  0.00    +0.000 A 
ATOM      8  C   UNL     1      47.114   4.789  13.681  0.00  0.00    +0.000 A 
ATOM      9  C   UNL     1      45.854   4.329  13.266  0.00  0.00    +0.000 A 
BRANCH   7  10
ATOM     10  O   UNL     1      48.901   6.351  13.518  0.00  0.00    +0.000 OA
ATOM     11  C   UNL     1      48.936   7.627  14.146  0.00  0.00    +0.000 C 
ENDBRANCH   7  10
BRANCH   8  12
ATOM     12  O   UNL     1      47.618   4.068  14.740  0.00  0.00    +0.000 OA
BRANCH  12  13
ATOM     13  C   UNL     1      47.314   4.441  16.101  0.00  0.00    +0.000 C 
ATOM     14  C   UNL     1      48.413   5.127  16.936  0.00  0.00    +0.000 C 
ATOM     15  N   UNL     1      48.238   4.134  18.011  0.00  0.00    +0.000 NA
ATOM     16  C   UNL     1      47.439   3.286  17.116  0.00  0.00    +0.000 C 
ATOM     17  H   UNL     1      47.717   4.483  18.815  0.00  0.00    +0.000 HD
ENDBRANCH  12  13
ENDBRANCH   8  12
ENDBRANCH   1   4
BRANCH   1  18
ATOM     18  C   UNL     1      43.695   4.159  10.280  0.00  0.00    +0.000 C 
BRANCH  18  23
ATOM     19  C   UNL     1      47.115   2.080   7.056  0.00  0.00    +0.000 A 
ATOM     20  C   UNL     1      46.715   3.392   7.252  0.00  0.00    +0.000 A 
ATOM     21  C   UNL     1      45.752   3.679   8.221  0.00  0.00    +0.000 A 
ATOM     22  C   UNL     1      45.188   2.654   8.971  0.00  0.00    +0.000 A 
ATOM     23  N   UNL     1      44.260   2.867   9.955  0.00  0.00    +0.000 N 
ATOM     24  N   UNL     1      45.557   1.374   8.786  0.00  0.00    +0.000 NA
ATOM     25  C   UNL     1      46.508   1.117   7.851  0.00  0.00    +0.000 A 
ATOM     26  H   UNL     1      43.849   2.013  10.318  0.00  0.00    +0.000 HD
BRANCH  19  28
ATOM     27  C   UNL     1      48.122   2.352   4.931  0.00  0.00    +0.000 C 
ATOM     28  O   UNL     1      48.050   1.644   6.164  0.00  0.00    +0.000 OA
ENDBRANCH  19  28
ENDBRANCH  18  23
ENDBRANCH   1  18
TORSDOF 7
ENDMDL
MODEL 2
REMARK VINA RESULT:    -7.026      2.261      3.574
REMARK INTER + INTRA:         -11.062
REMARK INTER:                 -10.084
REMARK INTRA:                  -0.978
REMARK UNBOUND:                -1.161
REMARK  Name = 
REMARK  11 active torsions:
REMARK  status: ('A' for Active; 'I' for Inactive)
REMARK    1  A    between atoms: C_1  and  O_2
REMARK    2  A    between atoms: O_2  and  C_3
REMARK    3  A    between atoms: N_7  and  C_8
REMARK    4  A    between atoms: C_8  and  C_9
REMARK    5  A    between atoms: C_9  and  C_10
REMARK    6  A    between atoms: C_9  and  C_11
REMARK    7  A    between atoms: C_9  and  C_12
REMARK    8  A    between atoms: C_15  and  O_16
REMARK    9  A    between atoms: O_16  and  C_17
REMARK   10  A    between atoms: C_18  and  O_19
REMARK   11  A    between atoms: O_19  and  C_20
REMARK                            x       y       z     vdW  Elec       q    Type
REMARK                         _______ _______ _______ _____ _____    ______ ____
ROOT
ATOM      1  C   UNL     1      43.676   5.041  11.625  0.00  0.00    +0.000 C 
ATOM      2  C   UNL     1      42.599   6.143  11.774  0.00  0.00    +0.000 C 
ATOM      3  C   UNL     1      43.168   3.817  12.430  0.00  0.00    +0.000 C 
ENDROOT
BRANCH   1   4
ATOM      4  C   UNL     1      45.062   5.454  12.153  0.00  0.00    +0.000 A 
ATOM      5  C   UNL     1      45.766   4.621  13.037  0.00  0.00    +0.000 A 
ATOM      6  C   UNL     1      47.044   4.959  13.498  0.00  0.00    +0.000 A 
ATOM      7  C   UNL     1      47.666   6.150  13.106  0.00  0.00    +0.000 A 
ATOM      8  C   UNL     1      46.982   6.992  12.222  0.00  0.00    +0.000 A 
ATOM      9  C   UNL     1      45.703   6.640  11.762  0.00  0.00    +0.000 A 
BRANCH   7  10
ATOM     10  O   UNL     1      48.923   6.506  13.509  0.00  0.00    +0.000 OA
ATOM     11  C   UNL     1      49.081   6.913  14.863  0.00  0.00    +0.000 C 
ENDBRANCH   7  10
BRANCH   8  12
ATOM     12  O   UNL     1      47.442   8.162  11.662  0.00  0.00    +0.000 OA
BRANCH  12  13
ATOM     13  C   UNL     1      47.143   9.439  12.266  0.00  0.00    +0.000 C 
ATOM     14  C   UNL     1      45.834  10.149  11.871  0.00  0.00    +0.000 C 
ATOM     15  N   UNL     1      46.579  11.377  11.542  0.00  0.00    +0.000 NA
ATOM     16  C   UNL     1      47.848  10.636  11.595  0.00  0.00    +0.000 C 
ATOM     17  H   UNL     1      46.503  12.108  12.249  0.00  0.00    +0.000 HD
ENDBRANCH  12  13
ENDBRANCH   8  12
ENDBRANCH   1   4
BRANCH   1  18
ATOM     18  C   UNL     1      43.750   4.617  10.128  0.00  0.00    +0.000 C 
BRANCH  18  23
ATOM     19  C   UNL     1      47.062   2.117   7.096  0.00  0.00    +0.000 A 
ATOM     20  C   UNL     1      46.694   3.451   7.152  0.00  0.00    +0.000 A 
ATOM     21  C   UNL     1      45.756   3.866   8.099  0.00  0.00    +0.000 A 
ATOM     22  C   UNL     1      45.185   2.942   8.968  0.00  0.00    +0.000 A 
ATOM     23  N   UNL     1      44.281   3.284   9.938  0.00  0.00    +0.000 N 
ATOM     24  N   UNL     1      45.524   1.642   8.920  0.00  0.00    +0.000 NA
ATOM     25  C   UNL     1      46.451   1.262   8.002  0.00  0.00    +0.000 A 
ATOM     26  H   UNL     1      43.860   2.486  10.400  0.00  0.00    +0.000 HD
BRANCH  19  28
ATOM     27  C   UNL     1      48.206   2.270   5.029  0.00  0.00    +0.000 C 
ATOM     28  O   UNL     1      47.970   1.563   6.242  0.00  0.00    +0.000 OA
ENDBRANCH  19  28
ENDBRANCH  18  23
ENDBRANCH   1  18
TORSDOF 7
ENDMDL
MODEL 3
REMARK VINA RESULT:    -6.808      2.410      3.227
REMARK INTER + INTRA:         -10.755
REMARK INTER:                  -9.932
REMARK INTRA:                  -0.823
REMARK UNBOUND:                -1.161
REMARK  Name = 
REMARK  11 active torsions:
REMARK  status: ('A' for Active; 'I' for Inactive)
REMARK    1  A    between atoms: C_1  and  O_2
REMARK    2  A    between atoms: O_2  and  C_3
REMARK    3  A    between atoms: N_7  and  C_8
REMARK    4  A    between atoms: C_8  and  C_9
REMARK    5  A    between atoms: C_9  and  C_10
REMARK    6  A    between atoms: C_9  and  C_11
REMARK    7  A    between atoms: C_9  and  C_12
REMARK    8  A    between atoms: C_15  and  O_16
REMARK    9  A    between atoms: O_16  and  C_17
REMARK   10  A    between atoms: C_18  and  O_19
REMARK   11  A    between atoms: O_19  and  C_20
REMARK                            x       y       z     vdW  Elec       q    Type
REMARK                         _______ _______ _______ _____ _____    ______ ____
ROOT
ATOM      1  C   UNL     1      44.198   4.706  12.041  0.00  0.00    +0.000 C 
ATOM      2  C   UNL     1      43.021   4.457  13.016  0.00  0.00    +0.000 C 
ATOM      3  C   UNL     1      45.342   3.758  12.481  0.00  0.00    +0.000 C 
ENDROOT
BRANCH   1   4
ATOM      4  C   UNL     1      44.711   6.157  12.046  0.00  0.00    +0.000 A 
ATOM      5  C   UNL     1      44.038   7.154  11.321  0.00  0.00    +0.000 A 
ATOM      6  C   UNL     1      44.466   8.487  11.343  0.00  0.00    +0.000 A 
ATOM      7  C   UNL     1      45.590   8.877  12.080  0.00  0.00    +0.000 A 
ATOM      8  C   UNL     1      46.271   7.899  12.812  0.00  0.00    +0.000 A 
ATOM      9  C   UNL     1      45.830   6.565  12.787  0.00  0.00    +0.000 A 
BRANCH   7  10
ATOM     10  O   UNL     1      46.025  10.171  12.153  0.00  0.00    +0.000 OA
ATOM     11  C   UNL     1      45.297  11.145  11.414  0.00  0.00    +0.000 C 
ENDBRANCH   7  10
BRANCH   8  12
ATOM     12  O   UNL     1      47.346   8.084  13.652  0.00  0.00    +0.000 OA
BRANCH  12  13
ATOM     13  C   UNL     1      48.650   8.408  13.124  0.00  0.00    +0.000 C 
ATOM     14  C   UNL     1      49.082   7.765  11.792  0.00  0.00    +0.000 C 
ATOM     15  N   UNL     1      50.331   7.285  12.409  0.00  0.00    +0.000 NA
ATOM     16  C   UNL     1      49.804   7.595  13.746  0.00  0.00    +0.000 C 
ATOM     17  H   UNL     1      51.153   7.832  12.157  0.00  0.00    +0.000 HD
ENDBRANCH  12  13
ENDBRANCH   8  12
ENDBRANCH   1   4
BRANCH   1  18
ATOM     18  C   UNL     1      43.757   4.272  10.610  0.00  0.00    +0.000 C 
BRANCH  18  23
ATOM     19  C   UNL     1      46.885   2.112   7.152  0.00  0.00    +0.000 A 
ATOM     20  C   UNL     1      46.550   3.435   7.389  0.00  0.00    +0.000 A 
ATOM     21  C   UNL     1      45.661   3.745   8.420  0.00  0.00    +0.000 A 
ATOM     22  C   UNL     1      45.105   2.731   9.191  0.00  0.00    +0.000 A 
ATOM     23  N   UNL     1      44.249   2.964  10.234  0.00  0.00    +0.000 N 
ATOM     24  N   UNL     1      45.412   1.441   8.967  0.00  0.00    +0.000 NA
ATOM     25  C   UNL     1      46.292   1.162   7.970  0.00  0.00    +0.000 A 
ATOM     26  H   UNL     1      43.829   2.122  10.611  0.00  0.00    +0.000 HD
BRANCH  19  28
ATOM     27  C   UNL     1      47.901   2.474   5.044  0.00  0.00    +0.000 C 
ATOM     28  O   UNL     1      47.745   1.654   6.197  0.00  0.00    +0.000 OA
ENDBRANCH  19  28
ENDBRANCH  18  23
ENDBRANCH   1  18
TORSDOF 7
ENDMDL
MODEL 4
REMARK VINA RESULT:    -6.297      2.880      5.033
REMARK INTER + INTRA:         -10.035
REMARK INTER:                  -8.953
REMARK INTRA:                  -1.081
REMARK UNBOUND:                -1.161
REMARK  Name = 
REMARK  11 active torsions:
REMARK  status: ('A' for Active; 'I' for Inactive)
REMARK    1  A    between atoms: C_1  and  O_2
REMARK    2  A    between atoms: O_2  and  C_3
REMARK    3  A    between atoms: N_7  and  C_8
REMARK    4  A    between atoms: C_8  and  C_9
REMARK    5  A    between atoms: C_9  and  C_10
REMARK    6  A    between atoms: C_9  and  C_11
REMARK    7  A    between atoms: C_9  and  C_12
REMARK    8  A    between atoms: C_15  and  O_16
REMARK    9  A    between atoms: O_16  and  C_17
REMARK   10  A    between atoms: C_18  and  O_19
REMARK   11  A    between atoms: O_19  and  C_20
REMARK                            x       y       z     vdW  Elec       q    Type
REMARK                         _______ _______ _______ _____ _____    ______ ____
ROOT
ATOM      1  C   UNL     1      48.140   8.655  12.819  0.00  0.00    +0.000 C 
ATOM      2  C   UNL     1      48.849   7.740  11.791  0.00  0.00    +0.000 C 
ATOM      3  C   UNL     1      48.682  10.087  12.580  0.00  0.00    +0.000 C 
ENDROOT
BRANCH   1   4
ATOM      4  C   UNL     1      48.393   8.255  14.284  0.00  0.00    +0.000 A 
ATOM      5  C   UNL     1      48.397   9.227  15.298  0.00  0.00    +0.000 A 
ATOM      6  C   UNL     1      48.586   8.879  16.641  0.00  0.00    +0.000 A 
ATOM      7  C   UNL     1      48.792   7.550  17.025  0.00  0.00    +0.000 A 
ATOM      8  C   UNL     1      48.788   6.566  16.029  0.00  0.00    +0.000 A 
ATOM      9  C   UNL     1      48.591   6.926  14.686  0.00  0.00    +0.000 A 
BRANCH   7  10
ATOM     10  O   UNL     1      48.953   7.163  18.326  0.00  0.00    +0.000 OA
ATOM     11  C   UNL     1      47.958   7.577  19.256  0.00  0.00    +0.000 C 
ENDBRANCH   7  10
BRANCH   8  12
ATOM     12  O   UNL     1      48.899   5.205  16.202  0.00  0.00    +0.000 OA
BRANCH  12  13
ATOM     13  C   UNL     1      47.723   4.372  16.284  0.00  0.00    +0.000 C 
ATOM     14  C   UNL     1      46.937   4.344  17.610  0.00  0.00    +0.000 C 
ATOM     15  N   UNL     1      47.006   2.872  17.639  0.00  0.00    +0.000 NA
ATOM     16  C   UNL     1      48.020   2.886  16.575  0.00  0.00    +0.000 C 
ATOM     17  H   UNL     1      46.137   2.412  17.370  0.00  0.00    +0.000 HD
ENDBRANCH  12  13
ENDBRANCH   8  12
ENDBRANCH   1   4
BRANCH   1  18
ATOM     18  C   UNL     1      46.615   8.674  12.499  0.00  0.00    +0.000 C 
BRANCH  18  23
ATOM     19  C   UNL     1      44.509   4.161  11.229  0.00  0.00    +0.000 A 
ATOM     20  C   UNL     1      45.218   5.087  10.483  0.00  0.00    +0.000 A 
ATOM     21  C   UNL     1      45.690   6.249  11.097  0.00  0.00    +0.000 A 
ATOM     22  C   UNL     1      45.434   6.480  12.443  0.00  0.00    +0.000 A 
ATOM     23  N   UNL     1      45.890   7.583  13.115  0.00  0.00    +0.000 N 
ATOM     24  N   UNL     1      44.739   5.596  13.180  0.00  0.00    +0.000 NA
ATOM     25  C   UNL     1      44.303   4.464  12.568  0.00  0.00    +0.000 A 
ATOM     26  H   UNL     1      45.512   7.673  14.052  0.00  0.00    +0.000 HD
BRANCH  19  28
ATOM     27  C   UNL     1      44.488   2.520   9.524  0.00  0.00    +0.000 C 
ATOM     28  O   UNL     1      43.999   2.979  10.780  0.00  0.00    +0.000 OA
ENDBRANCH  19  28
ENDBRANCH  18  23
ENDBRANCH   1  18
TORSDOF 7
ENDMDL
MODEL 5
REMARK VINA RESULT:    -5.887      3.667      8.335
REMARK INTER + INTRA:          -9.457
REMARK INTER:                  -8.656
REMARK INTRA:                  -0.801
REMARK UNBOUND:                -1.161
REMARK  Name = 
REMARK  11 active torsions:
REMARK  status: ('A' for Active; 'I' for Inactive)
REMARK    1  A    between atoms: C_1  and  O_2
REMARK    2  A    between atoms: O_2  and  C_3
REMARK    3  A    between atoms: N_7  and  C_8
REMARK    4  A    between atoms: C_8  and  C_9
REMARK    5  A    between atoms: C_9  and  C_10
REMARK    6  A    between atoms: C_9  and  C_11
REMARK    7  A    between atoms: C_9  and  C_12
REMARK    8  A    between atoms: C_15  and  O_16
REMARK    9  A    between atoms: O_16  and  C_17
REMARK   10  A    between atoms: C_18  and  O_19
REMARK   11  A    between atoms: O_19  and  C_20
REMARK                            x       y       z     vdW  Elec       q    Type
REMARK                         _______ _______ _______ _____ _____    ______ ____
ROOT
ATOM      1  C   UNL     1      47.869   4.310  17.241  0.00  0.00    +0.000 C 
ATOM      2  C   UNL     1      47.173   2.935  17.394  0.00  0.00    +0.000 C 
ATOM      3  C   UNL     1      47.246   5.240  18.313  0.00  0.00    +0.000 C 
ENDROOT
BRANCH   1   4
ATOM      4  C   UNL     1      47.686   4.945  15.851  0.00  0.00    +0.000 A 
ATOM      5  C   UNL     1      48.370   6.123  15.509  0.00  0.00    +0.000 A 
ATOM      6  C   UNL     1      48.248   6.696  14.237  0.00  0.00    +0.000 A 
ATOM      7  C   UNL     1      47.428   6.124  13.259  0.00  0.00    +0.000 A 
ATOM      8  C   UNL     1      46.740   4.948  13.579  0.00  0.00    +0.000 A 
ATOM      9  C   UNL     1      46.874   4.379  14.856  0.00  0.00    +0.000 A 
BRANCH   7  10
ATOM     10  O   UNL     1      47.301   6.633  11.997  0.00  0.00    +0.000 OA
ATOM     11  C   UNL     1      48.269   7.590  11.582  0.00  0.00    +0.000 C 
ENDBRANCH   7  10
BRANCH   8  12
ATOM     12  O   UNL     1      45.947   4.193  12.745  0.00  0.00    +0.000 OA
BRANCH  12  13
ATOM     13  C   UNL     1      44.515   4.378  12.719  0.00  0.00    +0.000 C 
ATOM     14  C   UNL     1      43.621   3.142  12.497  0.00  0.00    +0.000 C 
ATOM     15  N   UNL     1      42.928   3.822  11.388  0.00  0.00    +0.000 NA
ATOM     16  C   UNL     1      43.965   4.863  11.361  0.00  0.00    +0.000 C 
ATOM     17  H   UNL     1      42.003   4.174  11.633  0.00  0.00    +0.000 HD
ENDBRANCH  12  13
ENDBRANCH   8  12
ENDBRANCH   1   4
BRANCH   1  18
ATOM     18  C   UNL     1      49.379   4.144  17.587  0.00  0.00    +0.000 C 
BRANCH  18  23
ATOM     19  C   UNL     1      53.767   1.482  17.855  0.00  0.00    +0.000 A 
ATOM     20  C   UNL     1      53.483   2.815  18.103  0.00  0.00    +0.000 A 
ATOM     21  C   UNL     1      52.174   3.279  17.955  0.00  0.00    +0.000 A 
ATOM     22  C   UNL     1      51.169   2.411  17.546  0.00  0.00    +0.000 A 
ATOM     23  N   UNL     1      49.860   2.791  17.407  0.00  0.00    +0.000 N 
ATOM     24  N   UNL     1      51.429   1.117  17.290  0.00  0.00    +0.000 NA
ATOM     25  C   UNL     1      52.705   0.682  17.457  0.00  0.00    +0.000 A 
ATOM     26  H   UNL     1      49.275   2.084  16.977  0.00  0.00    +0.000 HD
BRANCH  19  28
ATOM     27  C   UNL     1      54.980  -0.544  18.017  0.00  0.00    +0.000 C 
ATOM     28  O   UNL     1      54.985   0.879  17.968  0.00  0.00    +0.000 OA
ENDBRANCH  19  28
ENDBRANCH  18  23
ENDBRANCH   1  18
TORSDOF 7
ENDMDL
MODEL 6
REMARK VINA RESULT:    -5.823      4.320      7.756
REMARK INTER + INTRA:          -9.366
REMARK INTER:                  -8.133
REMARK INTRA:                  -1.234
REMARK UNBOUND:                -1.161
REMARK  Name = 
REMARK  11 active torsions:
REMARK  status: ('A' for Active; 'I' for Inactive)
REMARK    1  A    between atoms: C_1  and  O_2
REMARK    2  A    between atoms: O_2  and  C_3
REMARK    3  A    between atoms: N_7  and  C_8
REMARK    4  A    between atoms: C_8  and  C_9
REMARK    5  A    between atoms: C_9  and  C_10
REMARK    6  A    between atoms: C_9  and  C_11
REMARK    7  A    between atoms: C_9  and  C_12
REMARK    8  A    between atoms: C_15  and  O_16
REMARK    9  A    between atoms: O_16  and  C_17
REMARK   10  A    between atoms: C_18  and  O_19
REMARK   11  A    between atoms: O_19  and  C_20
REMARK                            x       y       z     vdW  Elec       q    Type
REMARK                         _______ _______ _______ _____ _____    ______ ____
ROOT
ATOM      1  C   UNL     1      48.384   7.914  12.851  0.00  0.00    +0.000 C 
ATOM      2  C   UNL     1      47.910   9.186  12.106  0.00  0.00    +0.000 C 
ATOM      3  C   UNL     1      49.527   7.306  12.000  0.00  0.00    +0.000 C 
ENDROOT
BRANCH   1   4
ATOM      4  C   UNL     1      47.277   6.860  13.042  0.00  0.00    +0.000 A 
ATOM      5  C   UNL     1      46.048   6.988  12.376  0.00  0.00    +0.000 A 
ATOM      6  C   UNL     1      45.043   6.021  12.504  0.00  0.00    +0.000 A 
ATOM      7  C   UNL     1      45.221   4.894  13.314  0.00  0.00    +0.000 A 
ATOM      8  C   UNL     1      46.441   4.746  13.983  0.00  0.00    +0.000 A 
ATOM      9  C   UNL     1      47.444   5.720  13.842  0.00  0.00    +0.000 A 
BRANCH   7  10
ATOM     10  O   UNL     1      44.279   3.912  13.446  0.00  0.00    +0.000 OA
ATOM     11  C   UNL     1      43.892   3.218  12.265  0.00  0.00    +0.000 C 
ENDBRANCH   7  10
BRANCH   8  12
ATOM     12  O   UNL     1      46.842   3.684  14.762  0.00  0.00    +0.000 OA
BRANCH  12  13
ATOM     13  C   UNL     1      47.654   3.894  15.937  0.00  0.00    +0.000 C 
ATOM     14  C   UNL     1      48.274   2.664  16.628  0.00  0.00    +0.000 C 
ATOM     15  N   UNL     1      47.706   3.084  17.922  0.00  0.00    +0.000 NA
ATOM     16  C   UNL     1      46.847   4.063  17.241  0.00  0.00    +0.000 C 
ATOM     17  H   UNL     1      48.386   3.506  18.554  0.00  0.00    +0.000 HD
ENDBRANCH  12  13
ENDBRANCH   8  12
ENDBRANCH   1   4
BRANCH   1  18
ATOM     18  C   UNL     1      48.995   8.338  14.220  0.00  0.00    +0.000 C 
BRANCH  18  23
ATOM     19  C   UNL     1      49.901   5.826  18.611  0.00  0.00    +0.000 A 
ATOM     20  C   UNL     1      48.917   6.735  18.258  0.00  0.00    +0.000 A 
ATOM     21  C   UNL     1      48.905   7.267  16.967  0.00  0.00    +0.000 A 
ATOM     22  C   UNL     1      49.882   6.898  16.050  0.00  0.00    +0.000 A 
ATOM     23  N   UNL     1      49.914   7.359  14.761  0.00  0.00    +0.000 N 
ATOM     24  N   UNL     1      50.850   6.026  16.380  0.00  0.00    +0.000 NA
ATOM     25  C   UNL     1      50.835   5.506  17.636  0.00  0.00    +0.000 A 
ATOM     26  H   UNL     1      50.758   7.104  14.259  0.00  0.00    +0.000 HD
BRANCH  19  28
ATOM     27  C   UNL     1      51.345   5.212  20.383  0.00  0.00    +0.000 C 
ATOM     28  O   UNL     1      50.037   5.211  19.821  0.00  0.00    +0.000 OA
ENDBRANCH  19  28
ENDBRANCH  18  23
ENDBRANCH   1  18
TORSDOF 7
ENDMDL
MODEL 7
REMARK VINA RESULT:    -5.671      3.851      6.094
REMARK INTER + INTRA:          -9.153
REMARK INTER:                  -8.459
REMARK INTRA:                  -0.694
REMARK UNBOUND:                -1.161
REMARK  Name = 
REMARK  11 active torsions:
REMARK  status: ('A' for Active; 'I' for Inactive)
REMARK    1  A    between atoms: C_1  and  O_2
REMARK    2  A    between atoms: O_2  and  C_3
REMARK    3  A    between atoms: N_7  and  C_8
REMARK    4  A    between atoms: C_8  and  C_9
REMARK    5  A    between atoms: C_9  and  C_10
REMARK    6  A    between atoms: C_9  and  C_11
REMARK    7  A    between atoms: C_9  and  C_12
REMARK    8  A    between atoms: C_15  and  O_16
REMARK    9  A    between atoms: O_16  and  C_17
REMARK   10  A    between atoms: C_18  and  O_19
REMARK   11  A    between atoms: O_19  and  C_20
REMARK                            x       y       z     vdW  Elec       q    Type
REMARK                         _______ _______ _______ _____ _____    ______ ____
ROOT
ATOM      1  C   UNL     1      48.028   4.498  16.889  0.00  0.00    +0.000 C 
ATOM      2  C   UNL     1      47.152   5.096  18.017  0.00  0.00    +0.000 C 
ATOM      3  C   UNL     1      47.792   2.967  16.914  0.00  0.00    +0.000 C 
ENDROOT
BRANCH   1   4
ATOM      4  C   UNL     1      49.532   4.782  17.055  0.00  0.00    +0.000 A 
ATOM      5  C   UNL     1      50.075   6.012  16.649  0.00  0.00    +0.000 A 
ATOM      6  C   UNL     1      51.433   6.305  16.827  0.00  0.00    +0.000 A 
ATOM      7  C   UNL     1      52.306   5.377  17.405  0.00  0.00    +0.000 A 
ATOM      8  C   UNL     1      51.783   4.147  17.820  0.00  0.00    +0.000 A 
ATOM      9  C   UNL     1      50.419   3.866  17.641  0.00  0.00    +0.000 A 
BRANCH   7  10
ATOM     10  O   UNL     1      53.631   5.632  17.623  0.00  0.00    +0.000 OA
ATOM     11  C   UNL     1      53.971   6.333  18.814  0.00  0.00    +0.000 C 
ENDBRANCH   7  10
BRANCH   8  12
ATOM     12  O   UNL     1      52.451   3.134  18.471  0.00  0.00    +0.000 OA
BRANCH  12  13
ATOM     13  C   UNL     1      52.929   1.979  17.748  0.00  0.00    +0.000 C 
ATOM     14  C   UNL     1      52.069   0.701  17.760  0.00  0.00    +0.000 C 
ATOM     15  N   UNL     1      53.226  -0.094  18.208  0.00  0.00    +0.000 NA
ATOM     16  C   UNL     1      53.967   1.137  18.518  0.00  0.00    +0.000 C 
ATOM     17  H   UNL     1      53.654  -0.653  17.471  0.00  0.00    +0.000 HD
ENDBRANCH  12  13
ENDBRANCH   8  12
ENDBRANCH   1   4
BRANCH   1  18
ATOM     18  C   UNL     1      47.506   5.028  15.520  0.00  0.00    +0.000 C 
BRANCH  18  23
ATOM     19  C   UNL     1      44.938   4.577  11.091  0.00  0.00    +0.000 A 
ATOM     20  C   UNL     1      45.589   5.653  11.671  0.00  0.00    +0.000 A 
ATOM     21  C   UNL     1      46.223   5.490  12.904  0.00  0.00    +0.000 A 
ATOM     22  C   UNL     1      46.186   4.260  13.551  0.00  0.00    +0.000 A 
ATOM     23  N   UNL     1      46.809   4.022  14.747  0.00  0.00    +0.000 N 
ATOM     24  N   UNL     1      45.550   3.208  13.007  0.00  0.00    +0.000 NA
ATOM     25  C   UNL     1      44.954   3.383  11.799  0.00  0.00    +0.000 A 
ATOM     26  H   UNL     1      46.581   3.121  15.152  0.00  0.00    +0.000 HD
BRANCH  19  28
ATOM     27  C   UNL     1      44.977   3.962   8.805  0.00  0.00    +0.000 C 
ATOM     28  O   UNL     1      44.289   4.574   9.892  0.00  0.00    +0.000 OA
ENDBRANCH  19  28
ENDBRANCH  18  23
ENDBRANCH   1  18
TORSDOF 7
ENDMDL
MODEL 8
REMARK VINA RESULT:    -5.669      4.114      8.295
REMARK INTER + INTRA:          -9.150
REMARK INTER:                  -7.837
REMARK INTRA:                  -1.313
REMARK UNBOUND:                -1.161
REMARK  Name = 
REMARK  11 active torsions:
REMARK  status: ('A' for Active; 'I' for Inactive)
REMARK    1  A    between atoms: C_1  and  O_2
REMARK    2  A    between atoms: O_2  and  C_3
REMARK    3  A    between atoms: N_7  and  C_8
REMARK    4  A    between atoms: C_8  and  C_9
REMARK    5  A    between atoms: C_9  and  C_10
REMARK    6  A    between atoms: C_9  and  C_11
REMARK    7  A    between atoms: C_9  and  C_12
REMARK    8  A    between atoms: C_15  and  O_16
REMARK    9  A    between atoms: O_16  and  C_17
REMARK   10  A    between atoms: C_18  and  O_19
REMARK   11  A    between atoms: O_19  and  C_20
REMARK                            x       y       z     vdW  Elec       q    Type
REMARK                         _______ _______ _______ _____ _____    ______ ____
ROOT
ATOM      1  C   UNL     1      48.517   7.686  12.739  0.00  0.00    +0.000 C 
ATOM      2  C   UNL     1      47.951   9.084  12.392  0.00  0.00    +0.000 C 
ATOM      3  C   UNL     1      49.537   7.336  11.625  0.00  0.00    +0.000 C 
ENDROOT
BRANCH   1   4
ATOM      4  C   UNL     1      47.445   6.582  12.809  0.00  0.00    +0.000 A 
ATOM      5  C   UNL     1      46.579   6.360  11.727  0.00  0.00    +0.000 A 
ATOM      6  C   UNL     1      45.624   5.336  11.755  0.00  0.00    +0.000 A 
ATOM      7  C   UNL     1      45.485   4.503  12.870  0.00  0.00    +0.000 A 
ATOM      8  C   UNL     1      46.341   4.707  13.958  0.00  0.00    +0.000 A 
ATOM      9  C   UNL     1      47.300   5.733  13.917  0.00  0.00    +0.000 A 
BRANCH   7  10
ATOM     10  O   UNL     1      44.586   3.475  12.929  0.00  0.00    +0.000 OA
ATOM     11  C   UNL     1      43.833   3.201  11.753  0.00  0.00    +0.000 C 
ENDBRANCH   7  10
BRANCH   8  12
ATOM     12  O   UNL     1      46.418   3.959  15.111  0.00  0.00    +0.000 OA
BRANCH  12  13
ATOM     13  C   UNL     1      47.551   4.080  15.998  0.00  0.00    +0.000 C 
ATOM     14  C   UNL     1      48.287   2.795  16.425  0.00  0.00    +0.000 C 
ATOM     15  N   UNL     1      48.149   3.168  17.844  0.00  0.00    +0.000 NA
ATOM     16  C   UNL     1      47.176   4.211  17.488  0.00  0.00    +0.000 C 
ATOM     17  H   UNL     1      49.005   3.534  18.261  0.00  0.00    +0.000 HD
ENDBRANCH  12  13
ENDBRANCH   8  12
ENDBRANCH   1   4
BRANCH   1  18
ATOM     18  C   UNL     1      49.306   7.787  14.079  0.00  0.00    +0.000 C 
BRANCH  18  23
ATOM     19  C   UNL     1      47.905   8.787  18.921  0.00  0.00    +0.000 A 
ATOM     20  C   UNL     1      48.310   7.615  18.305  0.00  0.00    +0.000 A 
ATOM     21  C   UNL     1      48.646   7.631  16.949  0.00  0.00    +0.000 A 
ATOM     22  C   UNL     1      48.556   8.813  16.222  0.00  0.00    +0.000 A 
ATOM     23  N   UNL     1      48.895   8.907  14.899  0.00  0.00    +0.000 N 
ATOM     24  N   UNL     1      48.154   9.957  16.803  0.00  0.00    +0.000 NA
ATOM     25  C   UNL     1      47.849   9.923  18.126  0.00  0.00    +0.000 A 
ATOM     26  H   UNL     1      48.652   9.797  14.479  0.00  0.00    +0.000 HD
BRANCH  19  28
ATOM     27  C   UNL     1      47.839   7.829  21.084  0.00  0.00    +0.000 C 
ATOM     28  O   UNL     1      47.560   8.935  20.232  0.00  0.00    +0.000 OA
ENDBRANCH  19  28
ENDBRANCH  18  23
ENDBRANCH   1  18
TORSDOF 7
ENDMDL
MODEL 9
REMARK VINA RESULT:    -5.636      4.020      6.242
REMARK INTER + INTRA:          -9.103
REMARK INTER:                  -7.795
REMARK INTRA:                  -1.309
REMARK UNBOUND:                -1.161
REMARK  Name = 
REMARK  11 active torsions:
REMARK  status: ('A' for Active; 'I' for Inactive)
REMARK    1  A    between atoms: C_1  and  O_2
REMARK    2  A    between atoms: O_2  and  C_3
REMARK    3  A    between atoms: N_7  and  C_8
REMARK    4  A    between atoms: C_8  and  C_9
REMARK    5  A    between atoms: C_9  and  C_10
REMARK    6  A    between atoms: C_9  and  C_11
REMARK    7  A    between atoms: C_9  and  C_12
REMARK    8  A    between atoms: C_15  and  O_16
REMARK    9  A    between atoms: O_16  and  C_17
REMARK   10  A    between atoms: C_18  and  O_19
REMARK   11  A    between atoms: O_19  and  C_20
REMARK                            x       y       z     vdW  Elec       q    Type
REMARK                         _______ _______ _______ _____ _____    ______ ____
ROOT
ATOM      1  C   UNL     1      49.577   8.604  14.219  0.00  0.00    +0.000 C 
ATOM      2  C   UNL     1      50.542   9.717  13.743  0.00  0.00    +0.000 C 
ATOM      3  C   UNL     1      48.373   9.320  14.882  0.00  0.00    +0.000 C 
ENDROOT
BRANCH   1   4
ATOM      4  C   UNL     1      50.207   7.630  15.231  0.00  0.00    +0.000 A 
ATOM      5  C   UNL     1      51.600   7.568  15.390  0.00  0.00    +0.000 A 
ATOM      6  C   UNL     1      52.191   6.717  16.332  0.00  0.00    +0.000 A 
ATOM      7  C   UNL     1      51.414   5.883  17.145  0.00  0.00    +0.000 A 
ATOM      8  C   UNL     1      50.023   5.933  17.004  0.00  0.00    +0.000 A 
ATOM      9  C   UNL     1      49.441   6.795  16.060  0.00  0.00    +0.000 A 
BRANCH   7  10
ATOM     10  O   UNL     1      51.947   5.058  18.096  0.00  0.00    +0.000 OA
ATOM     11  C   UNL     1      52.476   3.813  17.656  0.00  0.00    +0.000 C 
ENDBRANCH   7  10
BRANCH   8  12
ATOM     12  O   UNL     1      49.085   5.255  17.750  0.00  0.00    +0.000 OA
BRANCH  12  13
ATOM     13  C   UNL     1      48.540   4.000  17.288  0.00  0.00    +0.000 C 
ATOM     14  C   UNL     1      47.058   3.957  16.865  0.00  0.00    +0.000 C 
ATOM     15  N   UNL     1      46.817   2.816  17.766  0.00  0.00    +0.000 NA
ATOM     16  C   UNL     1      48.114   3.042  18.420  0.00  0.00    +0.000 C 
ATOM     17  H   UNL     1      46.751   1.918  17.288  0.00  0.00    +0.000 HD
ENDBRANCH  12  13
ENDBRANCH   8  12
ENDBRANCH   1   4
BRANCH   1  18
ATOM     18  C   UNL     1      49.039   7.844  12.970  0.00  0.00    +0.000 C 
BRANCH  18  23
ATOM     19  C   UNL     1      45.052   4.609  13.178  0.00  0.00    +0.000 A 
ATOM     20  C   UNL     1      46.412   4.403  13.338  0.00  0.00    +0.000 A 
ATOM     21  C   UNL     1      47.288   5.486  13.234  0.00  0.00    +0.000 A 
ATOM     22  C   UNL     1      46.798   6.756  12.956  0.00  0.00    +0.000 A 
ATOM     23  N   UNL     1      47.595   7.866  12.868  0.00  0.00    +0.000 N 
ATOM     24  N   UNL     1      45.481   6.971  12.788  0.00  0.00    +0.000 NA
ATOM     25  C   UNL     1      44.644   5.908  12.910  0.00  0.00    +0.000 A 
ATOM     26  H   UNL     1      47.110   8.690  12.531  0.00  0.00    +0.000 HD
BRANCH  19  28
ATOM     27  C   UNL     1      43.318   3.428  12.082  0.00  0.00    +0.000 C 
ATOM     28  O   UNL     1      44.075   3.662  13.265  0.00  0.00    +0.000 OA
ENDBRANCH  19  28
ENDBRANCH  18  23
ENDBRANCH   1  18
TORSDOF 7
ENDMDL
