MODEL 1
REMARK VINA RESULT:    -6.281      0.000      0.000
REMARK INTER + INTRA:          -8.196
REMARK INTER:                  -7.749
REMARK INTRA:                  -0.446
REMARK UNBOUND:                -0.446
REMARK  Name = 
REMARK  7 active torsions:
REMARK  status: ('A' for Active; 'I' for Inactive)
REMARK    1  A    between atoms: C_1  and  C_2
REMARK    2  A    between atoms: C_2  and  C_3
REMARK    3  A    between atoms: C_2  and  C_4
REMARK    4  A    between atoms: C_2  and  C_5
REMARK    5  A    between atoms: N_7  and  C_8
REMARK    6  A    between atoms: C_8  and  C_9
REMARK    7  A    between atoms: C_18  and  C_19
REMARK                            x       y       z     vdW  Elec       q    Type
REMARK                         _______ _______ _______ _____ _____    ______ ____
ROOT
ATOM      1  C   UNL     1      46.153   7.164  12.134  0.00  0.00    +0.000 A 
ATOM      2  C   UNL     1      45.304   6.781  11.112  0.00  0.00    +0.000 A 
ATOM      3  N   UNL     1      45.078   5.431  11.185  0.00  0.00    +0.000 N 
ATOM      4  C   UNL     1      45.757   4.900  12.263  0.00  0.00    +0.000 A 
ATOM      5  C   UNL     1      45.864   3.580  12.736  0.00  0.00    +0.000 A 
ATOM      6  C   UNL     1      46.602   3.345  13.901  0.00  0.00    +0.000 A 
ATOM      7  C   UNL     1      47.215   4.395  14.584  0.00  0.00    +0.000 A 
ATOM      8  C   UNL     1      47.124   5.701  14.088  0.00  0.00    +0.000 A 
ATOM      9  C   UNL     1      46.397   5.970  12.904  0.00  0.00    +0.000 A 
ENDROOT
BRANCH   1  11
ATOM     10  C   UNL     1      46.861   8.876  13.878  0.00  0.00    +0.000 C 
ATOM     11  C   UNL     1      46.720   8.567  12.368  0.00  0.00    +0.000 C 
ATOM     12  C   UNL     1      45.776   9.634  11.774  0.00  0.00    +0.000 C 
ATOM     13  C   UNL     1      48.117   8.716  11.737  0.00  0.00    +0.000 C 
ENDBRANCH   1  11
BRANCH   7  14
ATOM     14  C   UNL     1      47.936   4.145  15.800  0.00  0.00    +0.000 C 
ATOM     15  N   UNL     1      48.527   3.946  16.777  0.00  0.00    +0.000 NA
ENDBRANCH   7  14
BRANCH   3  16
ATOM     16  C   UNL     1      44.181   4.716  10.280  0.00  0.00    +0.000 C 
BRANCH  16  17
ATOM     17  C   UNL     1      44.933   3.841   9.330  0.00  0.00    +0.000 A 
ATOM     18  C   UNL     1      44.930   2.465   9.428  0.00  0.00    +0.000 A 
ATOM     19  N   UNL     1      45.632   1.651   8.615  0.00  0.00    +0.000 NA
ATOM     20  C   UNL     1      46.367   2.261   7.673  0.00  0.00    +0.000 A 
ATOM     21  N   UNL     1      46.432   3.584   7.462  0.00  0.00    +0.000 NA
ATOM     22  C   UNL     1      45.710   4.347   8.305  0.00  0.00    +0.000 A 
ENDBRANCH  16  17
ENDBRANCH   3  16
TORSDOF 4
ENDMDL
MODEL 2
REMARK VINA RESULT:    -5.816      1.315      2.075
REMARK INTER + INTRA:          -7.622
REMARK INTER:                  -7.068
REMARK INTRA:                  -0.555
REMARK UNBOUND:                -0.446
REMARK  Name = 
REMARK  7 active torsions:
REMARK  status: ('A' for Active; 'I' for Inactive)
REMARK    1  A    between atoms: C_1  and  C_2
REMARK    2  A    between atoms: C_2  and  C_3
REMARK    3  A    between atoms: C_2  and  C_4
REMARK    4  A    between atoms: C_2  and  C_5
REMARK    5  A    between atoms: N_7  and  C_8
REMARK    6  A    between atoms: C_8  and  C_9
REMARK    7  A    between atoms: C_18  and  C_19
REMARK                            x       y       z     vdW  Elec       q    Type
REMARK                         _______ _______ _______ _____ _____    ______ ____
ROOT
ATOM      1  C   UNL     1      47.729   7.592  12.532  0.00  0.00    +0.000 A 
ATOM      2  C   UNL     1      46.692   7.396  11.640  0.00  0.00    +0.000 A 
ATOM      3  N   UNL     1      45.967   6.293  12.014  0.00  0.00    +0.000 N 
ATOM      4  C   UNL     1      46.501   5.752  13.167  0.00  0.00    +0.000 A 
ATOM      5  C   UNL     1      46.137   4.619  13.916  0.00  0.00    +0.000 A 
ATOM      6  C   UNL     1      46.850   4.335  15.086  0.00  0.00    +0.000 A 
ATOM      7  C   UNL     1      47.894   5.158  15.506  0.00  0.00    +0.000 A 
ATOM      8  C   UNL     1      48.264   6.268  14.736  0.00  0.00    +0.000 A 
ATOM      9  C   UNL     1      47.573   6.574  13.540  0.00  0.00    +0.000 A 
ENDROOT
BRANCH   1  11
ATOM     10  C   UNL     1      50.172   8.057  11.989  0.00  0.00    +0.000 C 
ATOM     11  C   UNL     1      48.820   8.663  12.437  0.00  0.00    +0.000 C 
ATOM     12  C   UNL     1      49.052   9.317  13.816  0.00  0.00    +0.000 C 
ATOM     13  C   UNL     1      48.445   9.752  11.414  0.00  0.00    +0.000 C 
ENDBRANCH   1  11
BRANCH   7  14
ATOM     14  C   UNL     1      48.590   4.879  16.730  0.00  0.00    +0.000 C 
ATOM     15  N   UNL     1      49.145   4.648  17.722  0.00  0.00    +0.000 NA
ENDBRANCH   7  14
BRANCH   3  16
ATOM     16  C   UNL     1      44.770   5.841  11.311  0.00  0.00    +0.000 C 
BRANCH  16  17
ATOM     17  C   UNL     1      45.091   4.828  10.262  0.00  0.00    +0.000 A 
ATOM     18  C   UNL     1      45.697   5.162   9.067  0.00  0.00    +0.000 A 
ATOM     19  N   UNL     1      45.961   4.279   8.084  0.00  0.00    +0.000 NA
ATOM     20  C   UNL     1      45.590   3.013   8.323  0.00  0.00    +0.000 A 
ATOM     21  N   UNL     1      45.018   2.561   9.449  0.00  0.00    +0.000 NA
ATOM     22  C   UNL     1      44.779   3.488  10.397  0.00  0.00    +0.000 A 
ENDBRANCH  16  17
ENDBRANCH   3  16
TORSDOF 4
ENDMDL
MODEL 3
REMARK VINA RESULT:    -5.765      2.457      6.688
REMARK INTER + INTRA:          -7.559
REMARK INTER:                  -6.975
REMARK INTRA:                  -0.584
REMARK UNBOUND:                -0.446
REMARK  Name = 
REMARK  7 active torsions:
REMARK  status: ('A' for Active; 'I' for Inactive)
REMARK    1  A    between atoms: C_1  and  C_2
REMARK    2  A    between atoms: C_2  and  C_3
REMARK    3  A    between atoms: C_2  and  C_4
REMARK    4  A    between atoms: C_2  and  C_5
REMARK    5  A    between atoms: N_7  and  C_8
REMARK    6  A    between atoms: C_8  and  C_9
REMARK    7  A    between atoms: C_18  and  C_19
REMARK                            x       y       z     vdW  Elec       q    Type
REMARK                         _______ _______ _______ _____ _____    ______ ____
ROOT
ATOM      1  C   UNL     1      44.921   5.005  12.277  0.00  0.00    +0.000 A 
ATOM      2  C   UNL     1      45.887   4.251  12.916  0.00  0.00    +0.000 A 
ATOM      3  N   UNL     1      46.862   5.079  13.412  0.00  0.00    +0.000 N 
ATOM      4  C   UNL     1      46.550   6.392  13.125  0.00  0.00    +0.000 A 
ATOM      5  C   UNL     1      47.237   7.590  13.392  0.00  0.00    +0.000 A 
ATOM      6  C   UNL     1      46.645   8.799  13.011  0.00  0.00    +0.000 A 
ATOM      7  C   UNL     1      45.399   8.820  12.386  0.00  0.00    +0.000 A 
ATOM      8  C   UNL     1      44.738   7.620  12.101  0.00  0.00    +0.000 A 
ATOM      9  C   UNL     1      45.316   6.379  12.459  0.00  0.00    +0.000 A 
ENDROOT
BRANCH   1  11
ATOM     10  C   UNL     1      43.425   2.987  11.869  0.00  0.00    +0.000 C 
ATOM     11  C   UNL     1      43.703   4.469  11.519  0.00  0.00    +0.000 C 
ATOM     12  C   UNL     1      43.945   4.537   9.996  0.00  0.00    +0.000 C 
ATOM     13  C   UNL     1      42.433   5.268  11.868  0.00  0.00    +0.000 C 
ENDBRANCH   1  11
BRANCH   7  14
ATOM     14  C   UNL     1      44.785  10.070  12.037  0.00  0.00    +0.000 C 
ATOM     15  N   UNL     1      44.289  11.082  11.764  0.00  0.00    +0.000 NA
ENDBRANCH   7  14
BRANCH   3  16
ATOM     16  C   UNL     1      48.002   4.602  14.190  0.00  0.00    +0.000 C 
BRANCH  16  17
ATOM     17  C   UNL     1      47.817   4.842  15.652  0.00  0.00    +0.000 A 
ATOM     18  C   UNL     1      48.473   5.850  16.328  0.00  0.00    +0.000 A 
ATOM     19  N   UNL     1      48.361   6.065  17.654  0.00  0.00    +0.000 NA
ATOM     20  C   UNL     1      47.557   5.220  18.315  0.00  0.00    +0.000 A 
ATOM     21  N   UNL     1      46.847   4.221  17.768  0.00  0.00    +0.000 NA
ATOM     22  C   UNL     1      46.999   4.054  16.440  0.00  0.00    +0.000 A 
ENDBRANCH  16  17
ENDBRANCH   3  16
TORSDOF 4
ENDMDL
MODEL 4
REMARK VINA RESULT:    -5.632      2.377      3.640
REMARK INTER + INTRA:          -7.395
REMARK INTER:                  -6.709
REMARK INTRA:                  -0.686
REMARK UNBOUND:                -0.446
REMARK  Name = 
REMARK  7 active torsions:
REMARK  status: ('A' for Active; 'I' for Inactive)
REMARK    1  A    between atoms: C_1  and  C_2
REMARK    2  A    between atoms: C_2  and  C_3
REMARK    3  A    between atoms: C_2  and  C_4
REMARK    4  A    between atoms: C_2  and  C_5
REMARK    5  A    between atoms: N_7  and  C_8
REMARK    6  A    between atoms: C_8  and  C_9
REMARK    7  A    between atoms: C_18  and  C_19
REMARK                            x       y       z     vdW  Elec       q    Type
REMARK                         _______ _______ _______ _____ _____    ______ ____
ROOT
ATOM      1  C   UNL     1      48.009   6.740  13.676  0.00  0.00    +0.000 A 
ATOM      2  C   UNL     1      47.271   5.967  12.800  0.00  0.00    +0.000 A 
ATOM      3  N   UNL     1      46.903   4.798  13.416  0.00  0.00    +0.000 N 
ATOM      4  C   UNL     1      47.375   4.785  14.713  0.00  0.00    +0.000 A 
ATOM      5  C   UNL     1      47.286   3.812  15.725  0.00  0.00    +0.000 A 
ATOM      6  C   UNL     1      47.834   4.100  16.979  0.00  0.00    +0.000 A 
ATOM      7  C   UNL     1      48.451   5.325  17.226  0.00  0.00    +0.000 A 
ATOM      8  C   UNL     1      48.558   6.275  16.203  0.00  0.00    +0.000 A 
ATOM      9  C   UNL     1      48.027   6.009  14.918  0.00  0.00    +0.000 A 
ENDROOT
BRANCH   1  11
ATOM     10  C   UNL     1      48.373   8.544  11.919  0.00  0.00    +0.000 C 
ATOM     11  C   UNL     1      48.676   8.082  13.365  0.00  0.00    +0.000 C 
ATOM     12  C   UNL     1      50.211   7.961  13.489  0.00  0.00    +0.000 C 
ATOM     13  C   UNL     1      48.176   9.188  14.313  0.00  0.00    +0.000 C 
ENDBRANCH   1  11
BRANCH   7  14
ATOM     14  C   UNL     1      48.974   5.624  18.529  0.00  0.00    +0.000 C 
ATOM     15  N   UNL     1      49.387   5.865  19.586  0.00  0.00    +0.000 NA
ENDBRANCH   7  14
BRANCH   3  16
ATOM     16  C   UNL     1      46.069   3.781  12.779  0.00  0.00    +0.000 C 
BRANCH  16  17
ATOM     17  C   UNL     1      44.769   4.345  12.308  0.00  0.00    +0.000 A 
ATOM     18  C   UNL     1      43.761   4.711  13.176  0.00  0.00    +0.000 A 
ATOM     19  N   UNL     1      42.561   5.181  12.782  0.00  0.00    +0.000 NA
ATOM     20  C   UNL     1      42.380   5.277  11.457  0.00  0.00    +0.000 A 
ATOM     21  N   UNL     1      43.289   4.977  10.516  0.00  0.00    +0.000 NA
ATOM     22  C   UNL     1      44.469   4.512  10.969  0.00  0.00    +0.000 A 
ENDBRANCH  16  17
ENDBRANCH   3  16
TORSDOF 4
ENDMDL
MODEL 5
REMARK VINA RESULT:    -5.631      2.491      5.156
REMARK INTER + INTRA:          -7.395
REMARK INTER:                  -6.779
REMARK INTRA:                  -0.616
REMARK UNBOUND:                -0.446
REMARK  Name = 
REMARK  7 active torsions:
REMARK  status: ('A' for Active; 'I' for Inactive)
REMARK    1  A    between atoms: C_1  and  C_2
REMARK    2  A    between atoms: C_2  and  C_3
REMARK    3  A    between atoms: C_2  and  C_4
REMARK    4  A    between atoms: C_2  and  C_5
REMARK    5  A    between atoms: N_7  and  C_8
REMARK    6  A    between atoms: C_8  and  C_9
REMARK    7  A    between atoms: C_18  and  C_19
REMARK                            x       y       z     vdW  Elec       q    Type
REMARK                         _______ _______ _______ _____ _____    ______ ____
ROOT
ATOM      1  C   UNL     1      47.702   4.629  15.786  0.00  0.00    +0.000 A 
ATOM      2  C   UNL     1      46.998   3.746  14.989  0.00  0.00    +0.000 A 
ATOM      3  N   UNL     1      46.767   4.316  13.764  0.00  0.00    +0.000 N 
ATOM      4  C   UNL     1      47.328   5.577  13.723  0.00  0.00    +0.000 A 
ATOM      5  C   UNL     1      47.338   6.557  12.713  0.00  0.00    +0.000 A 
ATOM      6  C   UNL     1      48.036   7.747  12.944  0.00  0.00    +0.000 A 
ATOM      7  C   UNL     1      48.712   7.958  14.145  0.00  0.00    +0.000 A 
ATOM      8  C   UNL     1      48.671   6.987  15.152  0.00  0.00    +0.000 A 
ATOM      9  C   UNL     1      47.962   5.779  14.956  0.00  0.00    +0.000 A 
ENDROOT
BRANCH   1  11
ATOM     10  C   UNL     1      47.438   5.475  18.172  0.00  0.00    +0.000 C 
ATOM     11  C   UNL     1      48.095   4.418  17.251  0.00  0.00    +0.000 C 
ATOM     12  C   UNL     1      49.623   4.556  17.423  0.00  0.00    +0.000 C 
ATOM     13  C   UNL     1      47.650   3.032  17.754  0.00  0.00    +0.000 C 
ENDBRANCH   1  11
BRANCH   7  14
ATOM     14  C   UNL     1      49.458   9.167  14.353  0.00  0.00    +0.000 C 
ATOM     15  N   UNL     1      50.069  10.138  14.520  0.00  0.00    +0.000 NA
ENDBRANCH   7  14
BRANCH   3  16
ATOM     16  C   UNL     1      46.091   3.624  12.669  0.00  0.00    +0.000 C 
BRANCH  16  17
ATOM     17  C   UNL     1      44.782   4.261  12.334  0.00  0.00    +0.000 A 
ATOM     18  C   UNL     1      44.481   4.716  11.067  0.00  0.00    +0.000 A 
ATOM     19  N   UNL     1      43.329   5.334  10.742  0.00  0.00    +0.000 NA
ATOM     20  C   UNL     1      42.454   5.499  11.745  0.00  0.00    +0.000 A 
ATOM     21  N   UNL     1      42.620   5.081  13.009  0.00  0.00    +0.000 NA
ATOM     22  C   UNL     1      43.791   4.470  13.274  0.00  0.00    +0.000 A 
ENDBRANCH  16  17
ENDBRANCH   3  16
TORSDOF 4
ENDMDL
MODEL 6
REMARK VINA RESULT:    -5.583      1.797      5.982
REMARK INTER + INTRA:          -7.334
REMARK INTER:                  -6.647
REMARK INTRA:                  -0.688
REMARK UNBOUND:                -0.446
REMARK  Name = 
REMARK  7 active torsions:
REMARK  status: ('A' for Active; 'I' for Inactive)
REMARK    1  A    between atoms: C_1  and  C_2
REMARK    2  A    between atoms: C_2  and  C_3
REMARK    3  A    between atoms: C_2  and  C_4
REMARK    4  A    between atoms: C_2  and  C_5
REMARK    5  A    between atoms: N_7  and  C_8
REMARK    6  A    between atoms: C_8  and  C_9
REMARK    7  A    between atoms: C_18  and  C_19
REMARK                            x       y       z     vdW  Elec       q    Type
REMARK                         _______ _______ _______ _____ _____    ______ ____
ROOT
ATOM      1  C   UNL     1      47.901   6.732  13.477  0.00  0.00    +0.000 A 
ATOM      2  C   UNL     1      48.052   6.322  14.789  0.00  0.00    +0.000 A 
ATOM      3  N   UNL     1      47.198   5.280  15.045  0.00  0.00    +0.000 N 
ATOM      4  C   UNL     1      46.482   4.971  13.906  0.00  0.00    +0.000 A 
ATOM      5  C   UNL     1      45.479   4.013  13.671  0.00  0.00    +0.000 A 
ATOM      6  C   UNL     1      44.955   3.899  12.379  0.00  0.00    +0.000 A 
ATOM      7  C   UNL     1      45.418   4.711  11.344  0.00  0.00    +0.000 A 
ATOM      8  C   UNL     1      46.397   5.679  11.598  0.00  0.00    +0.000 A 
ATOM      9  C   UNL     1      46.937   5.830  12.897  0.00  0.00    +0.000 A 
ENDROOT
BRANCH   1  11
ATOM     10  C   UNL     1      47.588   8.945  12.261  0.00  0.00    +0.000 C 
ATOM     11  C   UNL     1      48.606   7.914  12.807  0.00  0.00    +0.000 C 
ATOM     12  C   UNL     1      49.445   7.428  11.605  0.00  0.00    +0.000 C 
ATOM     13  C   UNL     1      49.521   8.654  13.800  0.00  0.00    +0.000 C 
ENDBRANCH   1  11
BRANCH   7  14
ATOM     14  C   UNL     1      44.900   4.556  10.014  0.00  0.00    +0.000 C 
ATOM     15  N   UNL     1      44.490   4.425   8.937  0.00  0.00    +0.000 NA
ENDBRANCH   7  14
BRANCH   3  16
ATOM     16  C   UNL     1      47.146   4.581  16.327  0.00  0.00    +0.000 C 
BRANCH  16  17
ATOM     17  C   UNL     1      48.360   3.740  16.551  0.00  0.00    +0.000 A 
ATOM     18  C   UNL     1      48.499   2.479  16.009  0.00  0.00    +0.000 A 
ATOM     19  N   UNL     1      49.561   1.678  16.227  0.00  0.00    +0.000 NA
ATOM     20  C   UNL     1      50.512   2.178  17.030  0.00  0.00    +0.000 A 
ATOM     21  N   UNL     1      50.503   3.395  17.595  0.00  0.00    +0.000 NA
ATOM     22  C   UNL     1      49.416   4.150  17.342  0.00  0.00    +0.000 A 
ENDBRANCH  16  17
ENDBRANCH   3  16
TORSDOF 4
ENDMDL
MODEL 7
REMARK VINA RESULT:    -5.366      2.775      7.193
REMARK INTER + INTRA:          -7.067
REMARK INTER:                  -6.331
REMARK INTRA:                  -0.736
REMARK UNBOUND:                -0.446
REMARK  Name = 
REMARK  7 active torsions:
REMARK  status: ('A' for Active; 'I' for Inactive)
REMARK    1  A    between atoms: C_1  and  C_2
REMARK    2  A    between atoms: C_2  and  C_3
REMARK    3  A    between atoms: C_2  and  C_4
REMARK    4  A    between atoms: C_2  and  C_5
REMARK    5  A    between atoms: N_7  and  C_8
REMARK    6  A    between atoms: C_8  and  C_9
REMARK    7  A    between atoms: C_18  and  C_19
REMARK                            x       y       z     vdW  Elec       q    Type
REMARK                         _______ _______ _______ _____ _____    ______ ____
ROOT
ATOM      1  C   UNL     1      45.706   5.827  12.361  0.00  0.00    +0.000 A 
ATOM      2  C   UNL     1      46.932   5.647  12.974  0.00  0.00    +0.000 A 
ATOM      3  N   UNL     1      47.573   6.854  13.082  0.00  0.00    +0.000 N 
ATOM      4  C   UNL     1      46.778   7.854  12.559  0.00  0.00    +0.000 A 
ATOM      5  C   UNL     1      46.998   9.236  12.415  0.00  0.00    +0.000 A 
ATOM      6  C   UNL     1      45.974  10.023  11.877  0.00  0.00    +0.000 A 
ATOM      7  C   UNL     1      44.759   9.454  11.497  0.00  0.00    +0.000 A 
ATOM      8  C   UNL     1      44.563   8.074  11.621  0.00  0.00    +0.000 A 
ATOM      9  C   UNL     1      45.584   7.248  12.147  0.00  0.00    +0.000 A 
ENDROOT
BRANCH   1  11
ATOM     10  C   UNL     1      45.264   3.322  12.307  0.00  0.00    +0.000 C 
ATOM     11  C   UNL     1      44.710   4.729  11.978  0.00  0.00    +0.000 C 
ATOM     12  C   UNL     1      44.430   4.762  10.460  0.00  0.00    +0.000 C 
ATOM     13  C   UNL     1      43.383   4.889  12.744  0.00  0.00    +0.000 C 
ENDBRANCH   1  11
BRANCH   7  14
ATOM     14  C   UNL     1      43.702  10.279  10.985  0.00  0.00    +0.000 C 
ATOM     15  N   UNL     1      42.843  10.944  10.579  0.00  0.00    +0.000 NA
ENDBRANCH   7  14
BRANCH   3  16
ATOM     16  C   UNL     1      48.871   7.019  13.731  0.00  0.00    +0.000 C 
BRANCH  16  17
ATOM     17  C   UNL     1      48.732   7.240  15.202  0.00  0.00    +0.000 A 
ATOM     18  C   UNL     1      48.587   8.497  15.754  0.00  0.00    +0.000 A 
ATOM     19  N   UNL     1      48.503   8.733  17.077  0.00  0.00    +0.000 NA
ATOM     20  C   UNL     1      48.574   7.652  17.868  0.00  0.00    +0.000 A 
ATOM     21  N   UNL     1      48.690   6.382  17.453  0.00  0.00    +0.000 NA
ATOM     22  C   UNL     1      48.769   6.207  16.119  0.00  0.00    +0.000 A 
ENDBRANCH  16  17
ENDBRANCH   3  16
TORSDOF 4
ENDMDL
MODEL 8
REMARK VINA RESULT:    -5.319      1.775      6.566
REMARK INTER + INTRA:          -7.009
REMARK INTER:                  -6.601
REMARK INTRA:                  -0.408
REMARK UNBOUND:                -0.446
REMARK  Name = 
REMARK  7 active torsions:
REMARK  status: ('A' for Active; 'I' for Inactive)
REMARK    1  A    between atoms: C_1  and  C_2
REMARK    2  A    between atoms: C_2  and  C_3
REMARK    3  A    between atoms: C_2  and  C_4
REMARK    4  A    between atoms: C_2  and  C_5
REMARK    5  A    between atoms: N_7  and  C_8
REMARK    6  A    between atoms: C_8  and  C_9
REMARK    7  A    between atoms: C_18  and  C_19
REMARK                            x       y       z     vdW  Elec       q    Type
REMARK                         _______ _______ _______ _____ _____    ______ ____
ROOT
ATOM      1  C   UNL     1      47.315   6.561  13.558  0.00  0.00    +0.000 A 
ATOM      2  C   UNL     1      47.731   5.939  14.721  0.00  0.00    +0.000 A 
ATOM      3  N   UNL     1      47.264   4.650  14.743  0.00  0.00    +0.000 N 
ATOM      4  C   UNL     1      46.550   4.391  13.591  0.00  0.00    +0.000 A 
ATOM      5  C   UNL     1      45.860   3.241  13.164  0.00  0.00    +0.000 A 
ATOM      6  C   UNL     1      45.251   3.257  11.905  0.00  0.00    +0.000 A 
ATOM      7  C   UNL     1      45.329   4.383  11.086  0.00  0.00    +0.000 A 
ATOM      8  C   UNL     1      45.994   5.531  11.535  0.00  0.00    +0.000 A 
ATOM      9  C   UNL     1      46.608   5.553  12.809  0.00  0.00    +0.000 A 
ENDROOT
BRANCH   1  11
ATOM     10  C   UNL     1      48.391   8.143  11.879  0.00  0.00    +0.000 C 
ATOM     11  C   UNL     1      47.552   8.024  13.174  0.00  0.00    +0.000 C 
ATOM     12  C   UNL     1      48.335   8.752  14.288  0.00  0.00    +0.000 C 
ATOM     13  C   UNL     1      46.220   8.758  12.926  0.00  0.00    +0.000 C 
ENDBRANCH   1  11
BRANCH   7  14
ATOM     14  C   UNL     1      44.734   4.372   9.780  0.00  0.00    +0.000 C 
ATOM     15  N   UNL     1      44.262   4.364   8.721  0.00  0.00    +0.000 NA
ENDBRANCH   7  14
BRANCH   3  16
ATOM     16  C   UNL     1      47.570   3.703  15.813  0.00  0.00    +0.000 C 
BRANCH  16  17
ATOM     17  C   UNL     1      48.030   4.397  17.053  0.00  0.00    +0.000 A 
ATOM     18  C   UNL     1      49.365   4.533  17.376  0.00  0.00    +0.000 A 
ATOM     19  N   UNL     1      49.811   5.114  18.506  0.00  0.00    +0.000 NA
ATOM     20  C   UNL     1      48.865   5.568  19.341  0.00  0.00    +0.000 A 
ATOM     21  N   UNL     1      47.541   5.517  19.129  0.00  0.00    +0.000 NA
ATOM     22  C   UNL     1      47.154   4.925  17.982  0.00  0.00    +0.000 A 
ENDBRANCH  16  17
ENDBRANCH   3  16
TORSDOF 4
ENDMDL
MODEL 9
REMARK VINA RESULT:    -5.231      2.897      6.657
REMARK INTER + INTRA:          -6.900
REMARK INTER:                  -6.405
REMARK INTRA:                  -0.495
REMARK UNBOUND:                -0.446
REMARK  Name = 
REMARK  7 active torsions:
REMARK  status: ('A' for Active; 'I' for Inactive)
REMARK    1  A    between atoms: C_1  and  C_2
REMARK    2  A    between atoms: C_2  and  C_3
REMARK    3  A    between atoms: C_2  and  C_4
REMARK    4  A    between atoms: C_2  and  C_5
REMARK    5  A    between atoms: N_7  and  C_8
REMARK    6  A    between atoms: C_8  and  C_9
REMARK    7  A    between atoms: C_18  and  C_19
REMARK                            x       y       z     vdW  Elec       q    Type
REMARK                         _______ _______ _______ _____ _____    ______ ____
ROOT
ATOM      1  C   UNL     1      45.347   5.741  11.968  0.00  0.00    +0.000 A 
ATOM      2  C   UNL     1      46.422   5.633  12.830  0.00  0.00    +0.000 A 
ATOM      3  N   UNL     1      46.875   6.885  13.159  0.00  0.00    +0.000 N 
ATOM      4  C   UNL     1      46.098   7.841  12.536  0.00  0.00    +0.000 A 
ATOM      5  C   UNL     1      46.177   9.246  12.535  0.00  0.00    +0.000 A 
ATOM      6  C   UNL     1      45.207   9.969  11.832  0.00  0.00    +0.000 A 
ATOM      7  C   UNL     1      44.182   9.315  11.150  0.00  0.00    +0.000 A 
ATOM      8  C   UNL     1      44.131   7.916  11.136  0.00  0.00    +0.000 A 
ATOM      9  C   UNL     1      45.105   7.155  11.825  0.00  0.00    +0.000 A 
ENDROOT
BRANCH   1  11
ATOM     10  C   UNL     1      43.066   4.723  11.481  0.00  0.00    +0.000 C 
ATOM     11  C   UNL     1      44.597   4.586  11.299  0.00  0.00    +0.000 C 
ATOM     12  C   UNL     1      45.009   3.239  11.933  0.00  0.00    +0.000 C 
ATOM     13  C   UNL     1      44.877   4.542   9.785  0.00  0.00    +0.000 C 
ENDBRANCH   1  11
BRANCH   7  14
ATOM     14  C   UNL     1      43.170  10.069  10.466  0.00  0.00    +0.000 C 
ATOM     15  N   UNL     1      42.347  10.678   9.920  0.00  0.00    +0.000 NA
ENDBRANCH   7  14
BRANCH   3  16
ATOM     16  C   UNL     1      47.970   7.123  14.096  0.00  0.00    +0.000 C 
BRANCH  16  17
ATOM     17  C   UNL     1      49.202   7.601  13.398  0.00  0.00    +0.000 A 
ATOM     18  C   UNL     1      50.124   8.429  14.005  0.00  0.00    +0.000 A 
ATOM     19  N   UNL     1      51.222   8.911  13.390  0.00  0.00    +0.000 NA
ATOM     20  C   UNL     1      51.382   8.542  12.111  0.00  0.00    +0.000 A 
ATOM     21  N   UNL     1      50.572   7.726  11.421  0.00  0.00    +0.000 NA
ATOM     22  C   UNL     1      49.492   7.274  12.087  0.00  0.00    +0.000 A 
ENDBRANCH  16  17
ENDBRANCH   3  16
TORSDOF 4
ENDMDL
