MODEL 1
REMARK VINA RESULT:    -8.525      0.000      0.000
REMARK INTER + INTRA:         -11.526
REMARK INTER:                 -11.017
REMARK INTRA:                  -0.509
REMARK UNBOUND:                -0.509
REMARK  Name = 
REMARK  9 active torsions:
REMARK  status: ('A' for Active; 'I' for Inactive)
REMARK    1  A    between atoms: C_1  and  C_2
REMARK    2  A    between atoms: N_4  and  C_5
REMARK    3  A    between atoms: C_9  and  C_10
REMARK    4  A    between atoms: C_10  and  C_11
REMARK    5  A    between atoms: C_10  and  C_12
REMARK    6  A    between atoms: C_10  and  C_13
REMARK    7  A    between atoms: C_13  and  N_14
REMARK    8  A    between atoms: C_18  and  C_19
REMARK    9  A    between atoms: C_26  and  C_27
REMARK                            x       y       z     vdW  Elec       q    Type
REMARK                         _______ _______ _______ _____ _____    ______ ____
ROOT
ATOM      1  C   UNL     1      44.106   4.548  12.266  0.00  0.00    +0.000 C 
ATOM      2  C   UNL     1      45.179   3.436  12.398  0.00  0.00    +0.000 C 
ATOM      3  C   UNL     1      43.188   4.520  13.508  0.00  0.00    +0.000 C 
ENDROOT
BRANCH   1   8
ATOM      4  C   UNL     1      46.988   7.149  12.243  0.00  0.00    +0.000 A 
ATOM      5  C   UNL     1      46.298   8.297  11.841  0.00  0.00    +0.000 A 
ATOM      6  C   UNL     1      44.920   8.284  11.638  0.00  0.00    +0.000 A 
ATOM      7  C   UNL     1      44.196   7.104  11.803  0.00  0.00    +0.000 A 
ATOM      8  C   UNL     1      44.835   5.916  12.185  0.00  0.00    +0.000 A 
ATOM      9  C   UNL     1      46.222   5.988  12.440  0.00  0.00    +0.000 A 
BRANCH   4  13
ATOM     10  C   UNL     1      49.131  10.213  11.833  0.00  0.00    +0.000 C 
ATOM     11  C   UNL     1      50.025   8.970  11.875  0.00  0.00    +0.000 C 
ATOM     12  C   UNL     1      49.282   7.691  11.409  0.00  0.00    +0.000 C 
ATOM     13  N   UNL     1      48.358   7.179  12.430  0.00  0.00    +0.000 N 
ATOM     14  C   UNL     1      48.912   7.066  13.792  0.00  0.00    +0.000 C 
ATOM     15  C   UNL     1      49.665   8.363  14.208  0.00  0.00    +0.000 C 
ATOM     16  C   UNL     1      50.384   8.152  15.542  0.00  0.00    +0.000 C 
ATOM     17  N   UNL     1      50.662   8.815  13.207  0.00  0.00    +0.000 NA
ATOM     18  H   UNL     1      51.368   8.083  13.124  0.00  0.00    +0.000 HD
ENDBRANCH   4  13
ENDBRANCH   1   8
BRANCH   1  19
ATOM     19  C   UNL     1      43.259   4.273  10.984  0.00  0.00    +0.000 C 
BRANCH  19  20
ATOM     20  N   UNL     1      43.844   4.787   9.750  0.00  0.00    +0.000 N 
ATOM     21  C   UNL     1      44.770   4.004   9.073  0.00  0.00    +0.000 A 
ATOM     22  C   UNL     1      44.752   2.604   9.041  0.00  0.00    +0.000 A 
ATOM     23  N   UNL     1      45.623   1.838   8.332  0.00  0.00    +0.000 NA
ATOM     24  C   UNL     1      46.528   2.549   7.612  0.00  0.00    +0.000 A 
ATOM     25  C   UNL     1      46.562   3.936   7.624  0.00  0.00    +0.000 A 
ATOM     26  N   UNL     1      45.693   4.683   8.360  0.00  0.00    +0.000 NA
ATOM     27  H   UNL     1      44.207   5.736   9.766  0.00  0.00    +0.000 HD
BRANCH  24  28
ATOM     28  C   UNL     1      47.491   1.788   6.769  0.00  0.00    +0.000 C 
ATOM     29  N   UNL     1      48.608   2.468   6.369  0.00  0.00    +0.000 N 
ATOM     30  O   UNL     1      47.299   0.621   6.453  0.00  0.00    +0.000 OA
ATOM     31  H   UNL     1      48.755   3.426   6.664  0.00  0.00    +0.000 HD
ATOM     32  H   UNL     1      49.310   1.992   5.816  0.00  0.00    +0.000 HD
ENDBRANCH  24  28
ENDBRANCH  19  20
ENDBRANCH   1  19
TORSDOF 5
ENDMDL
MODEL 2
REMARK VINA RESULT:    -8.455      1.655      2.204
REMARK INTER + INTRA:         -11.436
REMARK INTER:                 -10.446
REMARK INTRA:                  -0.989
REMARK UNBOUND:                -0.509
REMARK  Name = 
REMARK  9 active torsions:
REMARK  status: ('A' for Active; 'I' for Inactive)
REMARK    1  A    between atoms: C_1  and  C_2
REMARK    2  A    between atoms: N_4  and  C_5
REMARK    3  A    between atoms: C_9  and  C_10
REMARK    4  A    between atoms: C_10  and  C_11
REMARK    5  A    between atoms: C_10  and  C_12
REMARK    6  A    between atoms: C_10  and  C_13
REMARK    7  A    between atoms: C_13  and  N_14
REMARK    8  A    between atoms: C_18  and  C_19
REMARK    9  A    between atoms: C_26  and  C_27
REMARK                            x       y       z     vdW  Elec       q    Type
REMARK                         _______ _______ _______ _____ _____    ______ ____
ROOT
ATOM      1  C   UNL     1      43.329   5.171  11.844  0.00  0.00    +0.000 C 
ATOM      2  C   UNL     1      43.396   4.094  12.959  0.00  0.00    +0.000 C 
ATOM      3  C   UNL     1      41.966   5.892  11.915  0.00  0.00    +0.000 C 
ENDROOT
BRANCH   1   8
ATOM      4  C   UNL     1      46.766   6.602  12.947  0.00  0.00    +0.000 A 
ATOM      5  C   UNL     1      46.705   7.882  12.389  0.00  0.00    +0.000 A 
ATOM      6  C   UNL     1      45.568   8.332  11.722  0.00  0.00    +0.000 A 
ATOM      7  C   UNL     1      44.465   7.493  11.569  0.00  0.00    +0.000 A 
ATOM      8  C   UNL     1      44.474   6.191  12.088  0.00  0.00    +0.000 A 
ATOM      9  C   UNL     1      45.622   5.797  12.809  0.00  0.00    +0.000 A 
BRANCH   4  13
ATOM     10  C   UNL     1      48.735   8.663  15.400  0.00  0.00    +0.000 C 
ATOM     11  C   UNL     1      49.570   7.453  14.968  0.00  0.00    +0.000 C 
ATOM     12  C   UNL     1      49.166   6.926  13.567  0.00  0.00    +0.000 C 
ATOM     13  N   UNL     1      47.908   6.169  13.597  0.00  0.00    +0.000 N 
ATOM     14  C   UNL     1      47.803   5.146  14.654  0.00  0.00    +0.000 C 
ATOM     15  C   UNL     1      48.237   5.714  16.037  0.00  0.00    +0.000 C 
ATOM     16  C   UNL     1      48.297   4.591  17.074  0.00  0.00    +0.000 C 
ATOM     17  N   UNL     1      49.555   6.395  16.009  0.00  0.00    +0.000 NA
ATOM     18  H   UNL     1      50.256   5.700  15.748  0.00  0.00    +0.000 HD
ENDBRANCH   4  13
ENDBRANCH   1   8
BRANCH   1  19
ATOM     19  C   UNL     1      43.476   4.465  10.460  0.00  0.00    +0.000 C 
BRANCH  19  20
ATOM     20  N   UNL     1      44.424   3.355  10.444  0.00  0.00    +0.000 N 
ATOM     21  C   UNL     1      45.181   3.141   9.300  0.00  0.00    +0.000 A 
ATOM     22  C   UNL     1      45.626   4.154   8.442  0.00  0.00    +0.000 A 
ATOM     23  N   UNL     1      46.416   3.952   7.354  0.00  0.00    +0.000 NA
ATOM     24  C   UNL     1      46.778   2.657   7.165  0.00  0.00    +0.000 A 
ATOM     25  C   UNL     1      46.354   1.637   8.004  0.00  0.00    +0.000 A 
ATOM     26  N   UNL     1      45.544   1.860   9.076  0.00  0.00    +0.000 NA
ATOM     27  H   UNL     1      44.084   2.449  10.754  0.00  0.00    +0.000 HD
BRANCH  24  28
ATOM     28  C   UNL     1      47.682   2.354   6.021  0.00  0.00    +0.000 C 
ATOM     29  N   UNL     1      47.629   3.224   4.966  0.00  0.00    +0.000 N 
ATOM     30  O   UNL     1      48.433   1.386   6.022  0.00  0.00    +0.000 OA
ATOM     31  H   UNL     1      47.017   4.029   5.001  0.00  0.00    +0.000 HD
ATOM     32  H   UNL     1      48.241   3.081   4.172  0.00  0.00    +0.000 HD
ENDBRANCH  24  28
ENDBRANCH  19  20
ENDBRANCH   1  19
TORSDOF 5
ENDMDL
MODEL 3
REMARK VINA RESULT:    -8.391      1.227      2.271
REMARK INTER + INTRA:         -11.353
REMARK INTER:                 -10.472
REMARK INTRA:                  -0.881
REMARK UNBOUND:                -0.509
REMARK  Name = 
REMARK  9 active torsions:
REMARK  status: ('A' for Active; 'I' for Inactive)
REMARK    1  A    between atoms: C_1  and  C_2
REMARK    2  A    between atoms: N_4  and  C_5
REMARK    3  A    between atoms: C_9  and  C_10
REMARK    4  A    between atoms: C_10  and  C_11
REMARK    5  A    between atoms: C_10  and  C_12
REMARK    6  A    between atoms: C_10  and  C_13
REMARK    7  A    between atoms: C_13  and  N_14
REMARK    8  A    between atoms: C_18  and  C_19
REMARK    9  A    between atoms: C_26  and  C_27
REMARK                            x       y       z     vdW  Elec       q    Type
REMARK                         _______ _______ _______ _____ _____    ______ ____
ROOT
ATOM      1  C   UNL     1      43.583   5.683  11.731  0.00  0.00    +0.000 C 
ATOM      2  C   UNL     1      42.688   5.128  12.869  0.00  0.00    +0.000 C 
ATOM      3  C   UNL     1      43.118   7.109  11.367  0.00  0.00    +0.000 C 
ENDROOT
BRANCH   1   8
ATOM      4  C   UNL     1      47.188   6.976  12.369  0.00  0.00    +0.000 A 
ATOM      5  C   UNL     1      47.644   6.030  13.292  0.00  0.00    +0.000 A 
ATOM      6  C   UNL     1      46.855   4.946  13.673  0.00  0.00    +0.000 A 
ATOM      7  C   UNL     1      45.569   4.798  13.158  0.00  0.00    +0.000 A 
ATOM      8  C   UNL     1      45.048   5.725  12.245  0.00  0.00    +0.000 A 
ATOM      9  C   UNL     1      45.902   6.774  11.839  0.00  0.00    +0.000 A 
BRANCH   4  13
ATOM     10  C   UNL     1      48.917   9.256  14.810  0.00  0.00    +0.000 C 
ATOM     11  C   UNL     1      48.926   9.900  13.419  0.00  0.00    +0.000 C 
ATOM     12  C   UNL     1      47.754   9.406  12.531  0.00  0.00    +0.000 C 
ATOM     13  N   UNL     1      47.982   8.051  12.011  0.00  0.00    +0.000 N 
ATOM     14  C   UNL     1      49.307   7.812  11.410  0.00  0.00    +0.000 C 
ATOM     15  C   UNL     1      50.449   8.342  12.326  0.00  0.00    +0.000 C 
ATOM     16  C   UNL     1      51.793   8.251  11.602  0.00  0.00    +0.000 C 
ATOM     17  N   UNL     1      50.250   9.745  12.767  0.00  0.00    +0.000 NA
ATOM     18  H   UNL     1      50.250  10.333  11.933  0.00  0.00    +0.000 HD
ENDBRANCH   4  13
ENDBRANCH   1   8
BRANCH   1  19
ATOM     19  C   UNL     1      43.440   4.753  10.486  0.00  0.00    +0.000 C 
BRANCH  19  20
ATOM     20  N   UNL     1      44.308   3.579  10.503  0.00  0.00    +0.000 N 
ATOM     21  C   UNL     1      45.096   3.315   9.391  0.00  0.00    +0.000 A 
ATOM     22  C   UNL     1      45.646   4.297   8.557  0.00  0.00    +0.000 A 
ATOM     23  N   UNL     1      46.465   4.042   7.502  0.00  0.00    +0.000 NA
ATOM     24  C   UNL     1      46.744   2.726   7.321  0.00  0.00    +0.000 A 
ATOM     25  C   UNL     1      46.215   1.737   8.137  0.00  0.00    +0.000 A 
ATOM     26  N   UNL     1      45.378   2.013   9.175  0.00  0.00    +0.000 NA
ATOM     27  H   UNL     1      43.893   2.698  10.794  0.00  0.00    +0.000 HD
BRANCH  24  28
ATOM     28  C   UNL     1      47.671   2.363   6.215  0.00  0.00    +0.000 C 
ATOM     29  N   UNL     1      47.645   3.179   5.117  0.00  0.00    +0.000 N 
ATOM     30  O   UNL     1      48.418   1.395   6.282  0.00  0.00    +0.000 OA
ATOM     31  H   UNL     1      47.036   3.987   5.097  0.00  0.00    +0.000 HD
ATOM     32  H   UNL     1      48.274   2.995   4.345  0.00  0.00    +0.000 HD
ENDBRANCH  24  28
ENDBRANCH  19  20
ENDBRANCH   1  19
TORSDOF 5
ENDMDL
MODEL 4
REMARK VINA RESULT:    -7.952      1.732      2.899
REMARK INTER + INTRA:         -10.786
REMARK INTER:                  -9.894
REMARK INTRA:                  -0.892
REMARK UNBOUND:                -0.509
REMARK  Name = 
REMARK  9 active torsions:
REMARK  status: ('A' for Active; 'I' for Inactive)
REMARK    1  A    between atoms: C_1  and  C_2
REMARK    2  A    between atoms: N_4  and  C_5
REMARK    3  A    between atoms: C_9  and  C_10
REMARK    4  A    between atoms: C_10  and  C_11
REMARK    5  A    between atoms: C_10  and  C_12
REMARK    6  A    between atoms: C_10  and  C_13
REMARK    7  A    between atoms: C_13  and  N_14
REMARK    8  A    between atoms: C_18  and  C_19
REMARK    9  A    between atoms: C_26  and  C_27
REMARK                            x       y       z     vdW  Elec       q    Type
REMARK                         _______ _______ _______ _____ _____    ______ ____
ROOT
ATOM      1  C   UNL     1      43.572   4.483  12.363  0.00  0.00    +0.000 C 
ATOM      2  C   UNL     1      43.319   3.296  13.328  0.00  0.00    +0.000 C 
ATOM      3  C   UNL     1      42.463   5.541  12.555  0.00  0.00    +0.000 C 
ENDROOT
BRANCH   1   8
ATOM      4  C   UNL     1      46.263   7.153  13.204  0.00  0.00    +0.000 A 
ATOM      5  C   UNL     1      47.342   6.334  13.549  0.00  0.00    +0.000 A 
ATOM      6  C   UNL     1      47.260   4.946  13.459  0.00  0.00    +0.000 A 
ATOM      7  C   UNL     1      46.076   4.337  13.048  0.00  0.00    +0.000 A 
ATOM      8  C   UNL     1      44.953   5.104  12.709  0.00  0.00    +0.000 A 
ATOM      9  C   UNL     1      45.097   6.508  12.755  0.00  0.00    +0.000 A 
BRANCH   4  13
ATOM     10  C   UNL     1      48.926   9.237  11.559  0.00  0.00    +0.000 C 
ATOM     11  C   UNL     1      48.212  10.075  12.625  0.00  0.00    +0.000 C 
ATOM     12  C   UNL     1      47.591   9.201  13.745  0.00  0.00    +0.000 C 
ATOM     13  N   UNL     1      46.359   8.529  13.311  0.00  0.00    +0.000 N 
ATOM     14  C   UNL     1      45.372   9.385  12.627  0.00  0.00    +0.000 C 
ATOM     15  C   UNL     1      46.043  10.257  11.526  0.00  0.00    +0.000 C 
ATOM     16  C   UNL     1      45.038  11.264  10.963  0.00  0.00    +0.000 C 
ATOM     17  N   UNL     1      47.233  11.003  12.007  0.00  0.00    +0.000 NA
ATOM     18  H   UNL     1      46.919  11.646  12.735  0.00  0.00    +0.000 HD
ENDBRANCH   4  13
ENDBRANCH   1   8
BRANCH   1  19
ATOM     19  C   UNL     1      43.536   3.949  10.897  0.00  0.00    +0.000 C 
BRANCH  19  20
ATOM     20  N   UNL     1      44.464   2.855  10.628  0.00  0.00    +0.000 N 
ATOM     21  C   UNL     1      45.160   2.850   9.426  0.00  0.00    +0.000 A 
ATOM     22  C   UNL     1      45.577   4.001   8.746  0.00  0.00    +0.000 A 
ATOM     23  N   UNL     1      46.308   3.997   7.600  0.00  0.00    +0.000 NA
ATOM     24  C   UNL     1      46.640   2.757   7.158  0.00  0.00    +0.000 A 
ATOM     25  C   UNL     1      46.243   1.603   7.818  0.00  0.00    +0.000 A 
ATOM     26  N   UNL     1      45.491   1.630   8.952  0.00  0.00    +0.000 NA
ATOM     27  H   UNL     1      44.126   1.909  10.784  0.00  0.00    +0.000 HD
BRANCH  24  28
ATOM     28  C   UNL     1      47.481   2.663   5.933  0.00  0.00    +0.000 C 
ATOM     29  N   UNL     1      48.801   2.365   6.132  0.00  0.00    +0.000 N 
ATOM     30  O   UNL     1      47.021   2.839   4.812  0.00  0.00    +0.000 OA
ATOM     31  H   UNL     1      49.152   2.200   7.068  0.00  0.00    +0.000 HD
ATOM     32  H   UNL     1      49.415   2.263   5.333  0.00  0.00    +0.000 HD
ENDBRANCH  24  28
ENDBRANCH  19  20
ENDBRANCH   1  19
TORSDOF 5
ENDMDL
MODEL 5
REMARK VINA RESULT:    -7.794      4.130      8.266
REMARK INTER + INTRA:         -10.581
REMARK INTER:                 -10.163
REMARK INTRA:                  -0.418
REMARK UNBOUND:                -0.509
REMARK  Name = 
REMARK  9 active torsions:
REMARK  status: ('A' for Active; 'I' for Inactive)
REMARK    1  A    between atoms: C_1  and  C_2
REMARK    2  A    between atoms: N_4  and  C_5
REMARK    3  A    between atoms: C_9  and  C_10
REMARK    4  A    between atoms: C_10  and  C_11
REMARK    5  A    between atoms: C_10  and  C_12
REMARK    6  A    between atoms: C_10  and  C_13
REMARK    7  A    between atoms: C_13  and  N_14
REMARK    8  A    between atoms: C_18  and  C_19
REMARK    9  A    between atoms: C_26  and  C_27
REMARK                            x       y       z     vdW  Elec       q    Type
REMARK                         _______ _______ _______ _____ _____    ______ ____
ROOT
ATOM      1  C   UNL     1      46.102   6.047  12.413  0.00  0.00    +0.000 C 
ATOM      2  C   UNL     1      46.862   6.549  11.158  0.00  0.00    +0.000 C 
ATOM      3  C   UNL     1      45.311   7.220  13.032  0.00  0.00    +0.000 C 
ENDROOT
BRANCH   1   8
ATOM      4  C   UNL     1      44.435   3.321  10.209  0.00  0.00    +0.000 A 
ATOM      5  C   UNL     1      43.549   2.750  11.128  0.00  0.00    +0.000 A 
ATOM      6  C   UNL     1      43.418   3.253  12.421  0.00  0.00    +0.000 A 
ATOM      7  C   UNL     1      44.199   4.328  12.839  0.00  0.00    +0.000 A 
ATOM      8  C   UNL     1      45.120   4.929  11.970  0.00  0.00    +0.000 A 
ATOM      9  C   UNL     1      45.177   4.429  10.651  0.00  0.00    +0.000 A 
BRANCH   4  13
ATOM     10  C   UNL     1      47.021   4.409   7.705  0.00  0.00    +0.000 C 
ATOM     11  C   UNL     1      45.935   3.597   6.993  0.00  0.00    +0.000 C 
ATOM     12  C   UNL     1      44.574   3.650   7.735  0.00  0.00    +0.000 C 
ATOM     13  N   UNL     1      44.559   2.801   8.933  0.00  0.00    +0.000 N 
ATOM     14  C   UNL     1      45.068   1.429   8.750  0.00  0.00    +0.000 C 
ATOM     15  C   UNL     1      46.422   1.424   7.984  0.00  0.00    +0.000 C 
ATOM     16  C   UNL     1      46.833  -0.010   7.646  0.00  0.00    +0.000 C 
ATOM     17  N   UNL     1      46.394   2.211   6.726  0.00  0.00    +0.000 NA
ATOM     18  H   UNL     1      45.709   1.776   6.107  0.00  0.00    +0.000 HD
ENDBRANCH   4  13
ENDBRANCH   1   8
BRANCH   1  19
ATOM     19  C   UNL     1      47.144   5.517  13.447  0.00  0.00    +0.000 C 
BRANCH  19  20
ATOM     20  N   UNL     1      46.561   4.858  14.611  0.00  0.00    +0.000 N 
ATOM     21  C   UNL     1      47.327   4.736  15.763  0.00  0.00    +0.000 A 
ATOM     22  C   UNL     1      48.287   5.667  16.179  0.00  0.00    +0.000 A 
ATOM     23  N   UNL     1      48.996   5.579  17.336  0.00  0.00    +0.000 NA
ATOM     24  C   UNL     1      48.680   4.501  18.099  0.00  0.00    +0.000 A 
ATOM     25  C   UNL     1      47.730   3.570  17.710  0.00  0.00    +0.000 A 
ATOM     26  N   UNL     1      47.047   3.665  16.536  0.00  0.00    +0.000 NA
ATOM     27  H   UNL     1      46.104   3.963  14.459  0.00  0.00    +0.000 HD
BRANCH  24  28
ATOM     28  C   UNL     1      49.378   4.354  19.406  0.00  0.00    +0.000 C 
ATOM     29  N   UNL     1      50.742   4.261  19.352  0.00  0.00    +0.000 N 
ATOM     30  O   UNL     1      48.771   4.321  20.469  0.00  0.00    +0.000 OA
ATOM     31  H   UNL     1      51.222   4.315  18.462  0.00  0.00    +0.000 HD
ATOM     32  H   UNL     1      51.271   4.185  20.212  0.00  0.00    +0.000 HD
ENDBRANCH  24  28
ENDBRANCH  19  20
ENDBRANCH   1  19
TORSDOF 5
ENDMDL
MODEL 6
REMARK VINA RESULT:    -7.679      3.352      7.791
REMARK INTER + INTRA:         -10.433
REMARK INTER:                  -9.483
REMARK INTRA:                  -0.950
REMARK UNBOUND:                -0.509
REMARK  Name = 
REMARK  9 active torsions:
REMARK  status: ('A' for Active; 'I' for Inactive)
REMARK    1  A    between atoms: C_1  and  C_2
REMARK    2  A    between atoms: N_4  and  C_5
REMARK    3  A    between atoms: C_9  and  C_10
REMARK    4  A    between atoms: C_10  and  C_11
REMARK    5  A    between atoms: C_10  and  C_12
REMARK    6  A    between atoms: C_10  and  C_13
REMARK    7  A    between atoms: C_13  and  N_14
REMARK    8  A    between atoms: C_18  and  C_19
REMARK    9  A    between atoms: C_26  and  C_27
REMARK                            x       y       z     vdW  Elec       q    Type
REMARK                         _______ _______ _______ _____ _____    ______ ____
ROOT
ATOM      1  C   UNL     1      49.183   8.582  12.628  0.00  0.00    +0.000 C 
ATOM      2  C   UNL     1      49.995   7.407  12.024  0.00  0.00    +0.000 C 
ATOM      3  C   UNL     1      49.598   9.898  11.933  0.00  0.00    +0.000 C 
ENDROOT
BRANCH   1   8
ATOM      4  C   UNL     1      45.891   6.636  11.959  0.00  0.00    +0.000 A 
ATOM      5  C   UNL     1      44.948   7.656  12.125  0.00  0.00    +0.000 A 
ATOM      6  C   UNL     1      45.335   8.970  12.382  0.00  0.00    +0.000 A 
ATOM      7  C   UNL     1      46.685   9.292  12.510  0.00  0.00    +0.000 A 
ATOM      8  C   UNL     1      47.676   8.310  12.375  0.00  0.00    +0.000 A 
ATOM      9  C   UNL     1      47.244   7.004  12.055  0.00  0.00    +0.000 A 
BRANCH   4  13
ATOM     10  C   UNL     1      42.305   5.516  11.769  0.00  0.00    +0.000 C 
ATOM     11  C   UNL     1      43.215   4.289  11.899  0.00  0.00    +0.000 C 
ATOM     12  C   UNL     1      44.558   4.620  12.600  0.00  0.00    +0.000 C 
ATOM     13  N   UNL     1      45.487   5.336  11.716  0.00  0.00    +0.000 N 
ATOM     14  C   UNL     1      45.661   4.757  10.370  0.00  0.00    +0.000 C 
ATOM     15  C   UNL     1      44.290   4.423   9.715  0.00  0.00    +0.000 C 
ATOM     16  C   UNL     1      44.500   3.658   8.407  0.00  0.00    +0.000 C 
ATOM     17  N   UNL     1      43.398   3.619  10.587  0.00  0.00    +0.000 NA
ATOM     18  H   UNL     1      43.861   2.727  10.762  0.00  0.00    +0.000 HD
ENDBRANCH   4  13
ENDBRANCH   1   8
BRANCH   1  19
ATOM     19  C   UNL     1      49.500   8.675  14.153  0.00  0.00    +0.000 C 
BRANCH  19  20
ATOM     20  N   UNL     1      50.250   7.541  14.686  0.00  0.00    +0.000 N 
ATOM     21  C   UNL     1      49.584   6.611  15.473  0.00  0.00    +0.000 A 
ATOM     22  C   UNL     1      48.239   6.255  15.314  0.00  0.00    +0.000 A 
ATOM     23  N   UNL     1      47.601   5.303  16.045  0.00  0.00    +0.000 NA
ATOM     24  C   UNL     1      48.393   4.680  16.956  0.00  0.00    +0.000 A 
ATOM     25  C   UNL     1      49.728   5.013  17.128  0.00  0.00    +0.000 A 
ATOM     26  N   UNL     1      50.341   5.986  16.400  0.00  0.00    +0.000 NA
ATOM     27  H   UNL     1      51.135   7.742  15.142  0.00  0.00    +0.000 HD
BRANCH  24  28
ATOM     28  C   UNL     1      47.785   3.591  17.768  0.00  0.00    +0.000 C 
ATOM     29  N   UNL     1      48.437   3.270  18.927  0.00  0.00    +0.000 N 
ATOM     30  O   UNL     1      46.760   3.016  17.425  0.00  0.00    +0.000 OA
ATOM     31  H   UNL     1      49.270   3.777  19.201  0.00  0.00    +0.000 HD
ATOM     32  H   UNL     1      48.054   2.554  19.533  0.00  0.00    +0.000 HD
ENDBRANCH  24  28
ENDBRANCH  19  20
ENDBRANCH   1  19
TORSDOF 5
ENDMDL
MODEL 7
REMARK VINA RESULT:    -7.639      3.722      6.256
REMARK INTER + INTRA:         -10.381
REMARK INTER:                  -9.397
REMARK INTRA:                  -0.984
REMARK UNBOUND:                -0.509
REMARK  Name = 
REMARK  9 active torsions:
REMARK  status: ('A' for Active; 'I' for Inactive)
REMARK    1  A    between atoms: C_1  and  C_2
REMARK    2  A    between atoms: N_4  and  C_5
REMARK    3  A    between atoms: C_9  and  C_10
REMARK    4  A    between atoms: C_10  and  C_11
REMARK    5  A    between atoms: C_10  and  C_12
REMARK    6  A    between atoms: C_10  and  C_13
REMARK    7  A    between atoms: C_13  and  N_14
REMARK    8  A    between atoms: C_18  and  C_19
REMARK    9  A    between atoms: C_26  and  C_27
REMARK                            x       y       z     vdW  Elec       q    Type
REMARK                         _______ _______ _______ _____ _____    ______ ____
ROOT
ATOM      1  C   UNL     1      48.743   8.253  13.179  0.00  0.00    +0.000 C 
ATOM      2  C   UNL     1      49.270   9.703  13.016  0.00  0.00    +0.000 C 
ATOM      3  C   UNL     1      49.138   7.425  11.937  0.00  0.00    +0.000 C 
ENDROOT
BRANCH   1   8
ATOM      4  C   UNL     1      49.143   6.174  16.433  0.00  0.00    +0.000 A 
ATOM      5  C   UNL     1      50.520   6.290  16.648  0.00  0.00    +0.000 A 
ATOM      6  C   UNL     1      51.322   7.071  15.819  0.00  0.00    +0.000 A 
ATOM      7  C   UNL     1      50.767   7.735  14.726  0.00  0.00    +0.000 A 
ATOM      8  C   UNL     1      49.397   7.639  14.447  0.00  0.00    +0.000 A 
ATOM      9  C   UNL     1      48.609   6.889  15.347  0.00  0.00    +0.000 A 
BRANCH   4  13
ATOM     10  C   UNL     1      49.863   2.573  17.247  0.00  0.00    +0.000 C 
ATOM     11  C   UNL     1      48.427   2.911  17.662  0.00  0.00    +0.000 C 
ATOM     12  C   UNL     1      47.833   4.083  16.839  0.00  0.00    +0.000 C 
ATOM     13  N   UNL     1      48.364   5.386  17.262  0.00  0.00    +0.000 N 
ATOM     14  C   UNL     1      48.360   5.636  18.715  0.00  0.00    +0.000 C 
ATOM     15  C   UNL     1      48.945   4.426  19.500  0.00  0.00    +0.000 C 
ATOM     16  C   UNL     1      48.759   4.632  21.005  0.00  0.00    +0.000 C 
ATOM     17  N   UNL     1      48.332   3.127  19.128  0.00  0.00    +0.000 NA
ATOM     18  H   UNL     1      47.340   3.176  19.365  0.00  0.00    +0.000 HD
ENDBRANCH   4  13
ENDBRANCH   1   8
BRANCH   1  19
ATOM     19  C   UNL     1      47.188   8.300  13.303  0.00  0.00    +0.000 C 
BRANCH  19  20
ATOM     20  N   UNL     1      46.471   7.890  12.100  0.00  0.00    +0.000 N 
ATOM     21  C   UNL     1      45.912   6.620  12.056  0.00  0.00    +0.000 A 
ATOM     22  C   UNL     1      45.396   5.941  13.167  0.00  0.00    +0.000 A 
ATOM     23  N   UNL     1      44.797   4.722  13.116  0.00  0.00    +0.000 NA
ATOM     24  C   UNL     1      44.706   4.200  11.866  0.00  0.00    +0.000 A 
ATOM     25  C   UNL     1      45.205   4.856  10.750  0.00  0.00    +0.000 A 
ATOM     26  N   UNL     1      45.823   6.067  10.828  0.00  0.00    +0.000 NA
ATOM     27  H   UNL     1      46.932   8.047  11.207  0.00  0.00    +0.000 HD
BRANCH  24  28
ATOM     28  C   UNL     1      44.020   2.888  11.715  0.00  0.00    +0.000 C 
ATOM     29  N   UNL     1      44.158   2.274  10.500  0.00  0.00    +0.000 N 
ATOM     30  O   UNL     1      43.373   2.382  12.623  0.00  0.00    +0.000 OA
ATOM     31  H   UNL     1      44.718   2.702   9.773  0.00  0.00    +0.000 HD
ATOM     32  H   UNL     1      43.734   1.367  10.349  0.00  0.00    +0.000 HD
ENDBRANCH  24  28
ENDBRANCH  19  20
ENDBRANCH   1  19
TORSDOF 5
ENDMDL
MODEL 8
REMARK VINA RESULT:    -7.401      3.716      6.410
REMARK INTER + INTRA:         -10.073
REMARK INTER:                  -8.890
REMARK INTRA:                  -1.183
REMARK UNBOUND:                -0.509
REMARK  Name = 
REMARK  9 active torsions:
REMARK  status: ('A' for Active; 'I' for Inactive)
REMARK    1  A    between atoms: C_1  and  C_2
REMARK    2  A    between atoms: N_4  and  C_5
REMARK    3  A    between atoms: C_9  and  C_10
REMARK    4  A    between atoms: C_10  and  C_11
REMARK    5  A    between atoms: C_10  and  C_12
REMARK    6  A    between atoms: C_10  and  C_13
REMARK    7  A    between atoms: C_13  and  N_14
REMARK    8  A    between atoms: C_18  and  C_19
REMARK    9  A    between atoms: C_26  and  C_27
REMARK                            x       y       z     vdW  Elec       q    Type
REMARK                         _______ _______ _______ _____ _____    ______ ____
ROOT
ATOM      1  C   UNL     1      49.432   8.293  14.014  0.00  0.00    +0.000 C 
ATOM      2  C   UNL     1      48.803   9.549  13.357  0.00  0.00    +0.000 C 
ATOM      3  C   UNL     1      50.970   8.428  14.001  0.00  0.00    +0.000 C 
ENDROOT
BRANCH   1   8
ATOM      4  C   UNL     1      48.829   6.903  17.588  0.00  0.00    +0.000 A 
ATOM      5  C   UNL     1      48.261   8.021  18.209  0.00  0.00    +0.000 A 
ATOM      6  C   UNL     1      48.003   9.192  17.502  0.00  0.00    +0.000 A 
ATOM      7  C   UNL     1      48.336   9.287  16.152  0.00  0.00    +0.000 A 
ATOM      8  C   UNL     1      48.927   8.208  15.480  0.00  0.00    +0.000 A 
ATOM      9  C   UNL     1      49.116   7.019  16.218  0.00  0.00    +0.000 A 
BRANCH   4  13
ATOM     10  C   UNL     1      47.656   3.465  16.613  0.00  0.00    +0.000 C 
ATOM     11  C   UNL     1      48.130   3.446  18.070  0.00  0.00    +0.000 C 
ATOM     12  C   UNL     1      48.024   4.838  18.745  0.00  0.00    +0.000 C 
ATOM     13  N   UNL     1      49.088   5.751  18.310  0.00  0.00    +0.000 N 
ATOM     14  C   UNL     1      50.455   5.197  18.333  0.00  0.00    +0.000 C 
ATOM     15  C   UNL     1      50.509   3.793  17.664  0.00  0.00    +0.000 C 
ATOM     16  C   UNL     1      51.888   3.164  17.865  0.00  0.00    +0.000 C 
ATOM     17  N   UNL     1      49.485   2.851  18.182  0.00  0.00    +0.000 NA
ATOM     18  H   UNL     1      49.675   2.707  19.175  0.00  0.00    +0.000 HD
ENDBRANCH   4  13
ENDBRANCH   1   8
BRANCH   1  19
ATOM     19  C   UNL     1      49.011   7.037  13.190  0.00  0.00    +0.000 C 
BRANCH  19  20
ATOM     20  N   UNL     1      47.873   7.249  12.301  0.00  0.00    +0.000 N 
ATOM     21  C   UNL     1      46.897   6.264  12.218  0.00  0.00    +0.000 A 
ATOM     22  C   UNL     1      46.520   5.431  13.278  0.00  0.00    +0.000 A 
ATOM     23  N   UNL     1      45.525   4.506  13.216  0.00  0.00    +0.000 NA
ATOM     24  C   UNL     1      44.883   4.461  12.020  0.00  0.00    +0.000 A 
ATOM     25  C   UNL     1      45.236   5.280  10.958  0.00  0.00    +0.000 A 
ATOM     26  N   UNL     1      46.252   6.184  11.036  0.00  0.00    +0.000 NA
ATOM     27  H   UNL     1      48.073   7.554  11.352  0.00  0.00    +0.000 HD
BRANCH  24  28
ATOM     28  C   UNL     1      43.749   3.507  11.882  0.00  0.00    +0.000 C 
ATOM     29  N   UNL     1      43.885   2.314  12.537  0.00  0.00    +0.000 N 
ATOM     30  O   UNL     1      42.751   3.772  11.223  0.00  0.00    +0.000 OA
ATOM     31  H   UNL     1      44.709   2.129  13.095  0.00  0.00    +0.000 HD
ATOM     32  H   UNL     1      43.133   1.637  12.500  0.00  0.00    +0.000 HD
ENDBRANCH  24  28
ENDBRANCH  19  20
ENDBRANCH   1  19
TORSDOF 5
ENDMDL
MODEL 9
REMARK VINA RESULT:    -7.313      2.974      5.411
REMARK INTER + INTRA:          -9.960
REMARK INTER:                  -8.628
REMARK INTRA:                  -1.332
REMARK UNBOUND:                -0.509
REMARK  Name = 
REMARK  9 active torsions:
REMARK  status: ('A' for Active; 'I' for Inactive)
REMARK    1  A    between atoms: C_1  and  C_2
REMARK    2  A    between atoms: N_4  and  C_5
REMARK    3  A    between atoms: C_9  and  C_10
REMARK    4  A    between atoms: C_10  and  C_11
REMARK    5  A    between atoms: C_10  and  C_12
REMARK    6  A    between atoms: C_10  and  C_13
REMARK    7  A    between atoms: C_13  and  N_14
REMARK    8  A    between atoms: C_18  and  C_19
REMARK    9  A    between atoms: C_26  and  C_27
REMARK                            x       y       z     vdW  Elec       q    Type
REMARK                         _______ _______ _______ _____ _____    ______ ____
ROOT
ATOM      1  C   UNL     1      48.433   4.507  17.175  0.00  0.00    +0.000 C 
ATOM      2  C   UNL     1      49.067   3.093  17.128  0.00  0.00    +0.000 C 
ATOM      3  C   UNL     1      48.070   4.854  18.635  0.00  0.00    +0.000 C 
ENDROOT
BRANCH   1   8
ATOM      4  C   UNL     1      49.907   7.611  15.367  0.00  0.00    +0.000 A 
ATOM      5  C   UNL     1      51.236   7.555  15.796  0.00  0.00    +0.000 A 
ATOM      6  C   UNL     1      51.698   6.514  16.599  0.00  0.00    +0.000 A 
ATOM      7  C   UNL     1      50.826   5.511  17.021  0.00  0.00    +0.000 A 
ATOM      8  C   UNL     1      49.477   5.524  16.640  0.00  0.00    +0.000 A 
ATOM      9  C   UNL     1      49.065   6.563  15.776  0.00  0.00    +0.000 A 
BRANCH   4  13
ATOM     10  C   UNL     1      50.140   7.703  11.614  0.00  0.00    +0.000 C 
ATOM     11  C   UNL     1      49.830   9.109  12.138  0.00  0.00    +0.000 C 
ATOM     12  C   UNL     1      50.327   9.321  13.592  0.00  0.00    +0.000 C 
ATOM     13  N   UNL     1      49.464   8.658  14.578  0.00  0.00    +0.000 N 
ATOM     14  C   UNL     1      48.016   8.890  14.420  0.00  0.00    +0.000 C 
ATOM     15  C   UNL     1      47.568   8.686  12.943  0.00  0.00    +0.000 C 
ATOM     16  C   UNL     1      46.109   9.111  12.770  0.00  0.00    +0.000 C 
ATOM     17  N   UNL     1      48.393   9.438  11.965  0.00  0.00    +0.000 NA
ATOM     18  H   UNL     1      48.280  10.432  12.168  0.00  0.00    +0.000 HD
ENDBRANCH   4  13
ENDBRANCH   1   8
BRANCH   1  19
ATOM     19  C   UNL     1      47.139   4.502  16.302  0.00  0.00    +0.000 C 
BRANCH  19  20
ATOM     20  N   UNL     1      47.205   3.642  15.126  0.00  0.00    +0.000 N 
ATOM     21  C   UNL     1      46.490   4.003  13.992  0.00  0.00    +0.000 A 
ATOM     22  C   UNL     1      46.243   5.324  13.598  0.00  0.00    +0.000 A 
ATOM     23  N   UNL     1      45.593   5.680  12.458  0.00  0.00    +0.000 NA
ATOM     24  C   UNL     1      45.206   4.630  11.689  0.00  0.00    +0.000 A 
ATOM     25  C   UNL     1      45.444   3.314  12.057  0.00  0.00    +0.000 A 
ATOM     26  N   UNL     1      46.078   2.980  13.215  0.00  0.00    +0.000 NA
ATOM     27  H   UNL     1      47.060   2.646  15.269  0.00  0.00    +0.000 HD
BRANCH  24  28
ATOM     28  C   UNL     1      44.527   4.933  10.399  0.00  0.00    +0.000 C 
ATOM     29  N   UNL     1      45.346   5.239   9.347  0.00  0.00    +0.000 N 
ATOM     30  O   UNL     1      43.309   4.908  10.282  0.00  0.00    +0.000 OA
ATOM     31  H   UNL     1      46.352   5.229   9.464  0.00  0.00    +0.000 HD
ATOM     32  H   UNL     1      44.941   5.428   8.438  0.00  0.00    +0.000 HD
ENDBRANCH  24  28
ENDBRANCH  19  20
ENDBRANCH   1  19
TORSDOF 5
ENDMDL
