MODEL 1
REMARK VINA RESULT:    -8.286      0.000      0.000
REMARK INTER + INTRA:         -10.913
REMARK INTER:                 -10.223
REMARK INTRA:                  -0.689
REMARK UNBOUND:                -0.689
REMARK  Name = 
REMARK  6 active torsions:
REMARK  status: ('A' for Active; 'I' for Inactive)
REMARK    1  A    between atoms: C_1  and  C_2
REMARK    2  A    between atoms: C_5  and  C_6
REMARK    3  A    between atoms: C_6  and  C_7
REMARK    4  A    between atoms: C_6  and  N_8
REMARK    5  A    between atoms: N_8  and  C_9
REMARK    6  A    between atoms: C_12  and  C_13
REMARK                            x       y       z     vdW  Elec       q    Type
REMARK                         _______ _______ _______ _____ _____    ______ ____
ROOT
ATOM      1  N   UNL     1      43.755   4.862   9.836  0.00  0.00    +0.000 N 
ATOM      2  H   UNL     1      43.955   5.826   9.571  0.00  0.00    +0.000 HD
ENDROOT
BRANCH   1   3
ATOM      3  C   UNL     1      44.566   3.961   9.136  0.00  0.00    +0.000 A 
ATOM      4  C   UNL     1      45.562   4.342   8.238  0.00  0.00    +0.000 A 
ATOM      5  C   UNL     1      46.400   3.392   7.649  0.00  0.00    +0.000 A 
ATOM      6  C   UNL     1      46.226   2.059   7.984  0.00  0.00    +0.000 A 
ATOM      7  N   UNL     1      45.293   1.624   8.870  0.00  0.00    +0.000 NA
ATOM      8  C   UNL     1      44.514   2.591   9.428  0.00  0.00    +0.000 A 
BRANCH   6   9
ATOM      9  C   UNL     1      47.105   1.022   7.352  0.00  0.00    +0.000 C 
ATOM     10  N   UNL     1      46.803  -0.275   7.658  0.00  0.00    +0.000 N 
ATOM     11  O   UNL     1      48.032   1.307   6.606  0.00  0.00    +0.000 OA
ATOM     12  H   UNL     1      46.033  -0.478   8.286  0.00  0.00    +0.000 HD
ATOM     13  H   UNL     1      47.362  -1.022   7.271  0.00  0.00    +0.000 HD
ENDBRANCH   6   9
ENDBRANCH   1   3
BRANCH   1  14
ATOM     14  C   UNL     1      43.547   4.747  11.288  0.00  0.00    +0.000 C 
ATOM     15  C   UNL     1      42.329   5.554  11.750  0.00  0.00    +0.000 C 
BRANCH  14  20
ATOM     16  C   UNL     1      48.370   6.702  13.974  0.00  0.00    +0.000 C 
ATOM     17  C   UNL     1      47.134   6.208  13.280  0.00  0.00    +0.000 A 
ATOM     18  C   UNL     1      46.522   6.959  12.271  0.00  0.00    +0.000 A 
ATOM     19  C   UNL     1      45.365   6.490  11.638  0.00  0.00    +0.000 A 
ATOM     20  C   UNL     1      44.798   5.259  12.000  0.00  0.00    +0.000 A 
ATOM     21  C   UNL     1      45.413   4.517  13.021  0.00  0.00    +0.000 A 
ATOM     22  C   UNL     1      46.571   4.983  13.650  0.00  0.00    +0.000 A 
ENDBRANCH  14  20
ENDBRANCH   1  14
TORSDOF 4
ENDMDL
MODEL 2
REMARK VINA RESULT:    -7.315      3.039      6.088
REMARK INTER + INTRA:          -9.715
REMARK INTER:                  -9.726
REMARK INTRA:                   0.011
REMARK UNBOUND:                -0.689
REMARK  Name = 
REMARK  6 active torsions:
REMARK  status: ('A' for Active; 'I' for Inactive)
REMARK    1  A    between atoms: C_1  and  C_2
REMARK    2  A    between atoms: C_5  and  C_6
REMARK    3  A    between atoms: C_6  and  C_7
REMARK    4  A    between atoms: C_6  and  N_8
REMARK    5  A    between atoms: N_8  and  C_9
REMARK    6  A    between atoms: C_12  and  C_13
REMARK                            x       y       z     vdW  Elec       q    Type
REMARK                         _______ _______ _______ _____ _____    ______ ____
ROOT
ATOM      1  N   UNL     1      44.118   5.425  10.674  0.00  0.00    +0.000 N 
ATOM      2  H   UNL     1      43.325   6.000  10.954  0.00  0.00    +0.000 HD
ENDROOT
BRANCH   1   3
ATOM      3  C   UNL     1      45.201   5.589  11.544  0.00  0.00    +0.000 A 
ATOM      4  C   UNL     1      46.337   6.340  11.244  0.00  0.00    +0.000 A 
ATOM      5  C   UNL     1      47.337   6.543  12.199  0.00  0.00    +0.000 A 
ATOM      6  C   UNL     1      47.171   5.990  13.458  0.00  0.00    +0.000 A 
ATOM      7  N   UNL     1      46.078   5.271  13.823  0.00  0.00    +0.000 NA
ATOM      8  C   UNL     1      45.125   5.116  12.862  0.00  0.00    +0.000 A 
BRANCH   6   9
ATOM      9  C   UNL     1      48.239   6.183  14.492  0.00  0.00    +0.000 C 
ATOM     10  N   UNL     1      47.903   5.815  15.764  0.00  0.00    +0.000 N 
ATOM     11  O   UNL     1      49.343   6.638  14.225  0.00  0.00    +0.000 OA
ATOM     12  H   UNL     1      46.977   5.448  15.954  0.00  0.00    +0.000 HD
ATOM     13  H   UNL     1      48.576   5.926  16.510  0.00  0.00    +0.000 HD
ENDBRANCH   6   9
ENDBRANCH   1   3
BRANCH   1  14
ATOM     14  C   UNL     1      43.673   4.092  10.237  0.00  0.00    +0.000 C 
ATOM     15  C   UNL     1      43.512   3.133  11.423  0.00  0.00    +0.000 C 
BRANCH  14  20
ATOM     16  C   UNL     1      47.675   1.926   6.551  0.00  0.00    +0.000 C 
ATOM     17  C   UNL     1      46.648   2.473   7.499  0.00  0.00    +0.000 A 
ATOM     18  C   UNL     1      45.976   1.638   8.397  0.00  0.00    +0.000 A 
ATOM     19  C   UNL     1      45.015   2.160   9.270  0.00  0.00    +0.000 A 
ATOM     20  C   UNL     1      44.708   3.528   9.265  0.00  0.00    +0.000 A 
ATOM     21  C   UNL     1      45.381   4.358   8.353  0.00  0.00    +0.000 A 
ATOM     22  C   UNL     1      46.343   3.837   7.483  0.00  0.00    +0.000 A 
ENDBRANCH  14  20
ENDBRANCH   1  14
TORSDOF 4
ENDMDL
MODEL 3
REMARK VINA RESULT:    -6.867      3.306      6.748
REMARK INTER + INTRA:          -9.162
REMARK INTER:                  -8.604
REMARK INTRA:                  -0.559
REMARK UNBOUND:                -0.689
REMARK  Name = 
REMARK  6 active torsions:
REMARK  status: ('A' for Active; 'I' for Inactive)
REMARK    1  A    between atoms: C_1  and  C_2
REMARK    2  A    between atoms: C_5  and  C_6
REMARK    3  A    between atoms: C_6  and  C_7
REMARK    4  A    between atoms: C_6  and  N_8
REMARK    5  A    between atoms: N_8  and  C_9
REMARK    6  A    between atoms: C_12  and  C_13
REMARK                            x       y       z     vdW  Elec       q    Type
REMARK                         _______ _______ _______ _____ _____    ______ ____
ROOT
ATOM      1  N   UNL     1      45.204   4.434  11.746  0.00  0.00    +0.000 N 
ATOM      2  H   UNL     1      46.087   3.926  11.707  0.00  0.00    +0.000 HD
ENDROOT
BRANCH   1   3
ATOM      3  C   UNL     1      45.411   5.804  11.937  0.00  0.00    +0.000 A 
ATOM      4  C   UNL     1      46.563   6.349  12.503  0.00  0.00    +0.000 A 
ATOM      5  C   UNL     1      46.745   7.732  12.574  0.00  0.00    +0.000 A 
ATOM      6  C   UNL     1      45.756   8.555  12.059  0.00  0.00    +0.000 A 
ATOM      7  N   UNL     1      44.623   8.090  11.472  0.00  0.00    +0.000 NA
ATOM      8  C   UNL     1      44.503   6.735  11.414  0.00  0.00    +0.000 A 
BRANCH   6   9
ATOM      9  C   UNL     1      45.924  10.043  12.138  0.00  0.00    +0.000 C 
ATOM     10  N   UNL     1      44.767  10.766  12.205  0.00  0.00    +0.000 N 
ATOM     11  O   UNL     1      47.022  10.585  12.146  0.00  0.00    +0.000 OA
ATOM     12  H   UNL     1      43.873  10.287  12.188  0.00  0.00    +0.000 HD
ATOM     13  H   UNL     1      44.810  11.774  12.252  0.00  0.00    +0.000 HD
ENDBRANCH   6   9
ENDBRANCH   1   3
BRANCH   1  14
ATOM     14  C   UNL     1      44.261   3.929  10.736  0.00  0.00    +0.000 C 
ATOM     15  C   UNL     1      43.435   2.753  11.271  0.00  0.00    +0.000 C 
BRANCH  14  20
ATOM     16  C   UNL     1      47.349   2.182   6.077  0.00  0.00    +0.000 C 
ATOM     17  C   UNL     1      46.557   2.622   7.273  0.00  0.00    +0.000 A 
ATOM     18  C   UNL     1      46.023   1.689   8.169  0.00  0.00    +0.000 A 
ATOM     19  C   UNL     1      45.279   2.112   9.276  0.00  0.00    +0.000 A 
ATOM     20  C   UNL     1      45.056   3.477   9.512  0.00  0.00    +0.000 A 
ATOM     21  C   UNL     1      45.587   4.406   8.602  0.00  0.00    +0.000 A 
ATOM     22  C   UNL     1      46.333   3.983   7.498  0.00  0.00    +0.000 A 
ENDBRANCH  14  20
ENDBRANCH   1  14
TORSDOF 4
ENDMDL
MODEL 4
REMARK VINA RESULT:    -6.850      3.522      6.632
REMARK INTER + INTRA:          -9.141
REMARK INTER:                  -8.529
REMARK INTRA:                  -0.613
REMARK UNBOUND:                -0.689
REMARK  Name = 
REMARK  6 active torsions:
REMARK  status: ('A' for Active; 'I' for Inactive)
REMARK    1  A    between atoms: C_1  and  C_2
REMARK    2  A    between atoms: C_5  and  C_6
REMARK    3  A    between atoms: C_6  and  C_7
REMARK    4  A    between atoms: C_6  and  N_8
REMARK    5  A    between atoms: N_8  and  C_9
REMARK    6  A    between atoms: C_12  and  C_13
REMARK                            x       y       z     vdW  Elec       q    Type
REMARK                         _______ _______ _______ _____ _____    ______ ____
ROOT
ATOM      1  N   UNL     1      45.344   3.953  12.131  0.00  0.00    +0.000 N 
ATOM      2  H   UNL     1      46.062   3.237  12.028  0.00  0.00    +0.000 HD
ENDROOT
BRANCH   1   3
ATOM      3  C   UNL     1      45.901   5.189  12.478  0.00  0.00    +0.000 A 
ATOM      4  C   UNL     1      45.332   6.420  12.156  0.00  0.00    +0.000 A 
ATOM      5  C   UNL     1      45.891   7.614  12.620  0.00  0.00    +0.000 A 
ATOM      6  C   UNL     1      47.022   7.547  13.417  0.00  0.00    +0.000 A 
ATOM      7  N   UNL     1      47.610   6.381  13.789  0.00  0.00    +0.000 NA
ATOM      8  C   UNL     1      47.017   5.246  13.324  0.00  0.00    +0.000 A 
BRANCH   6   9
ATOM      9  C   UNL     1      47.647   8.816  13.913  0.00  0.00    +0.000 C 
ATOM     10  N   UNL     1      47.455   9.092  15.238  0.00  0.00    +0.000 N 
ATOM     11  O   UNL     1      48.291   9.564  13.189  0.00  0.00    +0.000 OA
ATOM     12  H   UNL     1      46.910   8.456  15.810  0.00  0.00    +0.000 HD
ATOM     13  H   UNL     1      47.844   9.936  15.634  0.00  0.00    +0.000 HD
ENDBRANCH   6   9
ENDBRANCH   1   3
BRANCH   1  14
ATOM     14  C   UNL     1      44.326   3.834  11.075  0.00  0.00    +0.000 C 
ATOM     15  C   UNL     1      43.299   2.743  11.401  0.00  0.00    +0.000 C 
BRANCH  14  20
ATOM     16  C   UNL     1      46.967   2.560   6.006  0.00  0.00    +0.000 C 
ATOM     17  C   UNL     1      46.290   2.895   7.304  0.00  0.00    +0.000 A 
ATOM     18  C   UNL     1      46.085   4.224   7.690  0.00  0.00    +0.000 A 
ATOM     19  C   UNL     1      45.460   4.522   8.906  0.00  0.00    +0.000 A 
ATOM     20  C   UNL     1      45.026   3.498   9.760  0.00  0.00    +0.000 A 
ATOM     21  C   UNL     1      45.245   2.166   9.369  0.00  0.00    +0.000 A 
ATOM     22  C   UNL     1      45.866   1.869   8.152  0.00  0.00    +0.000 A 
ENDBRANCH  14  20
ENDBRANCH   1  14
TORSDOF 4
ENDMDL
MODEL 5
REMARK VINA RESULT:    -6.297      4.164      6.882
REMARK INTER + INTRA:          -8.459
REMARK INTER:                  -7.876
REMARK INTRA:                  -0.583
REMARK UNBOUND:                -0.689
REMARK  Name = 
REMARK  6 active torsions:
REMARK  status: ('A' for Active; 'I' for Inactive)
REMARK    1  A    between atoms: C_1  and  C_2
REMARK    2  A    between atoms: C_5  and  C_6
REMARK    3  A    between atoms: C_6  and  C_7
REMARK    4  A    between atoms: C_6  and  N_8
REMARK    5  A    between atoms: N_8  and  C_9
REMARK    6  A    between atoms: C_12  and  C_13
REMARK                            x       y       z     vdW  Elec       q    Type
REMARK                         _______ _______ _______ _____ _____    ______ ____
ROOT
ATOM      1  N   UNL     1      45.670   4.004  13.309  0.00  0.00    +0.000 N 
ATOM      2  H   UNL     1      46.023   3.136  12.908  0.00  0.00    +0.000 HD
ENDROOT
BRANCH   1   3
ATOM      3  C   UNL     1      46.704   4.771  13.857  0.00  0.00    +0.000 A 
ATOM      4  C   UNL     1      47.205   5.935  13.275  0.00  0.00    +0.000 A 
ATOM      5  C   UNL     1      48.171   6.706  13.927  0.00  0.00    +0.000 A 
ATOM      6  C   UNL     1      48.615   6.293  15.172  0.00  0.00    +0.000 A 
ATOM      7  N   UNL     1      48.150   5.186  15.805  0.00  0.00    +0.000 NA
ATOM      8  C   UNL     1      47.198   4.479  15.135  0.00  0.00    +0.000 A 
BRANCH   6   9
ATOM      9  C   UNL     1      49.662   7.097  15.882  0.00  0.00    +0.000 C 
ATOM     10  N   UNL     1      50.887   7.138  15.279  0.00  0.00    +0.000 N 
ATOM     11  O   UNL     1      49.444   7.686  16.933  0.00  0.00    +0.000 OA
ATOM     12  H   UNL     1      51.038   6.633  14.412  0.00  0.00    +0.000 HD
ATOM     13  H   UNL     1      51.639   7.657  15.710  0.00  0.00    +0.000 HD
ENDBRANCH   6   9
ENDBRANCH   1   3
BRANCH   1  14
ATOM     14  C   UNL     1      44.638   4.601  12.447  0.00  0.00    +0.000 C 
ATOM     15  C   UNL     1      43.238   4.086  12.800  0.00  0.00    +0.000 C 
BRANCH  14  20
ATOM     16  C   UNL     1      45.903   3.236   6.894  0.00  0.00    +0.000 C 
ATOM     17  C   UNL     1      45.577   3.578   8.319  0.00  0.00    +0.000 A 
ATOM     18  C   UNL     1      45.069   2.613   9.196  0.00  0.00    +0.000 A 
ATOM     19  C   UNL     1      44.761   2.947  10.519  0.00  0.00    +0.000 A 
ATOM     20  C   UNL     1      44.957   4.252  10.994  0.00  0.00    +0.000 A 
ATOM     21  C   UNL     1      45.457   5.217  10.104  0.00  0.00    +0.000 A 
ATOM     22  C   UNL     1      45.768   4.882   8.783  0.00  0.00    +0.000 A 
ENDBRANCH  14  20
ENDBRANCH   1  14
TORSDOF 4
ENDMDL
MODEL 6
REMARK VINA RESULT:    -6.131      3.433      6.240
REMARK INTER + INTRA:          -8.254
REMARK INTER:                  -8.234
REMARK INTRA:                  -0.020
REMARK UNBOUND:                -0.689
REMARK  Name = 
REMARK  6 active torsions:
REMARK  status: ('A' for Active; 'I' for Inactive)
REMARK    1  A    between atoms: C_1  and  C_2
REMARK    2  A    between atoms: C_5  and  C_6
REMARK    3  A    between atoms: C_6  and  C_7
REMARK    4  A    between atoms: C_6  and  N_8
REMARK    5  A    between atoms: N_8  and  C_9
REMARK    6  A    between atoms: C_12  and  C_13
REMARK                            x       y       z     vdW  Elec       q    Type
REMARK                         _______ _______ _______ _____ _____    ______ ____
ROOT
ATOM      1  N   UNL     1      45.569   5.778  11.250  0.00  0.00    +0.000 N 
ATOM      2  H   UNL     1      45.411   6.778  11.364  0.00  0.00    +0.000 HD
ENDROOT
BRANCH   1   3
ATOM      3  C   UNL     1      46.009   5.192  12.442  0.00  0.00    +0.000 A 
ATOM      4  C   UNL     1      46.169   3.819  12.625  0.00  0.00    +0.000 A 
ATOM      5  C   UNL     1      46.707   3.309  13.810  0.00  0.00    +0.000 A 
ATOM      6  C   UNL     1      47.089   4.201  14.799  0.00  0.00    +0.000 A 
ATOM      7  N   UNL     1      46.985   5.549  14.674  0.00  0.00    +0.000 NA
ATOM      8  C   UNL     1      46.470   5.994  13.495  0.00  0.00    +0.000 A 
BRANCH   6   9
ATOM      9  C   UNL     1      47.655   3.674  16.083  0.00  0.00    +0.000 C 
ATOM     10  N   UNL     1      46.748   3.446  17.079  0.00  0.00    +0.000 N 
ATOM     11  O   UNL     1      48.849   3.456  16.240  0.00  0.00    +0.000 OA
ATOM     12  H   UNL     1      45.766   3.645  16.921  0.00  0.00    +0.000 HD
ATOM     13  H   UNL     1      47.065   3.098  17.973  0.00  0.00    +0.000 HD
ENDBRANCH   6   9
ENDBRANCH   1   3
BRANCH   1  14
ATOM     14  C   UNL     1      44.508   5.166  10.434  0.00  0.00    +0.000 C 
ATOM     15  C   UNL     1      43.492   4.414  11.301  0.00  0.00    +0.000 C 
BRANCH  14  20
ATOM     16  C   UNL     1      46.946   1.458   6.613  0.00  0.00    +0.000 C 
ATOM     17  C   UNL     1      46.324   2.415   7.588  0.00  0.00    +0.000 A 
ATOM     18  C   UNL     1      46.514   3.796   7.467  0.00  0.00    +0.000 A 
ATOM     19  C   UNL     1      45.936   4.676   8.388  0.00  0.00    +0.000 A 
ATOM     20  C   UNL     1      45.153   4.195   9.447  0.00  0.00    +0.000 A 
ATOM     21  C   UNL     1      44.976   2.806   9.567  0.00  0.00    +0.000 A 
ATOM     22  C   UNL     1      45.551   1.927   8.645  0.00  0.00    +0.000 A 
ENDBRANCH  14  20
ENDBRANCH   1  14
TORSDOF 4
ENDMDL
MODEL 7
REMARK VINA RESULT:    -5.860      4.432      6.336
REMARK INTER + INTRA:          -7.920
REMARK INTER:                  -7.422
REMARK INTRA:                  -0.498
REMARK UNBOUND:                -0.689
REMARK  Name = 
REMARK  6 active torsions:
REMARK  status: ('A' for Active; 'I' for Inactive)
REMARK    1  A    between atoms: C_1  and  C_2
REMARK    2  A    between atoms: C_5  and  C_6
REMARK    3  A    between atoms: C_6  and  C_7
REMARK    4  A    between atoms: C_6  and  N_8
REMARK    5  A    between atoms: N_8  and  C_9
REMARK    6  A    between atoms: C_12  and  C_13
REMARK                            x       y       z     vdW  Elec       q    Type
REMARK                         _______ _______ _______ _____ _____    ______ ____
ROOT
ATOM      1  N   UNL     1      47.640   5.102  15.569  0.00  0.00    +0.000 N 
ATOM      2  H   UNL     1      48.608   5.280  15.306  0.00  0.00    +0.000 HD
ENDROOT
BRANCH   1   3
ATOM      3  C   UNL     1      46.846   4.836  14.447  0.00  0.00    +0.000 A 
ATOM      4  C   UNL     1      46.321   5.820  13.611  0.00  0.00    +0.000 A 
ATOM      5  C   UNL     1      45.619   5.479  12.452  0.00  0.00    +0.000 A 
ATOM      6  C   UNL     1      45.464   4.137  12.145  0.00  0.00    +0.000 A 
ATOM      7  N   UNL     1      45.973   3.131  12.901  0.00  0.00    +0.000 NA
ATOM      8  C   UNL     1      46.662   3.517  14.011  0.00  0.00    +0.000 A 
BRANCH   6   9
ATOM      9  C   UNL     1      44.702   3.749  10.914  0.00  0.00    +0.000 C 
ATOM     10  N   UNL     1      44.335   2.435  10.835  0.00  0.00    +0.000 N 
ATOM     11  O   UNL     1      44.418   4.549  10.032  0.00  0.00    +0.000 OA
ATOM     12  H   UNL     1      44.592   1.795  11.579  0.00  0.00    +0.000 HD
ATOM     13  H   UNL     1      43.825   2.106  10.027  0.00  0.00    +0.000 HD
ENDBRANCH   6   9
ENDBRANCH   1   3
BRANCH   1  14
ATOM     14  C   UNL     1      47.567   4.272  16.781  0.00  0.00    +0.000 C 
ATOM     15  C   UNL     1      47.090   5.082  17.993  0.00  0.00    +0.000 C 
BRANCH  14  20
ATOM     16  C   UNL     1      52.871   2.061  17.909  0.00  0.00    +0.000 C 
ATOM     17  C   UNL     1      51.509   2.620  17.618  0.00  0.00    +0.000 A 
ATOM     18  C   UNL     1      50.494   1.814  17.091  0.00  0.00    +0.000 A 
ATOM     19  C   UNL     1      49.231   2.350  16.816  0.00  0.00    +0.000 A 
ATOM     20  C   UNL     1      48.955   3.702  17.065  0.00  0.00    +0.000 A 
ATOM     21  C   UNL     1      49.983   4.507  17.584  0.00  0.00    +0.000 A 
ATOM     22  C   UNL     1      51.243   3.971  17.862  0.00  0.00    +0.000 A 
ENDBRANCH  14  20
ENDBRANCH   1  14
TORSDOF 4
ENDMDL
MODEL 8
REMARK VINA RESULT:    -5.589      3.320      5.345
REMARK INTER + INTRA:          -7.585
REMARK INTER:                  -6.995
REMARK INTRA:                  -0.590
REMARK UNBOUND:                -0.689
REMARK  Name = 
REMARK  6 active torsions:
REMARK  status: ('A' for Active; 'I' for Inactive)
REMARK    1  A    between atoms: C_1  and  C_2
REMARK    2  A    between atoms: C_5  and  C_6
REMARK    3  A    between atoms: C_6  and  C_7
REMARK    4  A    between atoms: C_6  and  N_8
REMARK    5  A    between atoms: N_8  and  C_9
REMARK    6  A    between atoms: C_12  and  C_13
REMARK                            x       y       z     vdW  Elec       q    Type
REMARK                         _______ _______ _______ _____ _____    ______ ____
ROOT
ATOM      1  N   UNL     1      46.928   7.079  13.595  0.00  0.00    +0.000 N 
ATOM      2  H   UNL     1      46.602   8.031  13.431  0.00  0.00    +0.000 HD
ENDROOT
BRANCH   1   3
ATOM      3  C   UNL     1      46.131   6.144  12.925  0.00  0.00    +0.000 A 
ATOM      4  C   UNL     1      45.683   6.297  11.613  0.00  0.00    +0.000 A 
ATOM      5  C   UNL     1      44.973   5.278  10.973  0.00  0.00    +0.000 A 
ATOM      6  C   UNL     1      44.731   4.104  11.668  0.00  0.00    +0.000 A 
ATOM      7  N   UNL     1      45.161   3.881  12.937  0.00  0.00    +0.000 NA
ATOM      8  C   UNL     1      45.862   4.899  13.509  0.00  0.00    +0.000 A 
BRANCH   6   9
ATOM      9  C   UNL     1      43.958   3.004  11.005  0.00  0.00    +0.000 C 
ATOM     10  N   UNL     1      43.342   2.123  11.848  0.00  0.00    +0.000 N 
ATOM     11  O   UNL     1      43.875   2.895   9.789  0.00  0.00    +0.000 OA
ATOM     12  H   UNL     1      43.436   2.237  12.852  0.00  0.00    +0.000 HD
ATOM     13  H   UNL     1      42.811   1.354  11.465  0.00  0.00    +0.000 HD
ENDBRANCH   6   9
ENDBRANCH   1   3
BRANCH   1  14
ATOM     14  C   UNL     1      48.397   7.011  13.556  0.00  0.00    +0.000 C 
ATOM     15  C   UNL     1      49.006   7.131  14.958  0.00  0.00    +0.000 C 
BRANCH  14  20
ATOM     16  C   UNL     1      50.407  11.391  10.230  0.00  0.00    +0.000 C 
ATOM     17  C   UNL     1      49.900  10.265  11.081  0.00  0.00    +0.000 A 
ATOM     18  C   UNL     1      50.711   9.166  11.387  0.00  0.00    +0.000 A 
ATOM     19  C   UNL     1      50.223   8.119  12.175  0.00  0.00    +0.000 A 
ATOM     20  C   UNL     1      48.913   8.149  12.678  0.00  0.00    +0.000 A 
ATOM     21  C   UNL     1      48.102   9.251  12.358  0.00  0.00    +0.000 A 
ATOM     22  C   UNL     1      48.592  10.299  11.574  0.00  0.00    +0.000 A 
ENDBRANCH  14  20
ENDBRANCH   1  14
TORSDOF 4
ENDMDL
