MODEL 1
REMARK VINA RESULT:    -7.756      0.000      0.000
REMARK INTER + INTRA:         -10.736
REMARK INTER:                  -9.569
REMARK INTRA:                  -1.167
REMARK UNBOUND:                -1.167
REMARK  Name = 
REMARK  4 active torsions:
REMARK  status: ('A' for Active; 'I' for Inactive)
REMARK    1  A    between atoms: C_2  and  C_3
REMARK    2  A    between atoms: N_7  and  C_8
REMARK    3  A    between atoms: C_8  and  C_9
REMARK    4  A    between atoms: C_13  and  C_14
REMARK                            x       y       z     vdW  Elec       q    Type
REMARK                         _______ _______ _______ _____ _____    ______ ____
ROOT
ATOM      1  C   UNL     1      43.706   5.175  11.514  0.00  0.00    +0.000 C 
ATOM      2  C   UNL     1      42.284   5.488  11.933  0.00  0.00    +0.000 C 
ATOM      3  C   UNL     1      42.984   6.383  10.961  0.00  0.00    +0.000 C 
ENDROOT
BRANCH   1   8
ATOM      4  C   UNL     1      46.351   2.744   7.694  0.00  0.00    +0.000 A 
ATOM      5  C   UNL     1      46.222   4.113   7.933  0.00  0.00    +0.000 A 
ATOM      6  C   UNL     1      45.426   4.557   8.997  0.00  0.00    +0.000 A 
ATOM      7  C   UNL     1      44.783   3.620   9.795  0.00  0.00    +0.000 A 
ATOM      8  N   UNL     1      43.824   3.924  10.757  0.00  0.00    +0.000 N 
ATOM      9  N   UNL     1      44.957   2.294   9.612  0.00  0.00    +0.000 NA
ATOM     10  C   UNL     1      45.722   1.883   8.574  0.00  0.00    +0.000 A 
ATOM     11  H   UNL     1      43.666   3.061  11.270  0.00  0.00    +0.000 HD
BRANCH   4  13
ATOM     12  N   UNL     1      47.659   1.810   5.665  0.00  0.00    +0.000 NA
ATOM     13  C   UNL     1      47.063   2.229   6.562  0.00  0.00    +0.000 C 
ENDBRANCH   4  13
ENDBRANCH   1   8
BRANCH   1  14
ATOM     14  C   UNL     1      44.883   5.369  12.453  0.00  0.00    +0.000 A 
ATOM     15  C   UNL     1      45.360   4.299  13.225  0.00  0.00    +0.000 A 
ATOM     16  C   UNL     1      46.675   4.286  13.684  0.00  0.00    +0.000 A 
ATOM     17  C   UNL     1      47.522   5.361  13.406  0.00  0.00    +0.000 A 
ATOM     18  C   UNL     1      47.052   6.503  12.740  0.00  0.00    +0.000 A 
ATOM     19  C   UNL     1      45.710   6.501  12.321  0.00  0.00    +0.000 A 
BRANCH  18  20
ATOM     20  C   UNL     1      47.948   7.607  12.350  0.00  0.00    +0.000 A 
ATOM     21  C   UNL     1      49.307   7.389  12.074  0.00  0.00    +0.000 A 
ATOM     22  C   UNL     1      50.119   8.432  11.634  0.00  0.00    +0.000 A 
ATOM     23  C   UNL     1      49.551   9.682  11.474  0.00  0.00    +0.000 A 
ATOM     24  N   UNL     1      48.251   9.948  11.721  0.00  0.00    +0.000 NA
ATOM     25  C   UNL     1      47.491   8.911  12.151  0.00  0.00    +0.000 A 
ENDBRANCH  18  20
ENDBRANCH   1  14
TORSDOF 4
ENDMDL
MODEL 2
REMARK VINA RESULT:    -7.632      2.039      3.386
REMARK INTER + INTRA:         -10.583
REMARK INTER:                  -9.887
REMARK INTRA:                  -0.696
REMARK UNBOUND:                -1.167
REMARK  Name = 
REMARK  4 active torsions:
REMARK  status: ('A' for Active; 'I' for Inactive)
REMARK    1  A    between atoms: C_2  and  C_3
REMARK    2  A    between atoms: N_7  and  C_8
REMARK    3  A    between atoms: C_8  and  C_9
REMARK    4  A    between atoms: C_13  and  C_14
REMARK                            x       y       z     vdW  Elec       q    Type
REMARK                         _______ _______ _______ _____ _____    ______ ____
ROOT
ATOM      1  C   UNL     1      43.989   5.000  11.367  0.00  0.00    +0.000 C 
ATOM      2  C   UNL     1      42.797   4.994  12.302  0.00  0.00    +0.000 C 
ATOM      3  C   UNL     1      42.829   5.947  11.151  0.00  0.00    +0.000 C 
ENDROOT
BRANCH   1   8
ATOM      4  C   UNL     1      46.580   2.695   7.433  0.00  0.00    +0.000 A 
ATOM      5  C   UNL     1      46.397   4.056   7.681  0.00  0.00    +0.000 A 
ATOM      6  C   UNL     1      45.628   4.463   8.779  0.00  0.00    +0.000 A 
ATOM      7  C   UNL     1      45.063   3.497   9.601  0.00  0.00    +0.000 A 
ATOM      8  N   UNL     1      44.133   3.756  10.603  0.00  0.00    +0.000 N 
ATOM      9  N   UNL     1      45.290   2.181   9.408  0.00  0.00    +0.000 NA
ATOM     10  C   UNL     1      46.028   1.806   8.338  0.00  0.00    +0.000 A 
ATOM     11  H   UNL     1      44.036   2.887  11.120  0.00  0.00    +0.000 HD
BRANCH   4  13
ATOM     12  N   UNL     1      47.842   1.823   5.349  0.00  0.00    +0.000 NA
ATOM     13  C   UNL     1      47.265   2.213   6.271  0.00  0.00    +0.000 C 
ENDBRANCH   4  13
ENDBRANCH   1   8
BRANCH   1  14
ATOM     14  C   UNL     1      45.340   5.553  11.787  0.00  0.00    +0.000 A 
ATOM     15  C   UNL     1      45.747   6.828  11.367  0.00  0.00    +0.000 A 
ATOM     16  C   UNL     1      46.688   7.548  12.099  0.00  0.00    +0.000 A 
ATOM     17  C   UNL     1      47.261   6.988  13.243  0.00  0.00    +0.000 A 
ATOM     18  C   UNL     1      46.971   5.671  13.630  0.00  0.00    +0.000 A 
ATOM     19  C   UNL     1      46.044   4.957  12.851  0.00  0.00    +0.000 A 
BRANCH  18  20
ATOM     20  C   UNL     1      47.486   5.091  14.884  0.00  0.00    +0.000 A 
ATOM     21  C   UNL     1      48.310   5.826  15.750  0.00  0.00    +0.000 A 
ATOM     22  C   UNL     1      48.725   5.286  16.966  0.00  0.00    +0.000 A 
ATOM     23  C   UNL     1      48.299   4.012  17.296  0.00  0.00    +0.000 A 
ATOM     24  N   UNL     1      47.504   3.263  16.504  0.00  0.00    +0.000 NA
ATOM     25  C   UNL     1      47.124   3.818  15.328  0.00  0.00    +0.000 A 
ENDBRANCH  18  20
ENDBRANCH   1  14
TORSDOF 4
ENDMDL
MODEL 3
REMARK VINA RESULT:    -6.762      1.541      6.630
REMARK INTER + INTRA:          -9.510
REMARK INTER:                  -8.498
REMARK INTRA:                  -1.011
REMARK UNBOUND:                -1.167
REMARK  Name = 
REMARK  4 active torsions:
REMARK  status: ('A' for Active; 'I' for Inactive)
REMARK    1  A    between atoms: C_2  and  C_3
REMARK    2  A    between atoms: N_7  and  C_8
REMARK    3  A    between atoms: C_8  and  C_9
REMARK    4  A    between atoms: C_13  and  C_14
REMARK                            x       y       z     vdW  Elec       q    Type
REMARK                         _______ _______ _______ _____ _____    ______ ____
ROOT
ATOM      1  C   UNL     1      46.091   4.916  13.437  0.00  0.00    +0.000 C 
ATOM      2  C   UNL     1      46.202   4.137  14.731  0.00  0.00    +0.000 C 
ATOM      3  C   UNL     1      47.289   4.034  13.710  0.00  0.00    +0.000 C 
ENDROOT
BRANCH   1   8
ATOM      4  C   UNL     1      48.260   9.377  11.735  0.00  0.00    +0.000 A 
ATOM      5  C   UNL     1      48.726   8.069  11.595  0.00  0.00    +0.000 A 
ATOM      6  C   UNL     1      48.006   7.012  12.166  0.00  0.00    +0.000 A 
ATOM      7  C   UNL     1      46.837   7.292  12.862  0.00  0.00    +0.000 A 
ATOM      8  N   UNL     1      46.133   6.370  13.630  0.00  0.00    +0.000 N 
ATOM      9  N   UNL     1      46.344   8.546  12.945  0.00  0.00    +0.000 NA
ATOM     10  C   UNL     1      47.058   9.555  12.394  0.00  0.00    +0.000 A 
ATOM     11  H   UNL     1      45.257   6.825  13.873  0.00  0.00    +0.000 HD
BRANCH   4  13
ATOM     12  N   UNL     1      49.606  11.408  10.864  0.00  0.00    +0.000 NA
ATOM     13  C   UNL     1      49.003  10.509  11.266  0.00  0.00    +0.000 C 
ENDBRANCH   4  13
ENDBRANCH   1   8
BRANCH   1  14
ATOM     14  C   UNL     1      45.108   4.529  12.345  0.00  0.00    +0.000 A 
ATOM     15  C   UNL     1      43.885   5.205  12.219  0.00  0.00    +0.000 A 
ATOM     16  C   UNL     1      43.216   5.239  10.998  0.00  0.00    +0.000 A 
ATOM     17  C   UNL     1      43.745   4.567   9.894  0.00  0.00    +0.000 A 
ATOM     18  C   UNL     1      44.902   3.781  10.007  0.00  0.00    +0.000 A 
ATOM     19  C   UNL     1      45.534   3.738  11.262  0.00  0.00    +0.000 A 
BRANCH  18  20
ATOM     20  C   UNL     1      45.532   3.143   8.837  0.00  0.00    +0.000 A 
ATOM     21  C   UNL     1      46.014   3.899   7.757  0.00  0.00    +0.000 A 
ATOM     22  C   UNL     1      46.673   3.282   6.696  0.00  0.00    +0.000 A 
ATOM     23  C   UNL     1      46.844   1.910   6.739  0.00  0.00    +0.000 A 
ATOM     24  N   UNL     1      46.405   1.136   7.753  0.00  0.00    +0.000 NA
ATOM     25  C   UNL     1      45.764   1.768   8.766  0.00  0.00    +0.000 A 
ENDBRANCH  18  20
ENDBRANCH   1  14
TORSDOF 4
ENDMDL
MODEL 4
REMARK VINA RESULT:    -6.354      3.409      7.969
REMARK INTER + INTRA:          -9.007
REMARK INTER:                  -8.108
REMARK INTRA:                  -0.899
REMARK UNBOUND:                -1.167
REMARK  Name = 
REMARK  4 active torsions:
REMARK  status: ('A' for Active; 'I' for Inactive)
REMARK    1  A    between atoms: C_2  and  C_3
REMARK    2  A    between atoms: N_7  and  C_8
REMARK    3  A    between atoms: C_8  and  C_9
REMARK    4  A    between atoms: C_13  and  C_14
REMARK                            x       y       z     vdW  Elec       q    Type
REMARK                         _______ _______ _______ _____ _____    ______ ____
ROOT
ATOM      1  C   UNL     1      48.777   7.705  12.602  0.00  0.00    +0.000 C 
ATOM      2  C   UNL     1      49.674   7.776  11.383  0.00  0.00    +0.000 C 
ATOM      3  C   UNL     1      49.374   9.021  12.155  0.00  0.00    +0.000 C 
ENDROOT
BRANCH   1   8
ATOM      4  C   UNL     1      49.006   7.212  17.818  0.00  0.00    +0.000 A 
ATOM      5  C   UNL     1      48.662   8.332  17.059  0.00  0.00    +0.000 A 
ATOM      6  C   UNL     1      48.705   8.261  15.661  0.00  0.00    +0.000 A 
ATOM      7  C   UNL     1      49.088   7.071  15.058  0.00  0.00    +0.000 A 
ATOM      8  N   UNL     1      49.352   6.920  13.700  0.00  0.00    +0.000 N 
ATOM      9  N   UNL     1      49.357   5.963  15.782  0.00  0.00    +0.000 NA
ATOM     10  C   UNL     1      49.320   6.053  17.131  0.00  0.00    +0.000 A 
ATOM     11  H   UNL     1      49.449   5.920  13.547  0.00  0.00    +0.000 HD
BRANCH   4  13
ATOM     12  N   UNL     1      49.157   7.253  20.401  0.00  0.00    +0.000 NA
ATOM     13  C   UNL     1      49.085   7.250  19.248  0.00  0.00    +0.000 C 
ENDBRANCH   4  13
ENDBRANCH   1   8
BRANCH   1  14
ATOM     14  C   UNL     1      47.279   7.484  12.487  0.00  0.00    +0.000 A 
ATOM     15  C   UNL     1      46.387   8.549  12.685  0.00  0.00    +0.000 A 
ATOM     16  C   UNL     1      45.115   8.522  12.118  0.00  0.00    +0.000 A 
ATOM     17  C   UNL     1      44.704   7.414  11.375  0.00  0.00    +0.000 A 
ATOM     18  C   UNL     1      45.520   6.279  11.253  0.00  0.00    +0.000 A 
ATOM     19  C   UNL     1      46.784   6.321  11.866  0.00  0.00    +0.000 A 
BRANCH  18  20
ATOM     20  C   UNL     1      45.151   5.138  10.395  0.00  0.00    +0.000 A 
ATOM     21  C   UNL     1      45.671   4.994   9.099  0.00  0.00    +0.000 A 
ATOM     22  C   UNL     1      45.368   3.870   8.332  0.00  0.00    +0.000 A 
ATOM     23  C   UNL     1      44.548   2.903   8.883  0.00  0.00    +0.000 A 
ATOM     24  N   UNL     1      44.024   2.987  10.124  0.00  0.00    +0.000 NA
ATOM     25  C   UNL     1      44.336   4.096  10.839  0.00  0.00    +0.000 A 
ENDBRANCH  18  20
ENDBRANCH   1  14
TORSDOF 4
ENDMDL
MODEL 5
REMARK VINA RESULT:    -5.583      3.464      6.361
REMARK INTER + INTRA:          -8.056
REMARK INTER:                  -7.047
REMARK INTRA:                  -1.009
REMARK UNBOUND:                -1.167
REMARK  Name = 
REMARK  4 active torsions:
REMARK  status: ('A' for Active; 'I' for Inactive)
REMARK    1  A    between atoms: C_2  and  C_3
REMARK    2  A    between atoms: N_7  and  C_8
REMARK    3  A    between atoms: C_8  and  C_9
REMARK    4  A    between atoms: C_13  and  C_14
REMARK                            x       y       z     vdW  Elec       q    Type
REMARK                         _______ _______ _______ _____ _____    ______ ____
ROOT
ATOM      1  C   UNL     1      48.669   8.426  12.905  0.00  0.00    +0.000 C 
ATOM      2  C   UNL     1      49.282   9.507  12.038  0.00  0.00    +0.000 C 
ATOM      3  C   UNL     1      49.789   8.104  11.940  0.00  0.00    +0.000 C 
ENDROOT
BRANCH   1   8
ATOM      4  C   UNL     1      44.959   4.721  12.826  0.00  0.00    +0.000 A 
ATOM      5  C   UNL     1      46.347   4.570  12.824  0.00  0.00    +0.000 A 
ATOM      6  C   UNL     1      47.167   5.705  12.806  0.00  0.00    +0.000 A 
ATOM      7  C   UNL     1      46.578   6.962  12.793  0.00  0.00    +0.000 A 
ATOM      8  N   UNL     1      47.263   8.156  12.587  0.00  0.00    +0.000 N 
ATOM      9  N   UNL     1      45.239   7.119  12.863  0.00  0.00    +0.000 NA
ATOM     10  C   UNL     1      44.462   6.011  12.870  0.00  0.00    +0.000 A 
ATOM     11  H   UNL     1      46.596   8.895  12.791  0.00  0.00    +0.000 HD
BRANCH   4  13
ATOM     12  N   UNL     1      43.358   2.697  12.641  0.00  0.00    +0.000 NA
ATOM     13  C   UNL     1      44.066   3.604  12.738  0.00  0.00    +0.000 C 
ENDBRANCH   4  13
ENDBRANCH   1   8
BRANCH   1  14
ATOM     14  C   UNL     1      48.924   8.354  14.401  0.00  0.00    +0.000 A 
ATOM     15  C   UNL     1      48.502   9.393  15.244  0.00  0.00    +0.000 A 
ATOM     16  C   UNL     1      48.262   9.155  16.595  0.00  0.00    +0.000 A 
ATOM     17  C   UNL     1      48.474   7.883  17.129  0.00  0.00    +0.000 A 
ATOM     18  C   UNL     1      49.009   6.847  16.348  0.00  0.00    +0.000 A 
ATOM     19  C   UNL     1      49.275   7.127  14.997  0.00  0.00    +0.000 A 
BRANCH  18  20
ATOM     20  C   UNL     1      49.150   5.472  16.861  0.00  0.00    +0.000 A 
ATOM     21  C   UNL     1      48.093   4.550  16.797  0.00  0.00    +0.000 A 
ATOM     22  C   UNL     1      48.271   3.234  17.219  0.00  0.00    +0.000 A 
ATOM     23  C   UNL     1      49.514   2.862  17.697  0.00  0.00    +0.000 A 
ATOM     24  N   UNL     1      50.565   3.704  17.777  0.00  0.00    +0.000 NA
ATOM     25  C   UNL     1      50.355   4.977  17.362  0.00  0.00    +0.000 A 
ENDBRANCH  18  20
ENDBRANCH   1  14
TORSDOF 4
ENDMDL
MODEL 6
REMARK VINA RESULT:    -5.485      3.246      6.473
REMARK INTER + INTRA:          -7.934
REMARK INTER:                  -6.862
REMARK INTRA:                  -1.072
REMARK UNBOUND:                -1.167
REMARK  Name = 
REMARK  4 active torsions:
REMARK  status: ('A' for Active; 'I' for Inactive)
REMARK    1  A    between atoms: C_2  and  C_3
REMARK    2  A    between atoms: N_7  and  C_8
REMARK    3  A    between atoms: C_8  and  C_9
REMARK    4  A    between atoms: C_13  and  C_14
REMARK                            x       y       z     vdW  Elec       q    Type
REMARK                         _______ _______ _______ _____ _____    ______ ____
ROOT
ATOM      1  C   UNL     1      49.471   8.524  12.571  0.00  0.00    +0.000 C 
ATOM      2  C   UNL     1      50.560   9.270  11.828  0.00  0.00    +0.000 C 
ATOM      3  C   UNL     1      50.477   7.781  11.720  0.00  0.00    +0.000 C 
ENDROOT
BRANCH   1   8
ATOM      4  C   UNL     1      44.690   6.545  11.715  0.00  0.00    +0.000 A 
ATOM      5  C   UNL     1      45.908   5.872  11.831  0.00  0.00    +0.000 A 
ATOM      6  C   UNL     1      47.087   6.603  12.021  0.00  0.00    +0.000 A 
ATOM      7  C   UNL     1      47.018   7.988  12.091  0.00  0.00    +0.000 A 
ATOM      8  N   UNL     1      48.121   8.837  12.088  0.00  0.00    +0.000 N 
ATOM      9  N   UNL     1      45.838   8.642  12.047  0.00  0.00    +0.000 NA
ATOM     10  C   UNL     1      44.710   7.921  11.854  0.00  0.00    +0.000 A 
ATOM     11  H   UNL     1      47.758   9.761  12.307  0.00  0.00    +0.000 HD
BRANCH   4  13
ATOM     12  N   UNL     1      42.472   5.315  11.201  0.00  0.00    +0.000 NA
ATOM     13  C   UNL     1      43.465   5.865  11.415  0.00  0.00    +0.000 C 
ENDBRANCH   4  13
ENDBRANCH   1   8
BRANCH   1  14
ATOM     14  C   UNL     1      49.495   8.357  14.080  0.00  0.00    +0.000 A 
ATOM     15  C   UNL     1      49.228   9.449  14.920  0.00  0.00    +0.000 A 
ATOM     16  C   UNL     1      48.757   9.248  16.215  0.00  0.00    +0.000 A 
ATOM     17  C   UNL     1      48.580   7.951  16.701  0.00  0.00    +0.000 A 
ATOM     18  C   UNL     1      48.949   6.833  15.937  0.00  0.00    +0.000 A 
ATOM     19  C   UNL     1      49.455   7.069  14.647  0.00  0.00    +0.000 A 
BRANCH  18  20
ATOM     20  C   UNL     1      48.682   5.454  16.387  0.00  0.00    +0.000 A 
ATOM     21  C   UNL     1      49.492   4.823  17.344  0.00  0.00    +0.000 A 
ATOM     22  C   UNL     1      49.179   3.548  17.810  0.00  0.00    +0.000 A 
ATOM     23  C   UNL     1      48.050   2.925  17.309  0.00  0.00    +0.000 A 
ATOM     24  N   UNL     1      47.235   3.486  16.392  0.00  0.00    +0.000 NA
ATOM     25  C   UNL     1      47.572   4.725  15.958  0.00  0.00    +0.000 A 
ENDBRANCH  18  20
ENDBRANCH   1  14
TORSDOF 4
ENDMDL
MODEL 7
REMARK VINA RESULT:    -5.444      1.797      6.724
REMARK INTER + INTRA:          -7.884
REMARK INTER:                  -7.072
REMARK INTRA:                  -0.813
REMARK UNBOUND:                -1.167
REMARK  Name = 
REMARK  4 active torsions:
REMARK  status: ('A' for Active; 'I' for Inactive)
REMARK    1  A    between atoms: C_2  and  C_3
REMARK    2  A    between atoms: N_7  and  C_8
REMARK    3  A    between atoms: C_8  and  C_9
REMARK    4  A    between atoms: C_13  and  C_14
REMARK                            x       y       z     vdW  Elec       q    Type
REMARK                         _______ _______ _______ _____ _____    ______ ____
ROOT
ATOM      1  C   UNL     1      47.057   5.241  14.338  0.00  0.00    +0.000 C 
ATOM      2  C   UNL     1      46.783   4.393  15.563  0.00  0.00    +0.000 C 
ATOM      3  C   UNL     1      47.595   3.832  14.440  0.00  0.00    +0.000 C 
ENDROOT
BRANCH   1   8
ATOM      4  C   UNL     1      50.183   8.861  12.187  0.00  0.00    +0.000 A 
ATOM      5  C   UNL     1      49.829   7.605  11.692  0.00  0.00    +0.000 A 
ATOM      6  C   UNL     1      49.004   6.768  12.453  0.00  0.00    +0.000 A 
ATOM      7  C   UNL     1      48.552   7.210  13.690  0.00  0.00    +0.000 A 
ATOM      8  N   UNL     1      47.889   6.416  14.621  0.00  0.00    +0.000 N 
ATOM      9  N   UNL     1      48.834   8.449  14.146  0.00  0.00    +0.000 NA
ATOM     10  C   UNL     1      49.639   9.240  13.401  0.00  0.00    +0.000 A 
ATOM     11  H   UNL     1      47.554   7.054  15.338  0.00  0.00    +0.000 HD
BRANCH   4  13
ATOM     12  N   UNL     1      51.871  10.406  10.978  0.00  0.00    +0.000 NA
ATOM     13  C   UNL     1      51.106   9.721  11.508  0.00  0.00    +0.000 C 
ENDBRANCH   4  13
ENDBRANCH   1   8
BRANCH   1  14
ATOM     14  C   UNL     1      45.975   5.560  13.321  0.00  0.00    +0.000 A 
ATOM     15  C   UNL     1      45.465   6.863  13.211  0.00  0.00    +0.000 A 
ATOM     16  C   UNL     1      44.883   7.297  12.023  0.00  0.00    +0.000 A 
ATOM     17  C   UNL     1      44.770   6.424  10.939  0.00  0.00    +0.000 A 
ATOM     18  C   UNL     1      45.158   5.079  11.047  0.00  0.00    +0.000 A 
ATOM     19  C   UNL     1      45.709   4.661  12.270  0.00  0.00    +0.000 A 
BRANCH  18  20
ATOM     20  C   UNL     1      45.141   4.164   9.891  0.00  0.00    +0.000 A 
ATOM     21  C   UNL     1      45.692   4.531   8.653  0.00  0.00    +0.000 A 
ATOM     22  C   UNL     1      45.732   3.625   7.596  0.00  0.00    +0.000 A 
ATOM     23  C   UNL     1      45.219   2.357   7.801  0.00  0.00    +0.000 A 
ATOM     24  N   UNL     1      44.682   1.949   8.969  0.00  0.00    +0.000 NA
ATOM     25  C   UNL     1      44.655   2.858   9.974  0.00  0.00    +0.000 A 
ENDBRANCH  18  20
ENDBRANCH   1  14
TORSDOF 4
ENDMDL
MODEL 8
REMARK VINA RESULT:    -5.289      4.064      7.070
REMARK INTER + INTRA:          -7.692
REMARK INTER:                  -6.679
REMARK INTRA:                  -1.013
REMARK UNBOUND:                -1.167
REMARK  Name = 
REMARK  4 active torsions:
REMARK  status: ('A' for Active; 'I' for Inactive)
REMARK    1  A    between atoms: C_2  and  C_3
REMARK    2  A    between atoms: N_7  and  C_8
REMARK    3  A    between atoms: C_8  and  C_9
REMARK    4  A    between atoms: C_13  and  C_14
REMARK                            x       y       z     vdW  Elec       q    Type
REMARK                         _______ _______ _______ _____ _____    ______ ____
ROOT
ATOM      1  C   UNL     1      49.092   9.642  15.244  0.00  0.00    +0.000 C 
ATOM      2  C   UNL     1      49.808  10.975  15.163  0.00  0.00    +0.000 C 
ATOM      3  C   UNL     1      50.469   9.747  14.625  0.00  0.00    +0.000 C 
ENDROOT
BRANCH   1   8
ATOM      4  C   UNL     1      46.343   6.700  11.885  0.00  0.00    +0.000 A 
ATOM      5  C   UNL     1      47.700   6.628  12.203  0.00  0.00    +0.000 A 
ATOM      6  C   UNL     1      48.249   7.546  13.107  0.00  0.00    +0.000 A 
ATOM      7  C   UNL     1      47.426   8.511  13.671  0.00  0.00    +0.000 A 
ATOM      8  N   UNL     1      47.873   9.589  14.430  0.00  0.00    +0.000 N 
ATOM      9  N   UNL     1      46.099   8.546  13.421  0.00  0.00    +0.000 NA
ATOM     10  C   UNL     1      45.588   7.657  12.539  0.00  0.00    +0.000 A 
ATOM     11  H   UNL     1      47.039  10.013  14.825  0.00  0.00    +0.000 HD
BRANCH   4  13
ATOM     12  N   UNL     1      45.261   5.205  10.071  0.00  0.00    +0.000 NA
ATOM     13  C   UNL     1      45.743   5.860  10.891  0.00  0.00    +0.000 C 
ENDBRANCH   4  13
ENDBRANCH   1   8
BRANCH   1  14
ATOM     14  C   UNL     1      48.915   8.903  16.559  0.00  0.00    +0.000 A 
ATOM     15  C   UNL     1      48.125   9.451  17.581  0.00  0.00    +0.000 A 
ATOM     16  C   UNL     1      47.544   8.630  18.544  0.00  0.00    +0.000 A 
ATOM     17  C   UNL     1      47.774   7.253  18.520  0.00  0.00    +0.000 A 
ATOM     18  C   UNL     1      48.652   6.680  17.588  0.00  0.00    +0.000 A 
ATOM     19  C   UNL     1      49.252   7.539  16.650  0.00  0.00    +0.000 A 
BRANCH  18  20
ATOM     20  C   UNL     1      48.835   5.221  17.479  0.00  0.00    +0.000 A 
ATOM     21  C   UNL     1      47.741   4.346  17.389  0.00  0.00    +0.000 A 
ATOM     22  C   UNL     1      47.937   2.978  17.212  0.00  0.00    +0.000 A 
ATOM     23  C   UNL     1      49.235   2.508  17.122  0.00  0.00    +0.000 A 
ATOM     24  N   UNL     1      50.322   3.303  17.197  0.00  0.00    +0.000 NA
ATOM     25  C   UNL     1      50.094   4.628  17.375  0.00  0.00    +0.000 A 
ENDBRANCH  18  20
ENDBRANCH   1  14
TORSDOF 4
ENDMDL
MODEL 9
REMARK VINA RESULT:    -5.025      2.132      7.071
REMARK INTER + INTRA:          -7.366
REMARK INTER:                  -6.701
REMARK INTRA:                  -0.665
REMARK UNBOUND:                -1.167
REMARK  Name = 
REMARK  4 active torsions:
REMARK  status: ('A' for Active; 'I' for Inactive)
REMARK    1  A    between atoms: C_2  and  C_3
REMARK    2  A    between atoms: N_7  and  C_8
REMARK    3  A    between atoms: C_8  and  C_9
REMARK    4  A    between atoms: C_13  and  C_14
REMARK                            x       y       z     vdW  Elec       q    Type
REMARK                         _______ _______ _______ _____ _____    ______ ____
ROOT
ATOM      1  C   UNL     1      48.142   7.884  13.595  0.00  0.00    +0.000 C 
ATOM      2  C   UNL     1      48.478   7.532  15.030  0.00  0.00    +0.000 C 
ATOM      3  C   UNL     1      48.863   6.597  13.929  0.00  0.00    +0.000 C 
ENDROOT
BRANCH   1   8
ATOM      4  C   UNL     1      51.834   9.574  10.277  0.00  0.00    +0.000 A 
ATOM      5  C   UNL     1      51.645   8.292  10.795  0.00  0.00    +0.000 A 
ATOM      6  C   UNL     1      50.609   8.061  11.710  0.00  0.00    +0.000 A 
ATOM      7  C   UNL     1      49.788   9.118  12.080  0.00  0.00    +0.000 A 
ATOM      8  N   UNL     1      48.853   9.072  13.109  0.00  0.00    +0.000 N 
ATOM      9  N   UNL     1      49.922  10.345  11.533  0.00  0.00    +0.000 NA
ATOM     10  C   UNL     1      50.933  10.552  10.658  0.00  0.00    +0.000 A 
ATOM     11  H   UNL     1      48.312   9.928  13.028  0.00  0.00    +0.000 HD
BRANCH   4  13
ATOM     12  N   UNL     1      53.807  10.166   8.710  0.00  0.00    +0.000 NA
ATOM     13  C   UNL     1      52.937   9.899   9.421  0.00  0.00    +0.000 C 
ENDBRANCH   4  13
ENDBRANCH   1   8
BRANCH   1  14
ATOM     14  C   UNL     1      46.720   7.832  13.066  0.00  0.00    +0.000 A 
ATOM     15  C   UNL     1      45.997   9.016  12.855  0.00  0.00    +0.000 A 
ATOM     16  C   UNL     1      44.946   9.051  11.942  0.00  0.00    +0.000 A 
ATOM     17  C   UNL     1      44.580   7.893  11.253  0.00  0.00    +0.000 A 
ATOM     18  C   UNL     1      45.197   6.662  11.522  0.00  0.00    +0.000 A 
ATOM     19  C   UNL     1      46.230   6.652  12.475  0.00  0.00    +0.000 A 
BRANCH  18  20
ATOM     20  C   UNL     1      44.897   5.448  10.741  0.00  0.00    +0.000 A 
ATOM     21  C   UNL     1      45.548   5.174   9.528  0.00  0.00    +0.000 A 
ATOM     22  C   UNL     1      45.304   3.985   8.844  0.00  0.00    +0.000 A 
ATOM     23  C   UNL     1      44.410   3.084   9.393  0.00  0.00    +0.000 A 
ATOM     24  N   UNL     1      43.759   3.294  10.556  0.00  0.00    +0.000 NA
ATOM     25  C   UNL     1      44.017   4.463  11.193  0.00  0.00    +0.000 A 
ENDBRANCH  18  20
ENDBRANCH   1  14
TORSDOF 4
ENDMDL
