MODEL 1
REMARK VINA RESULT:    -8.385      0.000      0.000
REMARK INTER + INTRA:         -11.605
REMARK INTER:                 -10.836
REMARK INTRA:                  -0.770
REMARK UNBOUND:                -0.770
REMARK  Name = 
REMARK  5 active torsions:
REMARK  status: ('A' for Active; 'I' for Inactive)
REMARK    1  A    between atoms: C_2  and  C_4
REMARK    2  A    between atoms: C_7  and  C_8
REMARK    3  A    between atoms: C_8  and  S_9
REMARK    4  A    between atoms: S_9  and  C_10
REMARK    5  A    between atoms: C_14  and  C_15
REMARK                            x       y       z     vdW  Elec       q    Type
REMARK                         _______ _______ _______ _____ _____    ______ ____
ROOT
ATOM      1  S   UNL     1      44.229   3.395  12.253  0.00  0.00    +0.000 S 
ENDROOT
BRANCH   1   2
ATOM      2  C   UNL     1      45.541   4.521  12.697  0.00  0.00    +0.000 A 
ATOM      3  C   UNL     1      46.525   4.025  13.552  0.00  0.00    +0.000 A 
ATOM      4  N   UNL     1      47.588   4.729  14.000  0.00  0.00    +0.000 NA
ATOM      5  C   UNL     1      47.680   6.010  13.581  0.00  0.00    +0.000 A 
ATOM      6  C   UNL     1      46.763   6.647  12.740  0.00  0.00    +0.000 A 
ATOM      7  C   UNL     1      45.680   5.856  12.296  0.00  0.00    +0.000 A 
BRANCH   6   8
ATOM      8  C   UNL     1      46.926   8.068  12.362  0.00  0.00    +0.000 A 
ATOM      9  C   UNL     1      48.169   8.624  12.028  0.00  0.00    +0.000 A 
ATOM     10  C   UNL     1      48.277   9.969  11.668  0.00  0.00    +0.000 A 
ATOM     11  C   UNL     1      47.132  10.744  11.659  0.00  0.00    +0.000 A 
ATOM     12  N   UNL     1      45.913  10.267  11.977  0.00  0.00    +0.000 NA
ATOM     13  C   UNL     1      45.843   8.955  12.313  0.00  0.00    +0.000 A 
ENDBRANCH   6   8
ENDBRANCH   1   2
BRANCH   1  14
ATOM     14  C   UNL     1      43.654   3.953  10.615  0.00  0.00    +0.000 C 
BRANCH  14  18
ATOM     15  C   UNL     1      46.470   2.705   7.561  0.00  0.00    +0.000 A 
ATOM     16  C   UNL     1      45.837   1.753   8.368  0.00  0.00    +0.000 A 
ATOM     17  C   UNL     1      44.920   2.157   9.347  0.00  0.00    +0.000 A 
ATOM     18  C   UNL     1      44.620   3.516   9.533  0.00  0.00    +0.000 A 
ATOM     19  C   UNL     1      45.273   4.464   8.731  0.00  0.00    +0.000 A 
ATOM     20  C   UNL     1      46.193   4.062   7.757  0.00  0.00    +0.000 A 
BRANCH  15  22
ATOM     21  N   UNL     1      47.436   3.021   5.344  0.00  0.00    +0.000 N 
ATOM     22  C   UNL     1      47.464   2.328   6.522  0.00  0.00    +0.000 C 
ATOM     23  O   UNL     1      48.306   1.460   6.718  0.00  0.00    +0.000 OA
ATOM     24  H   UNL     1      48.187   2.824   4.693  0.00  0.00    +0.000 HD
ATOM     25  H   UNL     1      46.943   3.894   5.238  0.00  0.00    +0.000 HD
ENDBRANCH  15  22
ENDBRANCH  14  18
ENDBRANCH   1  14
TORSDOF 5
ENDMDL
MODEL 2
REMARK VINA RESULT:    -8.304      1.823      2.269
REMARK INTER + INTRA:         -11.501
REMARK INTER:                 -10.789
REMARK INTRA:                  -0.713
REMARK UNBOUND:                -0.770
REMARK  Name = 
REMARK  5 active torsions:
REMARK  status: ('A' for Active; 'I' for Inactive)
REMARK    1  A    between atoms: C_2  and  C_4
REMARK    2  A    between atoms: C_7  and  C_8
REMARK    3  A    between atoms: C_8  and  S_9
REMARK    4  A    between atoms: S_9  and  C_10
REMARK    5  A    between atoms: C_14  and  C_15
REMARK                            x       y       z     vdW  Elec       q    Type
REMARK                         _______ _______ _______ _____ _____    ______ ____
ROOT
ATOM      1  S   UNL     1      43.750   5.488  11.147  0.00  0.00    +0.000 S 
ENDROOT
BRANCH   1   2
ATOM      2  C   UNL     1      45.200   5.464  12.189  0.00  0.00    +0.000 A 
ATOM      3  C   UNL     1      45.185   4.566  13.256  0.00  0.00    +0.000 A 
ATOM      4  N   UNL     1      46.186   4.412  14.151  0.00  0.00    +0.000 NA
ATOM      5  C   UNL     1      47.270   5.200  13.983  0.00  0.00    +0.000 A 
ATOM      6  C   UNL     1      47.419   6.154  12.971  0.00  0.00    +0.000 A 
ATOM      7  C   UNL     1      46.344   6.261  12.061  0.00  0.00    +0.000 A 
BRANCH   6   8
ATOM      8  C   UNL     1      48.630   7.001  12.887  0.00  0.00    +0.000 A 
ATOM      9  C   UNL     1      49.110   7.515  11.675  0.00  0.00    +0.000 A 
ATOM     10  C   UNL     1      50.252   8.319  11.642  0.00  0.00    +0.000 A 
ATOM     11  C   UNL     1      50.905   8.587  12.831  0.00  0.00    +0.000 A 
ATOM     12  N   UNL     1      50.495   8.115  14.023  0.00  0.00    +0.000 NA
ATOM     13  C   UNL     1      49.378   7.345  14.020  0.00  0.00    +0.000 A 
ENDBRANCH   6   8
ENDBRANCH   1   2
BRANCH   1  14
ATOM     14  C   UNL     1      43.537   3.767  10.585  0.00  0.00    +0.000 C 
BRANCH  14  18
ATOM     15  C   UNL     1      46.486   2.738   7.575  0.00  0.00    +0.000 A 
ATOM     16  C   UNL     1      46.111   4.072   7.767  0.00  0.00    +0.000 A 
ATOM     17  C   UNL     1      45.166   4.404   8.747  0.00  0.00    +0.000 A 
ATOM     18  C   UNL     1      44.584   3.410   9.550  0.00  0.00    +0.000 A 
ATOM     19  C   UNL     1      44.954   2.073   9.338  0.00  0.00    +0.000 A 
ATOM     20  C   UNL     1      45.894   1.740   8.356  0.00  0.00    +0.000 A 
BRANCH  15  22
ATOM     21  N   UNL     1      47.471   3.033   5.363  0.00  0.00    +0.000 N 
ATOM     22  C   UNL     1      47.470   2.333   6.537  0.00  0.00    +0.000 C 
ATOM     23  O   UNL     1      48.281   1.435   6.732  0.00  0.00    +0.000 OA
ATOM     24  H   UNL     1      48.217   2.813   4.714  0.00  0.00    +0.000 HD
ATOM     25  H   UNL     1      47.009   3.923   5.260  0.00  0.00    +0.000 HD
ENDBRANCH  15  22
ENDBRANCH  14  18
ENDBRANCH   1  14
TORSDOF 5
ENDMDL
MODEL 3
REMARK VINA RESULT:    -7.824      1.907      3.948
REMARK INTER + INTRA:         -10.881
REMARK INTER:                 -10.331
REMARK INTRA:                  -0.550
REMARK UNBOUND:                -0.770
REMARK  Name = 
REMARK  5 active torsions:
REMARK  status: ('A' for Active; 'I' for Inactive)
REMARK    1  A    between atoms: C_2  and  C_4
REMARK    2  A    between atoms: C_7  and  C_8
REMARK    3  A    between atoms: C_8  and  S_9
REMARK    4  A    between atoms: S_9  and  C_10
REMARK    5  A    between atoms: C_14  and  C_15
REMARK                            x       y       z     vdW  Elec       q    Type
REMARK                         _______ _______ _______ _____ _____    ______ ____
ROOT
ATOM      1  S   UNL     1      43.937   5.696  11.143  0.00  0.00    +0.000 S 
ENDROOT
BRANCH   1   2
ATOM      2  C   UNL     1      45.480   5.883  12.022  0.00  0.00    +0.000 A 
ATOM      3  C   UNL     1      46.461   6.656  11.401  0.00  0.00    +0.000 A 
ATOM      4  N   UNL     1      47.689   6.903  11.910  0.00  0.00    +0.000 NA
ATOM      5  C   UNL     1      47.967   6.344  13.107  0.00  0.00    +0.000 A 
ATOM      6  C   UNL     1      47.091   5.534  13.837  0.00  0.00    +0.000 A 
ATOM      7  C   UNL     1      45.820   5.322  13.260  0.00  0.00    +0.000 A 
BRANCH   6   8
ATOM      8  C   UNL     1      47.497   4.933  15.127  0.00  0.00    +0.000 A 
ATOM      9  C   UNL     1      48.278   5.618  16.069  0.00  0.00    +0.000 A 
ATOM     10  C   UNL     1      48.630   5.016  17.278  0.00  0.00    +0.000 A 
ATOM     11  C   UNL     1      48.202   3.724  17.523  0.00  0.00    +0.000 A 
ATOM     12  N   UNL     1      47.457   3.015  16.654  0.00  0.00    +0.000 NA
ATOM     13  C   UNL     1      47.125   3.633  15.492  0.00  0.00    +0.000 A 
ENDBRANCH   6   8
ENDBRANCH   1   2
BRANCH   1  14
ATOM     14  C   UNL     1      43.792   3.910  10.807  0.00  0.00    +0.000 C 
BRANCH  14  18
ATOM     15  C   UNL     1      46.436   2.724   7.578  0.00  0.00    +0.000 A 
ATOM     16  C   UNL     1      46.128   4.075   7.778  0.00  0.00    +0.000 A 
ATOM     17  C   UNL     1      45.282   4.457   8.828  0.00  0.00    +0.000 A 
ATOM     18  C   UNL     1      44.734   3.498   9.694  0.00  0.00    +0.000 A 
ATOM     19  C   UNL     1      45.034   2.145   9.475  0.00  0.00    +0.000 A 
ATOM     20  C   UNL     1      45.874   1.761   8.424  0.00  0.00    +0.000 A 
BRANCH  15  22
ATOM     21  N   UNL     1      47.291   2.991   5.310  0.00  0.00    +0.000 N 
ATOM     22  C   UNL     1      47.312   2.267   6.469  0.00  0.00    +0.000 C 
ATOM     23  O   UNL     1      48.059   1.303   6.592  0.00  0.00    +0.000 OA
ATOM     24  H   UNL     1      47.972   2.728   4.607  0.00  0.00    +0.000 HD
ATOM     25  H   UNL     1      46.896   3.917   5.254  0.00  0.00    +0.000 HD
ENDBRANCH  15  22
ENDBRANCH  14  18
ENDBRANCH   1  14
TORSDOF 5
ENDMDL
MODEL 4
REMARK VINA RESULT:    -7.580      3.318      7.496
REMARK INTER + INTRA:         -10.566
REMARK INTER:                 -10.165
REMARK INTRA:                  -0.400
REMARK UNBOUND:                -0.770
REMARK  Name = 
REMARK  5 active torsions:
REMARK  status: ('A' for Active; 'I' for Inactive)
REMARK    1  A    between atoms: C_2  and  C_4
REMARK    2  A    between atoms: C_7  and  C_8
REMARK    3  A    between atoms: C_8  and  S_9
REMARK    4  A    between atoms: S_9  and  C_10
REMARK    5  A    between atoms: C_14  and  C_15
REMARK                            x       y       z     vdW  Elec       q    Type
REMARK                         _______ _______ _______ _____ _____    ______ ____
ROOT
ATOM      1  S   UNL     1      44.698   6.703  11.511  0.00  0.00    +0.000 S 
ENDROOT
BRANCH   1   2
ATOM      2  C   UNL     1      44.589   5.103  10.726  0.00  0.00    +0.000 A 
ATOM      3  C   UNL     1      43.661   4.209  11.260  0.00  0.00    +0.000 A 
ATOM      4  N   UNL     1      43.443   2.956  10.805  0.00  0.00    +0.000 NA
ATOM      5  C   UNL     1      44.196   2.558   9.756  0.00  0.00    +0.000 A 
ATOM      6  C   UNL     1      45.173   3.337   9.129  0.00  0.00    +0.000 A 
ATOM      7  C   UNL     1      45.348   4.641   9.643  0.00  0.00    +0.000 A 
BRANCH   6   8
ATOM      8  C   UNL     1      45.977   2.803   8.007  0.00  0.00    +0.000 A 
ATOM      9  C   UNL     1      46.275   3.557   6.864  0.00  0.00    +0.000 A 
ATOM     10  C   UNL     1      47.045   3.017   5.832  0.00  0.00    +0.000 A 
ATOM     11  C   UNL     1      47.499   1.717   5.958  0.00  0.00    +0.000 A 
ATOM     12  N   UNL     1      47.238   0.942   7.027  0.00  0.00    +0.000 NA
ATOM     13  C   UNL     1      46.494   1.501   8.015  0.00  0.00    +0.000 A 
ENDBRANCH   6   8
ENDBRANCH   1   2
BRANCH   1  14
ATOM     14  C   UNL     1      46.480   6.984  11.778  0.00  0.00    +0.000 C 
BRANCH  14  18
ATOM     15  C   UNL     1      47.755   5.077  15.460  0.00  0.00    +0.000 A 
ATOM     16  C   UNL     1      46.792   4.468  14.647  0.00  0.00    +0.000 A 
ATOM     17  C   UNL     1      46.389   5.081  13.453  0.00  0.00    +0.000 A 
ATOM     18  C   UNL     1      46.943   6.307  13.052  0.00  0.00    +0.000 A 
ATOM     19  C   UNL     1      47.895   6.917  13.881  0.00  0.00    +0.000 A 
ATOM     20  C   UNL     1      48.295   6.310  15.077  0.00  0.00    +0.000 A 
BRANCH  15  22
ATOM     21  N   UNL     1      47.404   4.663  17.838  0.00  0.00    +0.000 N 
ATOM     22  C   UNL     1      48.203   4.478  16.744  0.00  0.00    +0.000 C 
ATOM     23  O   UNL     1      49.225   3.807  16.821  0.00  0.00    +0.000 OA
ATOM     24  H   UNL     1      47.670   4.158  18.674  0.00  0.00    +0.000 HD
ATOM     25  H   UNL     1      46.449   4.979  17.766  0.00  0.00    +0.000 HD
ENDBRANCH  15  22
ENDBRANCH  14  18
ENDBRANCH   1  14
TORSDOF 5
ENDMDL
MODEL 5
REMARK VINA RESULT:    -6.555      2.888      7.257
REMARK INTER + INTRA:          -9.241
REMARK INTER:                  -8.673
REMARK INTRA:                  -0.568
REMARK UNBOUND:                -0.770
REMARK  Name = 
REMARK  5 active torsions:
REMARK  status: ('A' for Active; 'I' for Inactive)
REMARK    1  A    between atoms: C_2  and  C_4
REMARK    2  A    between atoms: C_7  and  C_8
REMARK    3  A    between atoms: C_8  and  S_9
REMARK    4  A    between atoms: S_9  and  C_10
REMARK    5  A    between atoms: C_14  and  C_15
REMARK                            x       y       z     vdW  Elec       q    Type
REMARK                         _______ _______ _______ _____ _____    ______ ____
ROOT
ATOM      1  S   UNL     1      45.077   5.473  13.241  0.00  0.00    +0.000 S 
ENDROOT
BRANCH   1   2
ATOM      2  C   UNL     1      44.702   4.261  11.984  0.00  0.00    +0.000 A 
ATOM      3  C   UNL     1      43.614   3.425  12.231  0.00  0.00    +0.000 A 
ATOM      4  N   UNL     1      43.185   2.448  11.401  0.00  0.00    +0.000 NA
ATOM      5  C   UNL     1      43.882   2.284  10.255  0.00  0.00    +0.000 A 
ATOM      6  C   UNL     1      45.000   3.035   9.882  0.00  0.00    +0.000 A 
ATOM      7  C   UNL     1      45.393   4.048  10.785  0.00  0.00    +0.000 A 
BRANCH   6   8
ATOM      8  C   UNL     1      45.724   2.759   8.621  0.00  0.00    +0.000 A 
ATOM      9  C   UNL     1      45.972   3.748   7.659  0.00  0.00    +0.000 A 
ATOM     10  C   UNL     1      46.667   3.447   6.486  0.00  0.00    +0.000 A 
ATOM     11  C   UNL     1      47.097   2.147   6.290  0.00  0.00    +0.000 A 
ATOM     12  N   UNL     1      46.882   1.155   7.173  0.00  0.00    +0.000 NA
ATOM     13  C   UNL     1      46.211   1.484   8.306  0.00  0.00    +0.000 A 
ENDBRANCH   6   8
ENDBRANCH   1   2
BRANCH   1  14
ATOM     14  C   UNL     1      46.897   5.579  13.274  0.00  0.00    +0.000 C 
BRANCH  14  18
ATOM     15  C   UNL     1      48.264   9.466  11.917  0.00  0.00    +0.000 A 
ATOM     16  C   UNL     1      48.986   8.313  11.594  0.00  0.00    +0.000 A 
ATOM     17  C   UNL     1      48.538   7.057  12.024  0.00  0.00    +0.000 A 
ATOM     18  C   UNL     1      47.361   6.935  12.781  0.00  0.00    +0.000 A 
ATOM     19  C   UNL     1      46.653   8.098  13.114  0.00  0.00    +0.000 A 
ATOM     20  C   UNL     1      47.103   9.354  12.690  0.00  0.00    +0.000 A 
BRANCH  15  22
ATOM     21  N   UNL     1      49.509  11.516  12.364  0.00  0.00    +0.000 N 
ATOM     22  C   UNL     1      48.708  10.822  11.501  0.00  0.00    +0.000 C 
ATOM     23  O   UNL     1      48.406  11.294  10.410  0.00  0.00    +0.000 OA
ATOM     24  H   UNL     1      49.888  12.389  12.017  0.00  0.00    +0.000 HD
ATOM     25  H   UNL     1      49.983  11.076  13.138  0.00  0.00    +0.000 HD
ENDBRANCH  15  22
ENDBRANCH  14  18
ENDBRANCH   1  14
TORSDOF 5
ENDMDL
MODEL 6
REMARK VINA RESULT:    -6.451      4.760      8.064
REMARK INTER + INTRA:          -9.106
REMARK INTER:                  -8.535
REMARK INTRA:                  -0.572
REMARK UNBOUND:                -0.770
REMARK  Name = 
REMARK  5 active torsions:
REMARK  status: ('A' for Active; 'I' for Inactive)
REMARK    1  A    between atoms: C_2  and  C_4
REMARK    2  A    between atoms: C_7  and  C_8
REMARK    3  A    between atoms: C_8  and  S_9
REMARK    4  A    between atoms: S_9  and  C_10
REMARK    5  A    between atoms: C_14  and  C_15
REMARK                            x       y       z     vdW  Elec       q    Type
REMARK                         _______ _______ _______ _____ _____    ______ ____
ROOT
ATOM      1  S   UNL     1      48.955   6.861  16.040  0.00  0.00    +0.000 S 
ENDROOT
BRANCH   1   2
ATOM      2  C   UNL     1      48.264   6.746  14.397  0.00  0.00    +0.000 A 
ATOM      3  C   UNL     1      48.792   7.610  13.438  0.00  0.00    +0.000 A 
ATOM      4  N   UNL     1      48.392   7.672  12.148  0.00  0.00    +0.000 NA
ATOM      5  C   UNL     1      47.402   6.827  11.785  0.00  0.00    +0.000 A 
ATOM      6  C   UNL     1      46.769   5.919  12.639  0.00  0.00    +0.000 A 
ATOM      7  C   UNL     1      47.238   5.894  13.971  0.00  0.00    +0.000 A 
BRANCH   6   8
ATOM      8  C   UNL     1      45.666   5.057  12.160  0.00  0.00    +0.000 A 
ATOM      9  C   UNL     1      45.036   5.252  10.923  0.00  0.00    +0.000 A 
ATOM     10  C   UNL     1      44.004   4.409  10.505  0.00  0.00    +0.000 A 
ATOM     11  C   UNL     1      43.610   3.383  11.344  0.00  0.00    +0.000 A 
ATOM     12  N   UNL     1      44.172   3.151  12.545  0.00  0.00    +0.000 NA
ATOM     13  C   UNL     1      45.177   3.984  12.916  0.00  0.00    +0.000 A 
ENDBRANCH   6   8
ENDBRANCH   1   2
BRANCH   1  14
ATOM     14  C   UNL     1      48.231   5.464  16.961  0.00  0.00    +0.000 C 
BRANCH  14  18
ATOM     15  C   UNL     1      51.200   2.351  17.516  0.00  0.00    +0.000 A 
ATOM     16  C   UNL     1      51.548   3.695  17.688  0.00  0.00    +0.000 A 
ATOM     17  C   UNL     1      50.585   4.699  17.518  0.00  0.00    +0.000 A 
ATOM     18  C   UNL     1      49.262   4.375  17.178  0.00  0.00    +0.000 A 
ATOM     19  C   UNL     1      48.928   3.026  16.991  0.00  0.00    +0.000 A 
ATOM     20  C   UNL     1      49.889   2.023  17.155  0.00  0.00    +0.000 A 
BRANCH  15  22
ATOM     21  N   UNL     1      51.736   0.061  18.161  0.00  0.00    +0.000 N 
ATOM     22  C   UNL     1      52.189   1.251  17.667  0.00  0.00    +0.000 C 
ATOM     23  O   UNL     1      53.359   1.384  17.325  0.00  0.00    +0.000 OA
ATOM     24  H   UNL     1      52.399  -0.706  18.155  0.00  0.00    +0.000 HD
ATOM     25  H   UNL     1      50.756  -0.170  18.211  0.00  0.00    +0.000 HD
ENDBRANCH  15  22
ENDBRANCH  14  18
ENDBRANCH   1  14
TORSDOF 5
ENDMDL
MODEL 7
REMARK VINA RESULT:    -6.349      3.517      5.881
REMARK INTER + INTRA:          -8.974
REMARK INTER:                  -8.177
REMARK INTRA:                  -0.797
REMARK UNBOUND:                -0.770
REMARK  Name = 
REMARK  5 active torsions:
REMARK  status: ('A' for Active; 'I' for Inactive)
REMARK    1  A    between atoms: C_2  and  C_4
REMARK    2  A    between atoms: C_7  and  C_8
REMARK    3  A    between atoms: C_8  and  S_9
REMARK    4  A    between atoms: S_9  and  C_10
REMARK    5  A    between atoms: C_14  and  C_15
REMARK                            x       y       z     vdW  Elec       q    Type
REMARK                         _______ _______ _______ _____ _____    ______ ____
ROOT
ATOM      1  S   UNL     1      48.005   8.407  12.262  0.00  0.00    +0.000 S 
ENDROOT
BRANCH   1   2
ATOM      2  C   UNL     1      48.723   7.729  13.750  0.00  0.00    +0.000 A 
ATOM      3  C   UNL     1      49.897   8.329  14.204  0.00  0.00    +0.000 A 
ATOM      4  N   UNL     1      50.585   7.950  15.304  0.00  0.00    +0.000 NA
ATOM      5  C   UNL     1      50.081   6.906  15.997  0.00  0.00    +0.000 A 
ATOM      6  C   UNL     1      48.925   6.198  15.655  0.00  0.00    +0.000 A 
ATOM      7  C   UNL     1      48.244   6.649  14.501  0.00  0.00    +0.000 A 
BRANCH   6   8
ATOM      8  C   UNL     1      48.468   5.041  16.455  0.00  0.00    +0.000 A 
ATOM      9  C   UNL     1      49.221   4.507  17.510  0.00  0.00    +0.000 A 
ATOM     10  C   UNL     1      48.747   3.419  18.247  0.00  0.00    +0.000 A 
ATOM     11  C   UNL     1      47.523   2.873  17.906  0.00  0.00    +0.000 A 
ATOM     12  N   UNL     1      46.760   3.339  16.900  0.00  0.00    +0.000 NA
ATOM     13  C   UNL     1      47.246   4.402  16.210  0.00  0.00    +0.000 A 
ENDBRANCH   6   8
ENDBRANCH   1   2
BRANCH   1  14
ATOM     14  C   UNL     1      46.202   8.320  12.520  0.00  0.00    +0.000 C 
BRANCH  14  18
ATOM     15  C   UNL     1      44.626   4.458  11.330  0.00  0.00    +0.000 A 
ATOM     16  C   UNL     1      45.517   5.143  10.497  0.00  0.00    +0.000 A 
ATOM     17  C   UNL     1      46.033   6.386  10.887  0.00  0.00    +0.000 A 
ATOM     18  C   UNL     1      45.669   6.961  12.115  0.00  0.00    +0.000 A 
ATOM     19  C   UNL     1      44.763   6.274  12.936  0.00  0.00    +0.000 A 
ATOM     20  C   UNL     1      44.242   5.036  12.546  0.00  0.00    +0.000 A 
BRANCH  15  22
ATOM     21  N   UNL     1      44.749   2.360  10.092  0.00  0.00    +0.000 N 
ATOM     22  C   UNL     1      44.037   3.146  10.954  0.00  0.00    +0.000 C 
ATOM     23  O   UNL     1      42.974   2.757  11.423  0.00  0.00    +0.000 OA
ATOM     24  H   UNL     1      44.384   1.428   9.933  0.00  0.00    +0.000 HD
ATOM     25  H   UNL     1      45.724   2.521   9.888  0.00  0.00    +0.000 HD
ENDBRANCH  15  22
ENDBRANCH  14  18
ENDBRANCH   1  14
TORSDOF 5
ENDMDL
MODEL 8
REMARK VINA RESULT:    -6.277      2.406      3.001
REMARK INTER + INTRA:          -8.881
REMARK INTER:                  -8.406
REMARK INTRA:                  -0.475
REMARK UNBOUND:                -0.770
REMARK  Name = 
REMARK  5 active torsions:
REMARK  status: ('A' for Active; 'I' for Inactive)
REMARK    1  A    between atoms: C_2  and  C_4
REMARK    2  A    between atoms: C_7  and  C_8
REMARK    3  A    between atoms: C_8  and  S_9
REMARK    4  A    between atoms: S_9  and  C_10
REMARK    5  A    between atoms: C_14  and  C_15
REMARK                            x       y       z     vdW  Elec       q    Type
REMARK                         _______ _______ _______ _____ _____    ______ ____
ROOT
ATOM      1  S   UNL     1      45.459   6.546  11.190  0.00  0.00    +0.000 S 
ENDROOT
BRANCH   1   2
ATOM      2  C   UNL     1      46.459   6.177  12.623  0.00  0.00    +0.000 A 
ATOM      3  C   UNL     1      46.406   4.867  13.098  0.00  0.00    +0.000 A 
ATOM      4  N   UNL     1      47.086   4.404  14.170  0.00  0.00    +0.000 NA
ATOM      5  C   UNL     1      47.865   5.297  14.819  0.00  0.00    +0.000 A 
ATOM      6  C   UNL     1      48.005   6.644  14.468  0.00  0.00    +0.000 A 
ATOM      7  C   UNL     1      47.278   7.064  13.332  0.00  0.00    +0.000 A 
BRANCH   6   8
ATOM      8  C   UNL     1      48.854   7.559  15.262  0.00  0.00    +0.000 A 
ATOM      9  C   UNL     1      48.413   8.817  15.694  0.00  0.00    +0.000 A 
ATOM     10  C   UNL     1      49.245   9.646  16.449  0.00  0.00    +0.000 A 
ATOM     11  C   UNL     1      50.519   9.203  16.753  0.00  0.00    +0.000 A 
ATOM     12  N   UNL     1      51.000   8.010  16.359  0.00  0.00    +0.000 NA
ATOM     13  C   UNL     1      50.163   7.225  15.634  0.00  0.00    +0.000 A 
ENDBRANCH   6   8
ENDBRANCH   1   2
BRANCH   1  14
ATOM     14  C   UNL     1      44.551   5.006  10.832  0.00  0.00    +0.000 C 
BRANCH  14  18
ATOM     15  C   UNL     1      46.407   2.909   7.519  0.00  0.00    +0.000 A 
ATOM     16  C   UNL     1      45.716   2.197   8.505  0.00  0.00    +0.000 A 
ATOM     17  C   UNL     1      45.108   2.877   9.570  0.00  0.00    +0.000 A 
ATOM     18  C   UNL     1      45.180   4.276   9.662  0.00  0.00    +0.000 A 
ATOM     19  C   UNL     1      45.889   4.979   8.678  0.00  0.00    +0.000 A 
ATOM     20  C   UNL     1      46.501   4.301   7.618  0.00  0.00    +0.000 A 
BRANCH  15  22
ATOM     21  N   UNL     1      47.191   2.928   5.209  0.00  0.00    +0.000 N 
ATOM     22  C   UNL     1      47.084   2.233   6.381  0.00  0.00    +0.000 C 
ATOM     23  O   UNL     1      47.566   1.111   6.491  0.00  0.00    +0.000 OA
ATOM     24  H   UNL     1      47.749   2.494   4.483  0.00  0.00    +0.000 HD
ATOM     25  H   UNL     1      47.043   3.924   5.152  0.00  0.00    +0.000 HD
ENDBRANCH  15  22
ENDBRANCH  14  18
ENDBRANCH   1  14
TORSDOF 5
ENDMDL
MODEL 9
REMARK VINA RESULT:    -5.848      3.942      7.926
REMARK INTER + INTRA:          -8.327
REMARK INTER:                  -7.728
REMARK INTRA:                  -0.599
REMARK UNBOUND:                -0.770
REMARK  Name = 
REMARK  5 active torsions:
REMARK  status: ('A' for Active; 'I' for Inactive)
REMARK    1  A    between atoms: C_2  and  C_4
REMARK    2  A    between atoms: C_7  and  C_8
REMARK    3  A    between atoms: C_8  and  S_9
REMARK    4  A    between atoms: S_9  and  C_10
REMARK    5  A    between atoms: C_14  and  C_15
REMARK                            x       y       z     vdW  Elec       q    Type
REMARK                         _______ _______ _______ _____ _____    ______ ____
ROOT
ATOM      1  S   UNL     1      49.553   7.778  13.081  0.00  0.00    +0.000 S 
ENDROOT
BRANCH   1   2
ATOM      2  C   UNL     1      47.839   7.614  12.610  0.00  0.00    +0.000 A 
ATOM      3  C   UNL     1      47.124   8.800  12.440  0.00  0.00    +0.000 A 
ATOM      4  N   UNL     1      45.820   8.874  12.092  0.00  0.00    +0.000 NA
ATOM      5  C   UNL     1      45.180   7.699  11.907  0.00  0.00    +0.000 A 
ATOM      6  C   UNL     1      45.761   6.437  12.056  0.00  0.00    +0.000 A 
ATOM      7  C   UNL     1      47.129   6.424  12.410  0.00  0.00    +0.000 A 
BRANCH   6   8
ATOM      8  C   UNL     1      44.970   5.200  11.867  0.00  0.00    +0.000 A 
ATOM      9  C   UNL     1      44.715   4.651  10.603  0.00  0.00    +0.000 A 
ATOM     10  C   UNL     1      43.971   3.477  10.471  0.00  0.00    +0.000 A 
ATOM     11  C   UNL     1      43.481   2.873  11.614  0.00  0.00    +0.000 A 
ATOM     12  N   UNL     1      43.687   3.358  12.853  0.00  0.00    +0.000 NA
ATOM     13  C   UNL     1      44.421   4.495  12.946  0.00  0.00    +0.000 A 
ENDBRANCH   6   8
ENDBRANCH   1   2
BRANCH   1  14
ATOM     14  C   UNL     1      49.522   8.217  14.851  0.00  0.00    +0.000 C 
BRANCH  14  18
ATOM     15  C   UNL     1      49.396   4.609  17.256  0.00  0.00    +0.000 A 
ATOM     16  C   UNL     1      50.571   5.366  17.181  0.00  0.00    +0.000 A 
ATOM     17  C   UNL     1      50.607   6.536  16.412  0.00  0.00    +0.000 A 
ATOM     18  C   UNL     1      49.471   6.969  15.709  0.00  0.00    +0.000 A 
ATOM     19  C   UNL     1      48.304   6.195  15.777  0.00  0.00    +0.000 A 
ATOM     20  C   UNL     1      48.268   5.022  16.540  0.00  0.00    +0.000 A 
BRANCH  15  22
ATOM     21  N   UNL     1      48.586   3.378  19.199  0.00  0.00    +0.000 N 
ATOM     22  C   UNL     1      49.313   3.350  18.042  0.00  0.00    +0.000 C 
ATOM     23  O   UNL     1      49.839   2.312  17.657  0.00  0.00    +0.000 OA
ATOM     24  H   UNL     1      48.451   2.487  19.662  0.00  0.00    +0.000 HD
ATOM     25  H   UNL     1      47.938   4.120  19.417  0.00  0.00    +0.000 HD
ENDBRANCH  15  22
ENDBRANCH  14  18
ENDBRANCH   1  14
TORSDOF 5
ENDMDL
