MODEL 1
REMARK VINA RESULT:    -8.537      0.000      0.000
REMARK INTER + INTRA:         -13.206
REMARK INTER:                 -12.030
REMARK INTRA:                  -1.176
REMARK UNBOUND:                -1.176
REMARK  Name = 
REMARK  7 active torsions:
REMARK  status: ('A' for Active; 'I' for Inactive)
REMARK    1  A    between atoms: C_2  and  C_3
REMARK    2  A    between atoms: C_2  and  C_25
REMARK    3  A    between atoms: C_3  and  O_4
REMARK    4  A    between atoms: O_4  and  C_5
REMARK    5  A    between atoms: C_8  and  C_9
REMARK    6  A    between atoms: C_9  and  N_10
REMARK    7  A    between atoms: C_11  and  C_13
REMARK                            x       y       z     vdW  Elec       q    Type
REMARK                         _______ _______ _______ _____ _____    ______ ____
ROOT
ATOM      1  C   UNL     1      44.560   4.947  10.902  0.00  0.00    +0.000 A 
ATOM      2  C   UNL     1      45.661   5.530  10.300  0.00  0.00    +0.000 A 
ATOM      3  C   UNL     1      46.379   6.485  11.016  0.00  0.00    +0.000 A 
ATOM      4  C   UNL     1      45.952   6.858  12.293  0.00  0.00    +0.000 A 
ATOM      5  C   UNL     1      44.830   6.210  12.804  0.00  0.00    +0.000 A 
ATOM      6  N   UNL     1      44.123   5.262  12.140  0.00  0.00    +0.000 NA
ENDROOT
BRANCH   1   7
ATOM      7  O   UNL     1      43.890   3.999  10.160  0.00  0.00    +0.000 OA
BRANCH   7   8
ATOM      8  C   UNL     1      44.432   3.842   8.854  0.00  0.00    +0.000 C 
BRANCH   8  10
ATOM      9  O   UNL     1      44.457   1.432   9.157  0.00  0.00    +0.000 OA
ATOM     10  C   UNL     1      44.992   2.430   8.676  0.00  0.00    +0.000 C 
BRANCH  10  11
ATOM     11  C   UNL     1      46.192   2.310   7.875  0.00  0.00    +0.000 A 
ATOM     12  C   UNL     1      46.911   3.223   7.127  0.00  0.00    +0.000 A 
ATOM     13  C   UNL     1      47.968   2.484   6.565  0.00  0.00    +0.000 A 
ATOM     14  N   UNL     1      47.932   1.200   6.921  0.00  0.00    +0.000 NA
ATOM     15  N   UNL     1      46.855   1.121   7.720  0.00  0.00    +0.000 N 
ATOM     16  H   UNL     1      46.606   0.223   8.129  0.00  0.00    +0.000 HD
ENDBRANCH  10  11
ENDBRANCH   8  10
ENDBRANCH   7   8
ENDBRANCH   1   7
BRANCH   4  17
ATOM     17  C   UNL     1      46.684   7.895  13.094  0.00  0.00    +0.000 C 
BRANCH  17  18
ATOM     18  N   UNL     1      47.218   7.344  14.315  0.00  0.00    +0.000 N 
ATOM     19  C   UNL     1      48.464   6.766  14.347  0.00  0.00    +0.000 C 
ATOM     20  O   UNL     1      49.195   6.751  13.360  0.00  0.00    +0.000 OA
ATOM     21  H   UNL     1      46.556   7.125  15.053  0.00  0.00    +0.000 HD
BRANCH  19  22
ATOM     22  C   UNL     1      48.904   6.223  15.638  0.00  0.00    +0.000 A 
ATOM     23  C   UNL     1      49.974   6.809  16.303  0.00  0.00    +0.000 A 
ATOM     24  S   UNL     1      50.318   6.094  17.812  0.00  0.00    +0.000 S 
ATOM     25  C   UNL     1      49.084   4.940  17.608  0.00  0.00    +0.000 A 
ATOM     26  N   UNL     1      48.855   3.986  18.551  0.00  0.00    +0.000 NA
ATOM     27  C   UNL     1      47.915   3.154  18.250  0.00  0.00    +0.000 A 
ATOM     28  N   UNL     1      47.176   3.194  17.095  0.00  0.00    +0.000 N 
ATOM     29  C   UNL     1      47.348   4.160  16.134  0.00  0.00    +0.000 A 
ATOM     30  O   UNL     1      46.635   4.199  15.136  0.00  0.00    +0.000 OA
ATOM     31  C   UNL     1      48.407   5.110  16.413  0.00  0.00    +0.000 A 
ATOM     32  H   UNL     1      46.446   2.517  16.926  0.00  0.00    +0.000 HD
ENDBRANCH  19  22
ENDBRANCH  17  18
ENDBRANCH   4  17
TORSDOF 7
ENDMDL
MODEL 2
REMARK VINA RESULT:    -7.666      2.140      2.527
REMARK INTER + INTRA:         -11.978
REMARK INTER:                 -11.023
REMARK INTRA:                  -0.955
REMARK UNBOUND:                -1.176
REMARK  Name = 
REMARK  7 active torsions:
REMARK  status: ('A' for Active; 'I' for Inactive)
REMARK    1  A    between atoms: C_2  and  C_3
REMARK    2  A    between atoms: C_2  and  C_25
REMARK    3  A    between atoms: C_3  and  O_4
REMARK    4  A    between atoms: O_4  and  C_5
REMARK    5  A    between atoms: C_8  and  C_9
REMARK    6  A    between atoms: C_9  and  N_10
REMARK    7  A    between atoms: C_11  and  C_13
REMARK                            x       y       z     vdW  Elec       q    Type
REMARK                         _______ _______ _______ _____ _____    ______ ____
ROOT
ATOM      1  C   UNL     1      45.258   4.677  11.417  0.00  0.00    +0.000 A 
ATOM      2  C   UNL     1      45.773   5.812  10.816  0.00  0.00    +0.000 A 
ATOM      3  C   UNL     1      46.677   6.589  11.536  0.00  0.00    +0.000 A 
ATOM      4  C   UNL     1      47.008   6.232  12.846  0.00  0.00    +0.000 A 
ATOM      5  C   UNL     1      46.430   5.070  13.354  0.00  0.00    +0.000 A 
ATOM      6  N   UNL     1      45.563   4.282  12.670  0.00  0.00    +0.000 NA
ENDROOT
BRANCH   1   7
ATOM      7  O   UNL     1      44.377   3.933  10.661  0.00  0.00    +0.000 OA
BRANCH   7   8
ATOM      8  C   UNL     1      44.708   3.935   9.276  0.00  0.00    +0.000 C 
BRANCH   8  10
ATOM      9  O   UNL     1      44.383   1.532   9.127  0.00  0.00    +0.000 OA
ATOM     10  C   UNL     1      45.046   2.518   8.809  0.00  0.00    +0.000 C 
BRANCH  10  11
ATOM     11  C   UNL     1      46.191   2.386   7.933  0.00  0.00    +0.000 A 
ATOM     12  C   UNL     1      46.854   3.286   7.120  0.00  0.00    +0.000 A 
ATOM     13  C   UNL     1      47.875   2.539   6.505  0.00  0.00    +0.000 A 
ATOM     14  N   UNL     1      47.871   1.262   6.891  0.00  0.00    +0.000 NA
ATOM     15  N   UNL     1      46.849   1.196   7.760  0.00  0.00    +0.000 N 
ATOM     16  H   UNL     1      46.633   0.306   8.204  0.00  0.00    +0.000 HD
ENDBRANCH  10  11
ENDBRANCH   8  10
ENDBRANCH   7   8
ENDBRANCH   1   7
BRANCH   4  17
ATOM     17  C   UNL     1      47.964   7.048  13.666  0.00  0.00    +0.000 C 
BRANCH  17  18
ATOM     18  N   UNL     1      47.875   6.721  15.068  0.00  0.00    +0.000 N 
ATOM     19  C   UNL     1      49.005   6.476  15.812  0.00  0.00    +0.000 C 
ATOM     20  O   UNL     1      50.130   6.587  15.334  0.00  0.00    +0.000 OA
ATOM     21  H   UNL     1      46.980   6.386  15.410  0.00  0.00    +0.000 HD
BRANCH  19  22
ATOM     22  C   UNL     1      48.799   6.137  17.225  0.00  0.00    +0.000 A 
ATOM     23  C   UNL     1      49.057   4.847  17.668  0.00  0.00    +0.000 A 
ATOM     24  S   UNL     1      48.822   4.636  19.344  0.00  0.00    +0.000 S 
ATOM     25  C   UNL     1      48.314   6.249  19.530  0.00  0.00    +0.000 A 
ATOM     26  N   UNL     1      47.931   6.727  20.745  0.00  0.00    +0.000 NA
ATOM     27  C   UNL     1      47.535   7.955  20.735  0.00  0.00    +0.000 A 
ATOM     28  N   UNL     1      47.492   8.753  19.621  0.00  0.00    +0.000 N 
ATOM     29  C   UNL     1      47.903   8.325  18.382  0.00  0.00    +0.000 A 
ATOM     30  O   UNL     1      47.903   9.080  17.414  0.00  0.00    +0.000 OA
ATOM     31  C   UNL     1      48.342   6.944  18.333  0.00  0.00    +0.000 A 
ATOM     32  H   UNL     1      47.180   9.711  19.684  0.00  0.00    +0.000 HD
ENDBRANCH  19  22
ENDBRANCH  17  18
ENDBRANCH   4  17
TORSDOF 7
ENDMDL
MODEL 3
REMARK VINA RESULT:    -7.586      2.892      3.886
REMARK INTER + INTRA:         -11.866
REMARK INTER:                 -10.570
REMARK INTRA:                  -1.296
REMARK UNBOUND:                -1.176
REMARK  Name = 
REMARK  7 active torsions:
REMARK  status: ('A' for Active; 'I' for Inactive)
REMARK    1  A    between atoms: C_2  and  C_3
REMARK    2  A    between atoms: C_2  and  C_25
REMARK    3  A    between atoms: C_3  and  O_4
REMARK    4  A    between atoms: O_4  and  C_5
REMARK    5  A    between atoms: C_8  and  C_9
REMARK    6  A    between atoms: C_9  and  N_10
REMARK    7  A    between atoms: C_11  and  C_13
REMARK                            x       y       z     vdW  Elec       q    Type
REMARK                         _______ _______ _______ _____ _____    ______ ____
ROOT
ATOM      1  C   UNL     1      46.439   4.457  13.333  0.00  0.00    +0.000 A 
ATOM      2  C   UNL     1      47.049   5.627  12.915  0.00  0.00    +0.000 A 
ATOM      3  C   UNL     1      47.865   6.307  13.817  0.00  0.00    +0.000 A 
ATOM      4  C   UNL     1      48.012   5.821  15.120  0.00  0.00    +0.000 A 
ATOM      5  C   UNL     1      47.351   4.635  15.435  0.00  0.00    +0.000 A 
ATOM      6  N   UNL     1      46.568   3.940  14.573  0.00  0.00    +0.000 NA
ENDROOT
BRANCH   1   7
ATOM      7  O   UNL     1      45.653   3.813  12.402  0.00  0.00    +0.000 OA
BRANCH   7   8
ATOM      8  C   UNL     1      44.319   4.310  12.375  0.00  0.00    +0.000 C 
BRANCH   8  10
ATOM      9  O   UNL     1      43.004   5.377  10.633  0.00  0.00    +0.000 OA
ATOM     10  C   UNL     1      43.874   4.559  10.933  0.00  0.00    +0.000 C 
BRANCH  10  11
ATOM     11  C   UNL     1      44.552   3.794   9.908  0.00  0.00    +0.000 A 
ATOM     12  C   UNL     1      45.102   4.146   8.690  0.00  0.00    +0.000 A 
ATOM     13  C   UNL     1      45.594   2.943   8.151  0.00  0.00    +0.000 A 
ATOM     14  N   UNL     1      45.379   1.902   8.956  0.00  0.00    +0.000 NA
ATOM     15  N   UNL     1      44.755   2.443  10.016  0.00  0.00    +0.000 N 
ATOM     16  H   UNL     1      44.476   1.841  10.787  0.00  0.00    +0.000 HD
ENDBRANCH  10  11
ENDBRANCH   8  10
ENDBRANCH   7   8
ENDBRANCH   1   7
BRANCH   4  17
ATOM     17  C   UNL     1      48.865   6.529  16.131  0.00  0.00    +0.000 C 
BRANCH  17  18
ATOM     18  N   UNL     1      49.936   5.687  16.606  0.00  0.00    +0.000 N 
ATOM     19  C   UNL     1      50.113   5.456  17.949  0.00  0.00    +0.000 C 
ATOM     20  O   UNL     1      49.337   5.900  18.790  0.00  0.00    +0.000 OA
ATOM     21  H   UNL     1      50.712   5.523  15.972  0.00  0.00    +0.000 HD
BRANCH  19  22
ATOM     22  C   UNL     1      51.243   4.596  18.323  0.00  0.00    +0.000 A 
ATOM     23  C   UNL     1      52.276   5.114  19.092  0.00  0.00    +0.000 A 
ATOM     24  S   UNL     1      53.479   3.971  19.485  0.00  0.00    +0.000 S 
ATOM     25  C   UNL     1      52.690   2.754  18.595  0.00  0.00    +0.000 A 
ATOM     26  N   UNL     1      53.218   1.504  18.497  0.00  0.00    +0.000 NA
ATOM     27  C   UNL     1      52.535   0.693  17.762  0.00  0.00    +0.000 A 
ATOM     28  N   UNL     1      51.366   1.014  17.121  0.00  0.00    +0.000 N 
ATOM     29  C   UNL     1      50.778   2.251  17.222  0.00  0.00    +0.000 A 
ATOM     30  O   UNL     1      49.704   2.492  16.679  0.00  0.00    +0.000 OA
ATOM     31  C   UNL     1      51.515   3.209  18.022  0.00  0.00    +0.000 A 
ATOM     32  H   UNL     1      50.875   0.327  16.568  0.00  0.00    +0.000 HD
ENDBRANCH  19  22
ENDBRANCH  17  18
ENDBRANCH   4  17
TORSDOF 7
ENDMDL
MODEL 4
REMARK VINA RESULT:    -7.507      1.570      2.068
REMARK INTER + INTRA:         -11.754
REMARK INTER:                 -10.537
REMARK INTRA:                  -1.217
REMARK UNBOUND:                -1.176
REMARK  Name = 
REMARK  7 active torsions:
REMARK  status: ('A' for Active; 'I' for Inactive)
REMARK    1  A    between atoms: C_2  and  C_3
REMARK    2  A    between atoms: C_2  and  C_25
REMARK    3  A    between atoms: C_3  and  O_4
REMARK    4  A    between atoms: O_4  and  C_5
REMARK    5  A    between atoms: C_8  and  C_9
REMARK    6  A    between atoms: C_9  and  N_10
REMARK    7  A    between atoms: C_11  and  C_13
REMARK                            x       y       z     vdW  Elec       q    Type
REMARK                         _______ _______ _______ _____ _____    ______ ____
ROOT
ATOM      1  C   UNL     1      45.142   6.558  11.293  0.00  0.00    +0.000 A 
ATOM      2  C   UNL     1      44.791   7.827  11.719  0.00  0.00    +0.000 A 
ATOM      3  C   UNL     1      45.642   8.488  12.602  0.00  0.00    +0.000 A 
ATOM      4  C   UNL     1      46.795   7.845  13.063  0.00  0.00    +0.000 A 
ATOM      5  C   UNL     1      47.051   6.567  12.572  0.00  0.00    +0.000 A 
ATOM      6  N   UNL     1      46.253   5.907  11.696  0.00  0.00    +0.000 NA
ENDROOT
BRANCH   1   7
ATOM      7  O   UNL     1      44.275   5.950  10.410  0.00  0.00    +0.000 OA
BRANCH   7   8
ATOM      8  C   UNL     1      43.314   5.129  11.065  0.00  0.00    +0.000 C 
BRANCH   8  10
ATOM      9  O   UNL     1      43.064   2.733  11.378  0.00  0.00    +0.000 OA
ATOM     10  C   UNL     1      43.556   3.657  10.730  0.00  0.00    +0.000 C 
BRANCH  10  11
ATOM     11  C   UNL     1      44.387   3.387   9.575  0.00  0.00    +0.000 A 
ATOM     12  C   UNL     1      45.386   2.462   9.339  0.00  0.00    +0.000 A 
ATOM     13  C   UNL     1      45.824   2.724   8.028  0.00  0.00    +0.000 A 
ATOM     14  N   UNL     1      45.162   3.737   7.466  0.00  0.00    +0.000 NA
ATOM     15  N   UNL     1      44.293   4.116   8.419  0.00  0.00    +0.000 N 
ATOM     16  H   UNL     1      43.660   4.890   8.231  0.00  0.00    +0.000 HD
ENDBRANCH  10  11
ENDBRANCH   8  10
ENDBRANCH   7   8
ENDBRANCH   1   7
BRANCH   4  17
ATOM     17  C   UNL     1      47.732   8.511  14.028  0.00  0.00    +0.000 C 
BRANCH  17  18
ATOM     18  N   UNL     1      48.007   7.670  15.167  0.00  0.00    +0.000 N 
ATOM     19  C   UNL     1      49.192   6.981  15.270  0.00  0.00    +0.000 C 
ATOM     20  O   UNL     1      50.084   7.100  14.436  0.00  0.00    +0.000 OA
ATOM     21  H   UNL     1      47.213   7.367  15.722  0.00  0.00    +0.000 HD
BRANCH  19  22
ATOM     22  C   UNL     1      49.362   6.142  16.464  0.00  0.00    +0.000 A 
ATOM     23  C   UNL     1      50.364   6.441  17.378  0.00  0.00    +0.000 A 
ATOM     24  S   UNL     1      50.388   5.405  18.732  0.00  0.00    +0.000 S 
ATOM     25  C   UNL     1      49.095   4.485  18.119  0.00  0.00    +0.000 A 
ATOM     26  N   UNL     1      48.624   3.403  18.796  0.00  0.00    +0.000 NA
ATOM     27  C   UNL     1      47.666   2.776  18.199  0.00  0.00    +0.000 A 
ATOM     28  N   UNL     1      47.130   3.137  16.990  0.00  0.00    +0.000 N 
ATOM     29  C   UNL     1      47.549   4.242  16.290  0.00  0.00    +0.000 A 
ATOM     30  O   UNL     1      47.013   4.570  15.235  0.00  0.00    +0.000 OA
ATOM     31  C   UNL     1      48.639   4.973  16.908  0.00  0.00    +0.000 A 
ATOM     32  H   UNL     1      46.373   2.608  16.582  0.00  0.00    +0.000 HD
ENDBRANCH  19  22
ENDBRANCH  17  18
ENDBRANCH   4  17
TORSDOF 7
ENDMDL
MODEL 5
REMARK VINA RESULT:    -7.175      2.918      8.233
REMARK INTER + INTRA:         -11.287
REMARK INTER:                 -10.022
REMARK INTRA:                  -1.266
REMARK UNBOUND:                -1.176
REMARK  Name = 
REMARK  7 active torsions:
REMARK  status: ('A' for Active; 'I' for Inactive)
REMARK    1  A    between atoms: C_2  and  C_3
REMARK    2  A    between atoms: C_2  and  C_25
REMARK    3  A    between atoms: C_3  and  O_4
REMARK    4  A    between atoms: O_4  and  C_5
REMARK    5  A    between atoms: C_8  and  C_9
REMARK    6  A    between atoms: C_9  and  N_10
REMARK    7  A    between atoms: C_11  and  C_13
REMARK                            x       y       z     vdW  Elec       q    Type
REMARK                         _______ _______ _______ _____ _____    ______ ____
ROOT
ATOM      1  C   UNL     1      49.518   7.928  15.679  0.00  0.00    +0.000 A 
ATOM      2  C   UNL     1      48.517   8.861  15.473  0.00  0.00    +0.000 A 
ATOM      3  C   UNL     1      47.844   8.851  14.253  0.00  0.00    +0.000 A 
ATOM      4  C   UNL     1      48.219   7.938  13.263  0.00  0.00    +0.000 A 
ATOM      5  C   UNL     1      49.241   7.044  13.576  0.00  0.00    +0.000 A 
ATOM      6  N   UNL     1      49.900   7.016  14.761  0.00  0.00    +0.000 NA
ENDROOT
BRANCH   1   7
ATOM      7  O   UNL     1      50.146   7.969  16.906  0.00  0.00    +0.000 OA
BRANCH   7   8
ATOM      8  C   UNL     1      50.192   6.695  17.539  0.00  0.00    +0.000 C 
BRANCH   8  10
ATOM      9  O   UNL     1      48.139   7.097  18.775  0.00  0.00    +0.000 OA
ATOM     10  C   UNL     1      48.815   6.326  18.094  0.00  0.00    +0.000 C 
BRANCH  10  11
ATOM     11  C   UNL     1      48.317   5.010  17.755  0.00  0.00    +0.000 A 
ATOM     12  C   UNL     1      48.951   3.819  17.457  0.00  0.00    +0.000 A 
ATOM     13  C   UNL     1      47.912   2.908  17.191  0.00  0.00    +0.000 A 
ATOM     14  N   UNL     1      46.707   3.467  17.308  0.00  0.00    +0.000 NA
ATOM     15  N   UNL     1      46.977   4.736  17.657  0.00  0.00    +0.000 N 
ATOM     16  H   UNL     1      46.207   5.383  17.808  0.00  0.00    +0.000 HD
ENDBRANCH  10  11
ENDBRANCH   8  10
ENDBRANCH   7   8
ENDBRANCH   1   7
BRANCH   4  17
ATOM     17  C   UNL     1      47.535   7.902  11.928  0.00  0.00    +0.000 C 
BRANCH  17  18
ATOM     18  N   UNL     1      46.865   6.644  11.708  0.00  0.00    +0.000 N 
ATOM     19  C   UNL     1      45.493   6.561  11.709  0.00  0.00    +0.000 C 
ATOM     20  O   UNL     1      44.785   7.556  11.833  0.00  0.00    +0.000 OA
ATOM     21  H   UNL     1      47.408   5.798  11.853  0.00  0.00    +0.000 HD
BRANCH  19  22
ATOM     22  C   UNL     1      44.915   5.229  11.490  0.00  0.00    +0.000 A 
ATOM     23  C   UNL     1      44.213   4.607  12.514  0.00  0.00    +0.000 A 
ATOM     24  S   UNL     1      43.561   3.093  12.078  0.00  0.00    +0.000 S 
ATOM     25  C   UNL     1      44.240   3.189  10.521  0.00  0.00    +0.000 A 
ATOM     26  N   UNL     1      44.078   2.178   9.624  0.00  0.00    +0.000 NA
ATOM     27  C   UNL     1      44.677   2.366   8.496  0.00  0.00    +0.000 A 
ATOM     28  N   UNL     1      45.416   3.476   8.179  0.00  0.00    +0.000 N 
ATOM     29  C   UNL     1      45.576   4.536   9.039  0.00  0.00    +0.000 A 
ATOM     30  O   UNL     1      46.200   5.538   8.706  0.00  0.00    +0.000 OA
ATOM     31  C   UNL     1      44.938   4.368  10.331  0.00  0.00    +0.000 A 
ATOM     32  H   UNL     1      45.851   3.565   7.272  0.00  0.00    +0.000 HD
ENDBRANCH  19  22
ENDBRANCH  17  18
ENDBRANCH   4  17
TORSDOF 7
ENDMDL
MODEL 6
REMARK VINA RESULT:    -7.022      2.345      2.977
REMARK INTER + INTRA:         -11.072
REMARK INTER:                  -9.906
REMARK INTRA:                  -1.165
REMARK UNBOUND:                -1.176
REMARK  Name = 
REMARK  7 active torsions:
REMARK  status: ('A' for Active; 'I' for Inactive)
REMARK    1  A    between atoms: C_2  and  C_3
REMARK    2  A    between atoms: C_2  and  C_25
REMARK    3  A    between atoms: C_3  and  O_4
REMARK    4  A    between atoms: O_4  and  C_5
REMARK    5  A    between atoms: C_8  and  C_9
REMARK    6  A    between atoms: C_9  and  N_10
REMARK    7  A    between atoms: C_11  and  C_13
REMARK                            x       y       z     vdW  Elec       q    Type
REMARK                         _______ _______ _______ _____ _____    ______ ____
ROOT
ATOM      1  C   UNL     1      45.796   5.598  12.396  0.00  0.00    +0.000 A 
ATOM      2  C   UNL     1      46.470   6.535  11.633  0.00  0.00    +0.000 A 
ATOM      3  C   UNL     1      47.651   7.074  12.139  0.00  0.00    +0.000 A 
ATOM      4  C   UNL     1      48.100   6.691  13.406  0.00  0.00    +0.000 A 
ATOM      5  C   UNL     1      47.343   5.742  14.089  0.00  0.00    +0.000 A 
ATOM      6  N   UNL     1      46.201   5.184  13.614  0.00  0.00    +0.000 NA
ENDROOT
BRANCH   1   7
ATOM      7  O   UNL     1      44.640   5.084  11.849  0.00  0.00    +0.000 OA
BRANCH   7   8
ATOM      8  C   UNL     1      44.331   3.785  12.342  0.00  0.00    +0.000 C 
BRANCH   8  10
ATOM      9  O   UNL     1      42.858   2.118  11.367  0.00  0.00    +0.000 OA
ATOM     10  C   UNL     1      43.795   2.901  11.215  0.00  0.00    +0.000 C 
BRANCH  10  11
ATOM     11  C   UNL     1      44.433   3.047   9.924  0.00  0.00    +0.000 A 
ATOM     12  C   UNL     1      45.227   2.201   9.173  0.00  0.00    +0.000 A 
ATOM     13  C   UNL     1      45.554   2.935   8.018  0.00  0.00    +0.000 A 
ATOM     14  N   UNL     1      45.015   4.155   8.025  0.00  0.00    +0.000 NA
ATOM     15  N   UNL     1      44.335   4.196   9.183  0.00  0.00    +0.000 N 
ATOM     16  H   UNL     1      43.826   5.042   9.428  0.00  0.00    +0.000 HD
ENDBRANCH  10  11
ENDBRANCH   8  10
ENDBRANCH   7   8
ENDBRANCH   1   7
BRANCH   4  17
ATOM     17  C   UNL     1      49.357   7.258  13.998  0.00  0.00    +0.000 C 
BRANCH  17  18
ATOM     18  N   UNL     1      49.201   7.543  15.403  0.00  0.00    +0.000 N 
ATOM     19  C   UNL     1      49.940   6.874  16.349  0.00  0.00    +0.000 C 
ATOM     20  O   UNL     1      50.802   6.057  16.037  0.00  0.00    +0.000 OA
ATOM     21  H   UNL     1      48.346   8.011  15.689  0.00  0.00    +0.000 HD
BRANCH  19  22
ATOM     22  C   UNL     1      49.691   7.231  17.751  0.00  0.00    +0.000 A 
ATOM     23  C   UNL     1      50.451   8.225  18.354  0.00  0.00    +0.000 A 
ATOM     24  S   UNL     1      49.995   8.555  19.964  0.00  0.00    +0.000 S 
ATOM     25  C   UNL     1      48.801   7.343  19.932  0.00  0.00    +0.000 A 
ATOM     26  N   UNL     1      48.041   7.081  21.029  0.00  0.00    +0.000 NA
ATOM     27  C   UNL     1      47.201   6.113  20.877  0.00  0.00    +0.000 A 
ATOM     28  N   UNL     1      47.045   5.387  19.724  0.00  0.00    +0.000 N 
ATOM     29  C   UNL     1      47.764   5.641  18.581  0.00  0.00    +0.000 A 
ATOM     30  O   UNL     1      47.564   5.009  17.549  0.00  0.00    +0.000 OA
ATOM     31  C   UNL     1      48.738   6.709  18.704  0.00  0.00    +0.000 A 
ATOM     32  H   UNL     1      46.360   4.647  19.668  0.00  0.00    +0.000 HD
ENDBRANCH  19  22
ENDBRANCH  17  18
ENDBRANCH   4  17
TORSDOF 7
ENDMDL
MODEL 7
REMARK VINA RESULT:    -6.913      3.411      7.807
REMARK INTER + INTRA:         -10.918
REMARK INTER:                  -9.821
REMARK INTRA:                  -1.097
REMARK UNBOUND:                -1.176
REMARK  Name = 
REMARK  7 active torsions:
REMARK  status: ('A' for Active; 'I' for Inactive)
REMARK    1  A    between atoms: C_2  and  C_3
REMARK    2  A    between atoms: C_2  and  C_25
REMARK    3  A    between atoms: C_3  and  O_4
REMARK    4  A    between atoms: O_4  and  C_5
REMARK    5  A    between atoms: C_8  and  C_9
REMARK    6  A    between atoms: C_9  and  N_10
REMARK    7  A    between atoms: C_11  and  C_13
REMARK                            x       y       z     vdW  Elec       q    Type
REMARK                         _______ _______ _______ _____ _____    ______ ____
ROOT
ATOM      1  C   UNL     1      50.114   6.894  15.701  0.00  0.00    +0.000 A 
ATOM      2  C   UNL     1      50.821   7.749  14.874  0.00  0.00    +0.000 A 
ATOM      3  C   UNL     1      50.229   8.154  13.680  0.00  0.00    +0.000 A 
ATOM      4  C   UNL     1      48.968   7.662  13.330  0.00  0.00    +0.000 A 
ATOM      5  C   UNL     1      48.346   6.804  14.236  0.00  0.00    +0.000 A 
ATOM      6  N   UNL     1      48.888   6.409  15.414  0.00  0.00    +0.000 NA
ENDROOT
BRANCH   1   7
ATOM      7  O   UNL     1      50.736   6.532  16.877  0.00  0.00    +0.000 OA
BRANCH   7   8
ATOM      8  C   UNL     1      49.810   6.172  17.897  0.00  0.00    +0.000 C 
BRANCH   8  10
ATOM      9  O   UNL     1      50.673   4.533  19.468  0.00  0.00    +0.000 OA
ATOM     10  C   UNL     1      50.099   4.758  18.403  0.00  0.00    +0.000 C 
BRANCH  10  11
ATOM     11  C   UNL     1      49.634   3.669  17.571  0.00  0.00    +0.000 A 
ATOM     12  C   UNL     1      48.380   3.312  17.114  0.00  0.00    +0.000 A 
ATOM     13  C   UNL     1      48.584   2.139  16.364  0.00  0.00    +0.000 A 
ATOM     14  N   UNL     1      49.865   1.770  16.341  0.00  0.00    +0.000 NA
ATOM     15  N   UNL     1      50.481   2.715  17.070  0.00  0.00    +0.000 N 
ATOM     16  H   UNL     1      51.488   2.657  17.206  0.00  0.00    +0.000 HD
ENDBRANCH  10  11
ENDBRANCH   8  10
ENDBRANCH   7   8
ENDBRANCH   1   7
BRANCH   4  17
ATOM     17  C   UNL     1      48.299   8.056  12.046  0.00  0.00    +0.000 C 
BRANCH  17  18
ATOM     18  N   UNL     1      47.598   6.946  11.449  0.00  0.00    +0.000 N 
ATOM     19  C   UNL     1      46.224   6.892  11.451  0.00  0.00    +0.000 C 
ATOM     20  O   UNL     1      45.541   7.808  11.900  0.00  0.00    +0.000 OA
ATOM     21  H   UNL     1      48.123   6.090  11.306  0.00  0.00    +0.000 HD
BRANCH  19  22
ATOM     22  C   UNL     1      45.614   5.710  10.830  0.00  0.00    +0.000 A 
ATOM     23  C   UNL     1      45.757   5.497   9.465  0.00  0.00    +0.000 A 
ATOM     24  S   UNL     1      45.037   4.052   8.916  0.00  0.00    +0.000 S 
ATOM     25  C   UNL     1      44.459   3.685  10.474  0.00  0.00    +0.000 A 
ATOM     26  N   UNL     1      43.720   2.565  10.700  0.00  0.00    +0.000 NA
ATOM     27  C   UNL     1      43.316   2.430  11.918  0.00  0.00    +0.000 A 
ATOM     28  N   UNL     1      43.590   3.309  12.934  0.00  0.00    +0.000 N 
ATOM     29  C   UNL     1      44.362   4.432  12.760  0.00  0.00    +0.000 A 
ATOM     30  O   UNL     1      44.634   5.170  13.702  0.00  0.00    +0.000 OA
ATOM     31  C   UNL     1      44.827   4.642  11.403  0.00  0.00    +0.000 A 
ATOM     32  H   UNL     1      43.251   3.138  13.870  0.00  0.00    +0.000 HD
ENDBRANCH  19  22
ENDBRANCH  17  18
ENDBRANCH   4  17
TORSDOF 7
ENDMDL
MODEL 8
REMARK VINA RESULT:    -6.900      3.681      8.041
REMARK INTER + INTRA:         -10.899
REMARK INTER:                  -9.662
REMARK INTRA:                  -1.238
REMARK UNBOUND:                -1.176
REMARK  Name = 
REMARK  7 active torsions:
REMARK  status: ('A' for Active; 'I' for Inactive)
REMARK    1  A    between atoms: C_2  and  C_3
REMARK    2  A    between atoms: C_2  and  C_25
REMARK    3  A    between atoms: C_3  and  O_4
REMARK    4  A    between atoms: O_4  and  C_5
REMARK    5  A    between atoms: C_8  and  C_9
REMARK    6  A    between atoms: C_9  and  N_10
REMARK    7  A    between atoms: C_11  and  C_13
REMARK                            x       y       z     vdW  Elec       q    Type
REMARK                         _______ _______ _______ _____ _____    ______ ____
ROOT
ATOM      1  C   UNL     1      49.658   6.685  17.417  0.00  0.00    +0.000 A 
ATOM      2  C   UNL     1      49.235   7.988  17.609  0.00  0.00    +0.000 A 
ATOM      3  C   UNL     1      48.633   8.653  16.542  0.00  0.00    +0.000 A 
ATOM      4  C   UNL     1      48.510   8.010  15.307  0.00  0.00    +0.000 A 
ATOM      5  C   UNL     1      48.972   6.698  15.223  0.00  0.00    +0.000 A 
ATOM      6  N   UNL     1      49.543   6.019  16.249  0.00  0.00    +0.000 NA
ENDROOT
BRANCH   1   7
ATOM      7  O   UNL     1      50.235   6.065  18.504  0.00  0.00    +0.000 OA
BRANCH   7   8
ATOM      8  C   UNL     1      49.401   6.093  19.657  0.00  0.00    +0.000 C 
BRANCH   8  10
ATOM      9  O   UNL     1      48.642   4.219  21.003  0.00  0.00    +0.000 OA
ATOM     10  C   UNL     1      48.765   4.721  19.887  0.00  0.00    +0.000 C 
BRANCH  10  11
ATOM     11  C   UNL     1      48.276   4.034  18.710  0.00  0.00    +0.000 A 
ATOM     12  C   UNL     1      48.781   2.985  17.964  0.00  0.00    +0.000 A 
ATOM     13  C   UNL     1      47.849   2.793  16.928  0.00  0.00    +0.000 A 
ATOM     14  N   UNL     1      46.829   3.648  16.999  0.00  0.00    +0.000 NA
ATOM     15  N   UNL     1      47.105   4.383  18.090  0.00  0.00    +0.000 N 
ATOM     16  H   UNL     1      46.463   5.122  18.364  0.00  0.00    +0.000 HD
ENDBRANCH  10  11
ENDBRANCH   8  10
ENDBRANCH   7   8
ENDBRANCH   1   7
BRANCH   4  17
ATOM     17  C   UNL     1      47.885   8.692  14.126  0.00  0.00    +0.000 C 
BRANCH  17  18
ATOM     18  N   UNL     1      46.716   7.987  13.662  0.00  0.00    +0.000 N 
ATOM     19  C   UNL     1      46.751   7.231  12.515  0.00  0.00    +0.000 C 
ATOM     20  O   UNL     1      47.788   7.074  11.876  0.00  0.00    +0.000 OA
ATOM     21  H   UNL     1      45.817   8.296  14.019  0.00  0.00    +0.000 HD
BRANCH  19  22
ATOM     22  C   UNL     1      45.500   6.568  12.127  0.00  0.00    +0.000 A 
ATOM     23  C   UNL     1      44.485   7.307  11.534  0.00  0.00    +0.000 A 
ATOM     24  S   UNL     1      43.125   6.376  11.093  0.00  0.00    +0.000 S 
ATOM     25  C   UNL     1      43.822   4.960  11.729  0.00  0.00    +0.000 A 
ATOM     26  N   UNL     1      43.153   3.776  11.697  0.00  0.00    +0.000 NA
ATOM     27  C   UNL     1      43.783   2.792  12.246  0.00  0.00    +0.000 A 
ATOM     28  N   UNL     1      45.026   2.882  12.818  0.00  0.00    +0.000 N 
ATOM     29  C   UNL     1      45.753   4.047  12.840  0.00  0.00    +0.000 A 
ATOM     30  O   UNL     1      46.885   4.083  13.313  0.00  0.00    +0.000 OA
ATOM     31  C   UNL     1      45.082   5.191  12.252  0.00  0.00    +0.000 A 
ATOM     32  H   UNL     1      45.468   2.069  13.223  0.00  0.00    +0.000 HD
ENDBRANCH  19  22
ENDBRANCH  17  18
ENDBRANCH   4  17
TORSDOF 7
ENDMDL
MODEL 9
REMARK VINA RESULT:    -6.689      3.881      9.170
REMARK INTER + INTRA:         -10.602
REMARK INTER:                  -9.354
REMARK INTRA:                  -1.248
REMARK UNBOUND:                -1.176
REMARK  Name = 
REMARK  7 active torsions:
REMARK  status: ('A' for Active; 'I' for Inactive)
REMARK    1  A    between atoms: C_2  and  C_3
REMARK    2  A    between atoms: C_2  and  C_25
REMARK    3  A    between atoms: C_3  and  O_4
REMARK    4  A    between atoms: O_4  and  C_5
REMARK    5  A    between atoms: C_8  and  C_9
REMARK    6  A    between atoms: C_9  and  N_10
REMARK    7  A    between atoms: C_11  and  C_13
REMARK                            x       y       z     vdW  Elec       q    Type
REMARK                         _______ _______ _______ _____ _____    ______ ____
ROOT
ATOM      1  C   UNL     1      51.131   4.592  17.927  0.00  0.00    +0.000 A 
ATOM      2  C   UNL     1      50.888   3.243  17.735  0.00  0.00    +0.000 A 
ATOM      3  C   UNL     1      49.619   2.852  17.314  0.00  0.00    +0.000 A 
ATOM      4  C   UNL     1      48.621   3.815  17.137  0.00  0.00    +0.000 A 
ATOM      5  C   UNL     1      48.973   5.144  17.360  0.00  0.00    +0.000 A 
ATOM      6  N   UNL     1      50.205   5.557  17.750  0.00  0.00    +0.000 NA
ENDROOT
BRANCH   1   7
ATOM      7  O   UNL     1      52.404   4.931  18.331  0.00  0.00    +0.000 OA
BRANCH   7   8
ATOM      8  C   UNL     1      53.272   5.202  17.236  0.00  0.00    +0.000 C 
BRANCH   8  10
ATOM      9  O   UNL     1      55.679   4.900  17.108  0.00  0.00    +0.000 OA
ATOM     10  C   UNL     1      54.580   4.424  17.388  0.00  0.00    +0.000 C 
BRANCH  10  11
ATOM     11  C   UNL     1      54.471   3.079  17.914  0.00  0.00    +0.000 A 
ATOM     12  C   UNL     1      54.395   1.841  17.305  0.00  0.00    +0.000 A 
ATOM     13  C   UNL     1      54.280   0.920  18.362  0.00  0.00    +0.000 A 
ATOM     14  N   UNL     1      54.282   1.516  19.554  0.00  0.00    +0.000 NA
ATOM     15  N   UNL     1      54.406   2.820  19.258  0.00  0.00    +0.000 N 
ATOM     16  H   UNL     1      54.432   3.500  20.015  0.00  0.00    +0.000 HD
ENDBRANCH  10  11
ENDBRANCH   8  10
ENDBRANCH   7   8
ENDBRANCH   1   7
BRANCH   4  17
ATOM     17  C   UNL     1      47.235   3.439  16.702  0.00  0.00    +0.000 C 
BRANCH  17  18
ATOM     18  N   UNL     1      46.694   4.395  15.768  0.00  0.00    +0.000 N 
ATOM     19  C   UNL     1      46.788   4.192  14.412  0.00  0.00    +0.000 C 
ATOM     20  O   UNL     1      47.276   3.168  13.943  0.00  0.00    +0.000 OA
ATOM     21  H   UNL     1      46.521   5.333  16.114  0.00  0.00    +0.000 HD
BRANCH  19  22
ATOM     22  C   UNL     1      46.217   5.236  13.551  0.00  0.00    +0.000 A 
ATOM     23  C   UNL     1      46.921   6.414  13.338  0.00  0.00    +0.000 A 
ATOM     24  S   UNL     1      46.145   7.494  12.271  0.00  0.00    +0.000 S 
ATOM     25  C   UNL     1      44.813   6.450  12.097  0.00  0.00    +0.000 A 
ATOM     26  N   UNL     1      43.751   6.794  11.319  0.00  0.00    +0.000 NA
ATOM     27  C   UNL     1      42.795   5.927  11.306  0.00  0.00    +0.000 A 
ATOM     28  N   UNL     1      42.807   4.742  11.997  0.00  0.00    +0.000 N 
ATOM     29  C   UNL     1      43.871   4.338  12.765  0.00  0.00    +0.000 A 
ATOM     30  O   UNL     1      43.873   3.247  13.328  0.00  0.00    +0.000 OA
ATOM     31  C   UNL     1      44.967   5.286  12.828  0.00  0.00    +0.000 A 
ATOM     32  H   UNL     1      42.028   4.102  11.936  0.00  0.00    +0.000 HD
ENDBRANCH  19  22
ENDBRANCH  17  18
ENDBRANCH   4  17
TORSDOF 7
ENDMDL
