MODEL 1
REMARK VINA RESULT:    -8.331      0.000      0.000
REMARK INTER + INTRA:         -12.848
REMARK INTER:                 -11.740
REMARK INTRA:                  -1.108
REMARK UNBOUND:                -1.108
REMARK  Name = 
REMARK  8 active torsions:
REMARK  status: ('A' for Active; 'I' for Inactive)
REMARK    1  A    between atoms: C_1  and  C_2
REMARK    2  A    between atoms: C_2  and  N_3
REMARK    3  A    between atoms: C_2  and  C_25
REMARK    4  A    between atoms: N_3  and  C_4
REMARK    5  A    between atoms: C_4  and  C_5
REMARK    6  A    between atoms: C_8  and  C_9
REMARK    7  A    between atoms: C_9  and  N_10
REMARK    8  A    between atoms: C_11  and  C_13
REMARK                            x       y       z     vdW  Elec       q    Type
REMARK                         _______ _______ _______ _____ _____    ______ ____
ROOT
ATOM      1  C   UNL     1      44.590   5.699  11.000  0.00  0.00    +0.000 A 
ATOM      2  C   UNL     1      45.924   5.846  10.617  0.00  0.00    +0.000 A 
ATOM      3  C   UNL     1      46.773   6.662  11.360  0.00  0.00    +0.000 A 
ATOM      4  C   UNL     1      46.265   7.330  12.466  0.00  0.00    +0.000 A 
ATOM      5  N   UNL     1      44.979   7.197  12.873  0.00  0.00    +0.000 NA
ATOM      6  C   UNL     1      44.177   6.391  12.135  0.00  0.00    +0.000 A 
ENDROOT
BRANCH   1   7
ATOM      7  C   UNL     1      43.649   4.823  10.218  0.00  0.00    +0.000 C 
BRANCH   7   8
ATOM      8  N   UNL     1      44.231   4.445   8.935  0.00  0.00    +0.000 NA
ATOM      9  H   UNL     1      43.636   4.797   8.186  0.00  0.00    +0.000 HD
BRANCH   8  11
ATOM     10  C   UNL     1      44.432   2.204  10.052  0.00  0.00    +0.000 C 
ATOM     11  C   UNL     1      44.352   2.986   8.738  0.00  0.00    +0.000 C 
BRANCH  11  12
ATOM     12  C   UNL     1      45.583   2.632   7.897  0.00  0.00    +0.000 A 
ATOM     13  C   UNL     1      46.122   3.544   6.984  0.00  0.00    +0.000 A 
ATOM     14  C   UNL     1      47.261   3.193   6.267  0.00  0.00    +0.000 A 
ATOM     15  C   UNL     1      47.847   1.955   6.488  0.00  0.00    +0.000 A 
ATOM     16  C   UNL     1      47.260   1.111   7.414  0.00  0.00    +0.000 A 
ATOM     17  N   UNL     1      46.146   1.416   8.116  0.00  0.00    +0.000 NA
ENDBRANCH  11  12
ENDBRANCH   8  11
ENDBRANCH   7   8
ENDBRANCH   1   7
BRANCH   4  18
ATOM     18  C   UNL     1      47.155   8.239  13.278  0.00  0.00    +0.000 C 
BRANCH  18  19
ATOM     19  N   UNL     1      47.525   7.659  14.549  0.00  0.00    +0.000 N 
ATOM     20  C   UNL     1      48.591   6.811  14.684  0.00  0.00    +0.000 C 
ATOM     21  O   UNL     1      49.288   6.481  13.728  0.00  0.00    +0.000 OA
ATOM     22  H   UNL     1      46.824   7.712  15.282  0.00  0.00    +0.000 HD
BRANCH  20  23
ATOM     23  C   UNL     1      48.908   6.372  16.048  0.00  0.00    +0.000 A 
ATOM     24  C   UNL     1      49.727   7.159  16.848  0.00  0.00    +0.000 A 
ATOM     25  S   UNL     1      49.996   6.509  18.400  0.00  0.00    +0.000 S 
ATOM     26  C   UNL     1      49.054   5.136  18.049  0.00  0.00    +0.000 A 
ATOM     27  N   UNL     1      48.906   4.136  18.960  0.00  0.00    +0.000 NA
ATOM     28  C   UNL     1      48.187   3.144  18.551  0.00  0.00    +0.000 A 
ATOM     29  N   UNL     1      47.589   3.071  17.319  0.00  0.00    +0.000 N 
ATOM     30  C   UNL     1      47.667   4.079  16.391  0.00  0.00    +0.000 A 
ATOM     31  O   UNL     1      47.036   4.025  15.340  0.00  0.00    +0.000 OA
ATOM     32  C   UNL     1      48.507   5.194  16.779  0.00  0.00    +0.000 A 
ATOM     33  H   UNL     1      47.010   2.281  17.072  0.00  0.00    +0.000 HD
ENDBRANCH  20  23
ENDBRANCH  18  19
ENDBRANCH   4  18
TORSDOF 7
ENDMDL
MODEL 2
REMARK VINA RESULT:    -7.603      2.145      2.493
REMARK INTER + INTRA:         -11.823
REMARK INTER:                 -10.907
REMARK INTRA:                  -0.916
REMARK UNBOUND:                -1.108
REMARK  Name = 
REMARK  8 active torsions:
REMARK  status: ('A' for Active; 'I' for Inactive)
REMARK    1  A    between atoms: C_1  and  C_2
REMARK    2  A    between atoms: C_2  and  N_3
REMARK    3  A    between atoms: C_2  and  C_25
REMARK    4  A    between atoms: N_3  and  C_4
REMARK    5  A    between atoms: C_4  and  C_5
REMARK    6  A    between atoms: C_8  and  C_9
REMARK    7  A    between atoms: C_9  and  N_10
REMARK    8  A    between atoms: C_11  and  C_13
REMARK                            x       y       z     vdW  Elec       q    Type
REMARK                         _______ _______ _______ _____ _____    ______ ____
ROOT
ATOM      1  C   UNL     1      45.492   6.496  11.766  0.00  0.00    +0.000 A 
ATOM      2  C   UNL     1      46.722   6.014  12.214  0.00  0.00    +0.000 A 
ATOM      3  C   UNL     1      47.555   6.835  12.970  0.00  0.00    +0.000 A 
ATOM      4  C   UNL     1      47.146   8.133  13.250  0.00  0.00    +0.000 A 
ATOM      5  N   UNL     1      45.950   8.626  12.842  0.00  0.00    +0.000 NA
ATOM      6  C   UNL     1      45.157   7.801  12.114  0.00  0.00    +0.000 A 
ENDROOT
BRANCH   1   7
ATOM      7  C   UNL     1      44.571   5.631  10.948  0.00  0.00    +0.000 C 
BRANCH   7   8
ATOM      8  N   UNL     1      45.237   5.152   9.743  0.00  0.00    +0.000 NA
ATOM      9  H   UNL     1      45.157   5.864   9.017  0.00  0.00    +0.000 HD
BRANCH   8  11
ATOM     10  C   UNL     1      44.226   2.914  10.270  0.00  0.00    +0.000 C 
ATOM     11  C   UNL     1      44.658   3.910   9.190  0.00  0.00    +0.000 C 
BRANCH  11  12
ATOM     12  C   UNL     1      45.641   3.201   8.253  0.00  0.00    +0.000 A 
ATOM     13  C   UNL     1      45.968   1.853   8.433  0.00  0.00    +0.000 A 
ATOM     14  C   UNL     1      46.838   1.240   7.538  0.00  0.00    +0.000 A 
ATOM     15  C   UNL     1      47.347   1.974   6.476  0.00  0.00    +0.000 A 
ATOM     16  C   UNL     1      46.969   3.301   6.359  0.00  0.00    +0.000 A 
ATOM     17  N   UNL     1      46.138   3.929   7.221  0.00  0.00    +0.000 NA
ENDBRANCH  11  12
ENDBRANCH   8  11
ENDBRANCH   7   8
ENDBRANCH   1   7
BRANCH   4  18
ATOM     18  C   UNL     1      48.035   9.054  14.049  0.00  0.00    +0.000 C 
BRANCH  18  19
ATOM     19  N   UNL     1      47.749   9.009  15.464  0.00  0.00    +0.000 N 
ATOM     20  C   UNL     1      48.581   8.396  16.360  0.00  0.00    +0.000 C 
ATOM     21  O   UNL     1      49.616   7.832  16.011  0.00  0.00    +0.000 OA
ATOM     22  H   UNL     1      46.795   9.237  15.731  0.00  0.00    +0.000 HD
BRANCH  20  23
ATOM     23  C   UNL     1      48.214   8.508  17.777  0.00  0.00    +0.000 A 
ATOM     24  C   UNL     1      48.144   9.763  18.368  0.00  0.00    +0.000 A 
ATOM     25  S   UNL     1      47.705   9.720  20.014  0.00  0.00    +0.000 S 
ATOM     26  C   UNL     1      47.623   8.021  20.005  0.00  0.00    +0.000 A 
ATOM     27  N   UNL     1      47.333   7.328  21.139  0.00  0.00    +0.000 NA
ATOM     28  C   UNL     1      47.330   6.044  20.993  0.00  0.00    +0.000 A 
ATOM     29  N   UNL     1      47.575   5.393  19.812  0.00  0.00    +0.000 N 
ATOM     30  C   UNL     1      47.820   6.054  18.633  0.00  0.00    +0.000 A 
ATOM     31  O   UNL     1      47.934   5.443  17.575  0.00  0.00    +0.000 OA
ATOM     32  C   UNL     1      47.887   7.496  18.751  0.00  0.00    +0.000 A 
ATOM     33  H   UNL     1      47.525   4.386  19.756  0.00  0.00    +0.000 HD
ENDBRANCH  20  23
ENDBRANCH  18  19
ENDBRANCH   4  18
TORSDOF 7
ENDMDL
MODEL 3
REMARK VINA RESULT:    -6.781      3.454      9.099
REMARK INTER + INTRA:         -10.663
REMARK INTER:                  -9.654
REMARK INTRA:                  -1.010
REMARK UNBOUND:                -1.108
REMARK  Name = 
REMARK  8 active torsions:
REMARK  status: ('A' for Active; 'I' for Inactive)
REMARK    1  A    between atoms: C_1  and  C_2
REMARK    2  A    between atoms: C_2  and  N_3
REMARK    3  A    between atoms: C_2  and  C_25
REMARK    4  A    between atoms: N_3  and  C_4
REMARK    5  A    between atoms: C_4  and  C_5
REMARK    6  A    between atoms: C_8  and  C_9
REMARK    7  A    between atoms: C_9  and  N_10
REMARK    8  A    between atoms: C_11  and  C_13
REMARK                            x       y       z     vdW  Elec       q    Type
REMARK                         _______ _______ _______ _____ _____    ______ ____
ROOT
ATOM      1  C   UNL     1      47.106   6.216  13.687  0.00  0.00    +0.000 A 
ATOM      2  C   UNL     1      46.173   6.637  12.738  0.00  0.00    +0.000 A 
ATOM      3  C   UNL     1      45.264   5.725  12.208  0.00  0.00    +0.000 A 
ATOM      4  C   UNL     1      45.318   4.401  12.627  0.00  0.00    +0.000 A 
ATOM      5  N   UNL     1      46.202   3.965  13.557  0.00  0.00    +0.000 NA
ATOM      6  C   UNL     1      47.070   4.876  14.061  0.00  0.00    +0.000 A 
ENDROOT
BRANCH   1   7
ATOM      7  C   UNL     1      48.101   7.179  14.278  0.00  0.00    +0.000 C 
BRANCH   7   8
ATOM      8  N   UNL     1      47.987   7.222  15.731  0.00  0.00    +0.000 NA
ATOM      9  H   UNL     1      47.733   8.168  16.015  0.00  0.00    +0.000 HD
BRANCH   8  11
ATOM     10  C   UNL     1      50.484   7.010  15.563  0.00  0.00    +0.000 C 
ATOM     11  C   UNL     1      49.236   6.882  16.442  0.00  0.00    +0.000 C 
BRANCH  11  12
ATOM     12  C   UNL     1      49.193   5.458  17.005  0.00  0.00    +0.000 A 
ATOM     13  C   UNL     1      47.990   4.879  17.419  0.00  0.00    +0.000 A 
ATOM     14  C   UNL     1      47.993   3.571  17.892  0.00  0.00    +0.000 A 
ATOM     15  C   UNL     1      49.186   2.863  17.922  0.00  0.00    +0.000 A 
ATOM     16  C   UNL     1      50.334   3.502  17.486  0.00  0.00    +0.000 A 
ATOM     17  N   UNL     1      50.367   4.776  17.037  0.00  0.00    +0.000 NA
ENDBRANCH  11  12
ENDBRANCH   8  11
ENDBRANCH   7   8
ENDBRANCH   1   7
BRANCH   4  18
ATOM     18  C   UNL     1      44.360   3.385  12.054  0.00  0.00    +0.000 C 
BRANCH  18  19
ATOM     19  N   UNL     1      44.953   2.602  10.995  0.00  0.00    +0.000 N 
ATOM     20  C   UNL     1      44.795   2.920   9.673  0.00  0.00    +0.000 C 
ATOM     21  O   UNL     1      44.124   3.883   9.309  0.00  0.00    +0.000 OA
ATOM     22  H   UNL     1      45.286   1.679  11.258  0.00  0.00    +0.000 HD
BRANCH  20  23
ATOM     23  C   UNL     1      45.530   2.093   8.709  0.00  0.00    +0.000 A 
ATOM     24  C   UNL     1      45.358   0.715   8.718  0.00  0.00    +0.000 A 
ATOM     25  S   UNL     1      46.281  -0.097   7.537  0.00  0.00    +0.000 S 
ATOM     26  C   UNL     1      46.967   1.361   6.992  0.00  0.00    +0.000 A 
ATOM     27  N   UNL     1      47.898   1.369   5.999  0.00  0.00    +0.000 NA
ATOM     28  C   UNL     1      48.353   2.541   5.703  0.00  0.00    +0.000 A 
ATOM     29  N   UNL     1      47.947   3.707   6.300  0.00  0.00    +0.000 N 
ATOM     30  C   UNL     1      46.974   3.752   7.266  0.00  0.00    +0.000 A 
ATOM     31  O   UNL     1      46.563   4.821   7.706  0.00  0.00    +0.000 OA
ATOM     32  C   UNL     1      46.467   2.457   7.674  0.00  0.00    +0.000 A 
ATOM     33  H   UNL     1      48.318   4.598   6.000  0.00  0.00    +0.000 HD
ENDBRANCH  20  23
ENDBRANCH  18  19
ENDBRANCH   4  18
TORSDOF 7
ENDMDL
MODEL 4
REMARK VINA RESULT:    -6.687      2.839      8.491
REMARK INTER + INTRA:         -10.531
REMARK INTER:                  -9.349
REMARK INTRA:                  -1.183
REMARK UNBOUND:                -1.108
REMARK  Name = 
REMARK  8 active torsions:
REMARK  status: ('A' for Active; 'I' for Inactive)
REMARK    1  A    between atoms: C_1  and  C_2
REMARK    2  A    between atoms: C_2  and  N_3
REMARK    3  A    between atoms: C_2  and  C_25
REMARK    4  A    between atoms: N_3  and  C_4
REMARK    5  A    between atoms: C_4  and  C_5
REMARK    6  A    between atoms: C_8  and  C_9
REMARK    7  A    between atoms: C_9  and  N_10
REMARK    8  A    between atoms: C_11  and  C_13
REMARK                            x       y       z     vdW  Elec       q    Type
REMARK                         _______ _______ _______ _____ _____    ______ ____
ROOT
ATOM      1  C   UNL     1      50.482   7.814  15.240  0.00  0.00    +0.000 A 
ATOM      2  C   UNL     1      51.041   8.137  14.003  0.00  0.00    +0.000 A 
ATOM      3  C   UNL     1      50.241   8.149  12.863  0.00  0.00    +0.000 A 
ATOM      4  C   UNL     1      48.897   7.821  12.981  0.00  0.00    +0.000 A 
ATOM      5  N   UNL     1      48.321   7.517  14.171  0.00  0.00    +0.000 NA
ATOM      6  C   UNL     1      49.122   7.521  15.265  0.00  0.00    +0.000 A 
ENDROOT
BRANCH   1   7
ATOM      7  C   UNL     1      51.321   7.794  16.490  0.00  0.00    +0.000 C 
BRANCH   7   8
ATOM      8  N   UNL     1      51.476   6.434  16.994  0.00  0.00    +0.000 NA
ATOM      9  H   UNL     1      51.260   5.778  16.244  0.00  0.00    +0.000 HD
BRANCH   8  11
ATOM     10  C   UNL     1      51.335   5.762  19.410  0.00  0.00    +0.000 C 
ATOM     11  C   UNL     1      50.581   6.106  18.122  0.00  0.00    +0.000 C 
BRANCH  11  12
ATOM     12  C   UNL     1      49.656   4.933  17.783  0.00  0.00    +0.000 A 
ATOM     13  C   UNL     1      50.169   3.657  17.529  0.00  0.00    +0.000 A 
ATOM     14  C   UNL     1      49.290   2.614  17.260  0.00  0.00    +0.000 A 
ATOM     15  C   UNL     1      47.924   2.857  17.269  0.00  0.00    +0.000 A 
ATOM     16  C   UNL     1      47.493   4.145  17.538  0.00  0.00    +0.000 A 
ATOM     17  N   UNL     1      48.321   5.183  17.789  0.00  0.00    +0.000 NA
ENDBRANCH  11  12
ENDBRANCH   8  11
ENDBRANCH   7   8
ENDBRANCH   1   7
BRANCH   4  18
ATOM     18  C   UNL     1      48.009   7.804  11.761  0.00  0.00    +0.000 C 
BRANCH  18  19
ATOM     19  N   UNL     1      47.158   6.638  11.713  0.00  0.00    +0.000 N 
ATOM     20  C   UNL     1      45.793   6.726  11.758  0.00  0.00    +0.000 C 
ATOM     21  O   UNL     1      45.211   7.804  11.858  0.00  0.00    +0.000 OA
ATOM     22  H   UNL     1      47.614   5.747  11.888  0.00  0.00    +0.000 HD
BRANCH  20  23
ATOM     23  C   UNL     1      45.051   5.469  11.606  0.00  0.00    +0.000 A 
ATOM     24  C   UNL     1      44.274   5.001  12.658  0.00  0.00    +0.000 A 
ATOM     25  S   UNL     1      43.478   3.533  12.320  0.00  0.00    +0.000 S 
ATOM     26  C   UNL     1      44.167   3.453  10.766  0.00  0.00    +0.000 A 
ATOM     27  N   UNL     1      43.924   2.395   9.945  0.00  0.00    +0.000 NA
ATOM     28  C   UNL     1      44.532   2.452   8.807  0.00  0.00    +0.000 A 
ATOM     29  N   UNL     1      45.347   3.481   8.410  0.00  0.00    +0.000 N 
ATOM     30  C   UNL     1      45.577   4.592   9.183  0.00  0.00    +0.000 A 
ATOM     31  O   UNL     1      46.229   5.539   8.756  0.00  0.00    +0.000 OA
ATOM     32  C   UNL     1      44.961   4.554  10.494  0.00  0.00    +0.000 A 
ATOM     33  H   UNL     1      45.768   3.482   7.491  0.00  0.00    +0.000 HD
ENDBRANCH  20  23
ENDBRANCH  18  19
ENDBRANCH   4  18
TORSDOF 7
ENDMDL
MODEL 5
REMARK VINA RESULT:    -6.563      5.190      7.188
REMARK INTER + INTRA:         -10.356
REMARK INTER:                  -9.475
REMARK INTRA:                  -0.881
REMARK UNBOUND:                -1.108
REMARK  Name = 
REMARK  8 active torsions:
REMARK  status: ('A' for Active; 'I' for Inactive)
REMARK    1  A    between atoms: C_1  and  C_2
REMARK    2  A    between atoms: C_2  and  N_3
REMARK    3  A    between atoms: C_2  and  C_25
REMARK    4  A    between atoms: N_3  and  C_4
REMARK    5  A    between atoms: C_4  and  C_5
REMARK    6  A    between atoms: C_8  and  C_9
REMARK    7  A    between atoms: C_9  and  N_10
REMARK    8  A    between atoms: C_11  and  C_13
REMARK                            x       y       z     vdW  Elec       q    Type
REMARK                         _______ _______ _______ _____ _____    ______ ____
ROOT
ATOM      1  C   UNL     1      46.889   7.053  12.629  0.00  0.00    +0.000 A 
ATOM      2  C   UNL     1      47.133   8.335  12.136  0.00  0.00    +0.000 A 
ATOM      3  C   UNL     1      48.443   8.763  11.938  0.00  0.00    +0.000 A 
ATOM      4  C   UNL     1      49.487   7.902  12.252  0.00  0.00    +0.000 A 
ATOM      5  N   UNL     1      49.282   6.645  12.718  0.00  0.00    +0.000 NA
ATOM      6  C   UNL     1      47.997   6.253  12.894  0.00  0.00    +0.000 A 
ENDROOT
BRANCH   1   7
ATOM      7  C   UNL     1      45.483   6.562  12.853  0.00  0.00    +0.000 C 
BRANCH   7   8
ATOM      8  N   UNL     1      45.270   5.273  12.206  0.00  0.00    +0.000 NA
ATOM      9  H   UNL     1      46.175   4.876  11.956  0.00  0.00    +0.000 HD
BRANCH   8  11
ATOM     10  C   UNL     1      42.984   5.079  11.184  0.00  0.00    +0.000 C 
ATOM     11  C   UNL     1      44.476   5.349  10.963  0.00  0.00    +0.000 C 
BRANCH  11  12
ATOM     12  C   UNL     1      44.988   4.363   9.908  0.00  0.00    +0.000 A 
ATOM     13  C   UNL     1      44.762   2.989  10.031  0.00  0.00    +0.000 A 
ATOM     14  C   UNL     1      45.215   2.134   9.032  0.00  0.00    +0.000 A 
ATOM     15  C   UNL     1      45.862   2.666   7.926  0.00  0.00    +0.000 A 
ATOM     16  C   UNL     1      46.040   4.038   7.872  0.00  0.00    +0.000 A 
ATOM     17  N   UNL     1      45.626   4.893   8.833  0.00  0.00    +0.000 NA
ENDBRANCH  11  12
ENDBRANCH   8  11
ENDBRANCH   7   8
ENDBRANCH   1   7
BRANCH   4  18
ATOM     18  C   UNL     1      50.918   8.345  12.068  0.00  0.00    +0.000 C 
BRANCH  18  19
ATOM     19  N   UNL     1      51.362   8.226  10.698  0.00  0.00    +0.000 N 
ATOM     20  C   UNL     1      52.687   8.205  10.357  0.00  0.00    +0.000 C 
ATOM     21  O   UNL     1      53.579   8.302  11.197  0.00  0.00    +0.000 OA
ATOM     22  H   UNL     1      50.658   8.401   9.986  0.00  0.00    +0.000 HD
BRANCH  20  23
ATOM     23  C   UNL     1      52.994   7.984   8.939  0.00  0.00    +0.000 A 
ATOM     24  C   UNL     1      52.886   9.039   8.043  0.00  0.00    +0.000 A 
ATOM     25  S   UNL     1      53.278   8.618   6.439  0.00  0.00    +0.000 S 
ATOM     26  C   UNL     1      53.577   7.002   6.878  0.00  0.00    +0.000 A 
ATOM     27  N   UNL     1      53.921   6.074   5.944  0.00  0.00    +0.000 NA
ATOM     28  C   UNL     1      54.093   4.883   6.413  0.00  0.00    +0.000 A 
ATOM     29  N   UNL     1      53.968   4.541   7.735  0.00  0.00    +0.000 N 
ATOM     30  C   UNL     1      53.675   5.454   8.718  0.00  0.00    +0.000 A 
ATOM     31  O   UNL     1      53.671   5.133   9.902  0.00  0.00    +0.000 OA
ATOM     32  C   UNL     1      53.420   6.797   8.238  0.00  0.00    +0.000 A 
ATOM     33  H   UNL     1      54.148   3.596   8.044  0.00  0.00    +0.000 HD
ENDBRANCH  20  23
ENDBRANCH  18  19
ENDBRANCH   4  18
TORSDOF 7
ENDMDL
MODEL 6
REMARK VINA RESULT:    -6.482      4.530      5.626
REMARK INTER + INTRA:         -10.242
REMARK INTER:                  -9.086
REMARK INTRA:                  -1.156
REMARK UNBOUND:                -1.108
REMARK  Name = 
REMARK  8 active torsions:
REMARK  status: ('A' for Active; 'I' for Inactive)
REMARK    1  A    between atoms: C_1  and  C_2
REMARK    2  A    between atoms: C_2  and  N_3
REMARK    3  A    between atoms: C_2  and  C_25
REMARK    4  A    between atoms: N_3  and  C_4
REMARK    5  A    between atoms: C_4  and  C_5
REMARK    6  A    between atoms: C_8  and  C_9
REMARK    7  A    between atoms: C_9  and  N_10
REMARK    8  A    between atoms: C_11  and  C_13
REMARK                            x       y       z     vdW  Elec       q    Type
REMARK                         _______ _______ _______ _____ _____    ______ ____
ROOT
ATOM      1  C   UNL     1      45.721   7.116  11.981  0.00  0.00    +0.000 A 
ATOM      2  C   UNL     1      46.964   6.534  11.728  0.00  0.00    +0.000 A 
ATOM      3  C   UNL     1      48.110   7.325  11.720  0.00  0.00    +0.000 A 
ATOM      4  C   UNL     1      47.988   8.689  11.950  0.00  0.00    +0.000 A 
ATOM      5  N   UNL     1      46.797   9.282  12.213  0.00  0.00    +0.000 NA
ATOM      6  C   UNL     1      45.699   8.487  12.222  0.00  0.00    +0.000 A 
ENDROOT
BRANCH   1   7
ATOM      7  C   UNL     1      44.465   6.287  11.997  0.00  0.00    +0.000 C 
BRANCH   7   8
ATOM      8  N   UNL     1      44.117   5.838  10.654  0.00  0.00    +0.000 NA
ATOM      9  H   UNL     1      43.280   6.333  10.346  0.00  0.00    +0.000 HD
BRANCH   8  11
ATOM     10  C   UNL     1      43.991   3.656  11.892  0.00  0.00    +0.000 C 
ATOM     11  C   UNL     1      43.819   4.394  10.561  0.00  0.00    +0.000 C 
BRANCH  11  12
ATOM     12  C   UNL     1      44.701   3.704   9.516  0.00  0.00    +0.000 A 
ATOM     13  C   UNL     1      45.455   4.445   8.601  0.00  0.00    +0.000 A 
ATOM     14  C   UNL     1      46.269   3.777   7.693  0.00  0.00    +0.000 A 
ATOM     15  C   UNL     1      46.329   2.392   7.727  0.00  0.00    +0.000 A 
ATOM     16  C   UNL     1      45.560   1.728   8.668  0.00  0.00    +0.000 A 
ATOM     17  N   UNL     1      44.749   2.347   9.554  0.00  0.00    +0.000 NA
ENDBRANCH  11  12
ENDBRANCH   8  11
ENDBRANCH   7   8
ENDBRANCH   1   7
BRANCH   4  18
ATOM     18  C   UNL     1      49.209   9.575  11.926  0.00  0.00    +0.000 C 
BRANCH  18  19
ATOM     19  N   UNL     1      50.439   8.824  12.031  0.00  0.00    +0.000 N 
ATOM     20  C   UNL     1      51.526   9.086  11.244  0.00  0.00    +0.000 C 
ATOM     21  O   UNL     1      51.515   9.967  10.387  0.00  0.00    +0.000 OA
ATOM     22  H   UNL     1      50.381   7.946  12.539  0.00  0.00    +0.000 HD
BRANCH  20  23
ATOM     23  C   UNL     1      52.739   8.309  11.523  0.00  0.00    +0.000 A 
ATOM     24  C   UNL     1      53.419   8.506  12.718  0.00  0.00    +0.000 A 
ATOM     25  S   UNL     1      54.803   7.527  12.888  0.00  0.00    +0.000 S 
ATOM     26  C   UNL     1      54.562   6.825  11.356  0.00  0.00    +0.000 A 
ATOM     27  N   UNL     1      55.439   5.912  10.859  0.00  0.00    +0.000 NA
ATOM     28  C   UNL     1      55.148   5.481   9.676  0.00  0.00    +0.000 A 
ATOM     29  N   UNL     1      54.048   5.870   8.955  0.00  0.00    +0.000 N 
ATOM     30  C   UNL     1      53.110   6.747   9.439  0.00  0.00    +0.000 A 
ATOM     31  O   UNL     1      52.086   6.995   8.809  0.00  0.00    +0.000 OA
ATOM     32  C   UNL     1      53.417   7.302  10.742  0.00  0.00    +0.000 A 
ATOM     33  H   UNL     1      53.858   5.471   8.047  0.00  0.00    +0.000 HD
ENDBRANCH  20  23
ENDBRANCH  18  19
ENDBRANCH   4  18
TORSDOF 7
ENDMDL
MODEL 7
REMARK VINA RESULT:    -6.030      4.946      7.962
REMARK INTER + INTRA:          -9.605
REMARK INTER:                  -8.531
REMARK INTRA:                  -1.075
REMARK UNBOUND:                -1.108
REMARK  Name = 
REMARK  8 active torsions:
REMARK  status: ('A' for Active; 'I' for Inactive)
REMARK    1  A    between atoms: C_1  and  C_2
REMARK    2  A    between atoms: C_2  and  N_3
REMARK    3  A    between atoms: C_2  and  C_25
REMARK    4  A    between atoms: N_3  and  C_4
REMARK    5  A    between atoms: C_4  and  C_5
REMARK    6  A    between atoms: C_8  and  C_9
REMARK    7  A    between atoms: C_9  and  N_10
REMARK    8  A    between atoms: C_11  and  C_13
REMARK                            x       y       z     vdW  Elec       q    Type
REMARK                         _______ _______ _______ _____ _____    ______ ____
ROOT
ATOM      1  C   UNL     1      50.774   8.374  12.575  0.00  0.00    +0.000 A 
ATOM      2  C   UNL     1      50.015   8.952  13.593  0.00  0.00    +0.000 A 
ATOM      3  C   UNL     1      48.625   8.888  13.545  0.00  0.00    +0.000 A 
ATOM      4  C   UNL     1      48.018   8.258  12.466  0.00  0.00    +0.000 A 
ATOM      5  N   UNL     1      48.727   7.674  11.468  0.00  0.00    +0.000 NA
ATOM      6  C   UNL     1      50.079   7.746  11.545  0.00  0.00    +0.000 A 
ENDROOT
BRANCH   1   7
ATOM      7  C   UNL     1      52.278   8.427  12.600  0.00  0.00    +0.000 C 
BRANCH   7   8
ATOM      8  N   UNL     1      52.846   7.702  11.470  0.00  0.00    +0.000 NA
ATOM      9  H   UNL     1      53.461   6.969  11.825  0.00  0.00    +0.000 HD
BRANCH   8  11
ATOM     10  C   UNL     1      53.406  10.041  10.746  0.00  0.00    +0.000 C 
ATOM     11  C   UNL     1      53.657   8.540  10.564  0.00  0.00    +0.000 C 
BRANCH  11  12
ATOM     12  C   UNL     1      53.402   8.189   9.095  0.00  0.00    +0.000 A 
ATOM     13  C   UNL     1      52.701   7.033   8.738  0.00  0.00    +0.000 A 
ATOM     14  C   UNL     1      52.463   6.771   7.393  0.00  0.00    +0.000 A 
ATOM     15  C   UNL     1      52.910   7.673   6.437  0.00  0.00    +0.000 A 
ATOM     16  C   UNL     1      53.589   8.799   6.869  0.00  0.00    +0.000 A 
ATOM     17  N   UNL     1      53.849   9.074   8.167  0.00  0.00    +0.000 NA
ENDBRANCH  11  12
ENDBRANCH   8  11
ENDBRANCH   7   8
ENDBRANCH   1   7
BRANCH   4  18
ATOM     18  C   UNL     1      46.514   8.191  12.374  0.00  0.00    +0.000 C 
BRANCH  18  19
ATOM     19  N   UNL     1      46.033   6.848  12.142  0.00  0.00    +0.000 N 
ATOM     20  C   UNL     1      44.795   6.594  11.619  0.00  0.00    +0.000 C 
ATOM     21  O   UNL     1      44.011   7.495  11.328  0.00  0.00    +0.000 OA
ATOM     22  H   UNL     1      46.550   6.106  12.606  0.00  0.00    +0.000 HD
BRANCH  20  23
ATOM     23  C   UNL     1      44.475   5.188  11.349  0.00  0.00    +0.000 A 
ATOM     24  C   UNL     1      43.703   4.475  12.258  0.00  0.00    +0.000 A 
ATOM     25  S   UNL     1      43.422   2.858  11.797  0.00  0.00    +0.000 S 
ATOM     26  C   UNL     1      44.347   3.043  10.381  0.00  0.00    +0.000 A 
ATOM     27  N   UNL     1      44.550   1.997   9.536  0.00  0.00    +0.000 NA
ATOM     28  C   UNL     1      45.292   2.271   8.515  0.00  0.00    +0.000 A 
ATOM     29  N   UNL     1      45.836   3.504   8.256  0.00  0.00    +0.000 N 
ATOM     30  C   UNL     1      45.613   4.599   9.052  0.00  0.00    +0.000 A 
ATOM     31  O   UNL     1      46.030   5.710   8.736  0.00  0.00    +0.000 OA
ATOM     32  C   UNL     1      44.829   4.333  10.242  0.00  0.00    +0.000 A 
ATOM     33  H   UNL     1      46.381   3.663   7.421  0.00  0.00    +0.000 HD
ENDBRANCH  20  23
ENDBRANCH  18  19
ENDBRANCH   4  18
TORSDOF 7
ENDMDL
MODEL 8
REMARK VINA RESULT:    -5.850      2.746      4.543
REMARK INTER + INTRA:          -9.351
REMARK INTER:                  -8.226
REMARK INTRA:                  -1.125
REMARK UNBOUND:                -1.108
REMARK  Name = 
REMARK  8 active torsions:
REMARK  status: ('A' for Active; 'I' for Inactive)
REMARK    1  A    between atoms: C_1  and  C_2
REMARK    2  A    between atoms: C_2  and  N_3
REMARK    3  A    between atoms: C_2  and  C_25
REMARK    4  A    between atoms: N_3  and  C_4
REMARK    5  A    between atoms: C_4  and  C_5
REMARK    6  A    between atoms: C_8  and  C_9
REMARK    7  A    between atoms: C_9  and  N_10
REMARK    8  A    between atoms: C_11  and  C_13
REMARK                            x       y       z     vdW  Elec       q    Type
REMARK                         _______ _______ _______ _____ _____    ______ ____
ROOT
ATOM      1  C   UNL     1      48.159   7.981  13.509  0.00  0.00    +0.000 A 
ATOM      2  C   UNL     1      47.719   8.908  14.454  0.00  0.00    +0.000 A 
ATOM      3  C   UNL     1      48.410   9.057  15.654  0.00  0.00    +0.000 A 
ATOM      4  C   UNL     1      49.523   8.260  15.892  0.00  0.00    +0.000 A 
ATOM      5  N   UNL     1      49.984   7.361  14.988  0.00  0.00    +0.000 NA
ATOM      6  C   UNL     1      49.296   7.243  13.826  0.00  0.00    +0.000 A 
ENDROOT
BRANCH   1   7
ATOM      7  C   UNL     1      47.434   7.799  12.203  0.00  0.00    +0.000 C 
BRANCH   7   8
ATOM      8  N   UNL     1      47.266   6.385  11.890  0.00  0.00    +0.000 NA
ATOM      9  H   UNL     1      47.379   6.254  10.885  0.00  0.00    +0.000 HD
BRANCH   8  11
ATOM     10  C   UNL     1      45.928   5.114  13.593  0.00  0.00    +0.000 C 
ATOM     11  C   UNL     1      45.939   5.844  12.247  0.00  0.00    +0.000 C 
BRANCH  11  12
ATOM     12  C   UNL     1      45.420   4.878  11.177  0.00  0.00    +0.000 A 
ATOM     13  C   UNL     1      44.734   3.711  11.527  0.00  0.00    +0.000 A 
ATOM     14  C   UNL     1      44.250   2.880  10.522  0.00  0.00    +0.000 A 
ATOM     15  C   UNL     1      44.441   3.239   9.195  0.00  0.00    +0.000 A 
ATOM     16  C   UNL     1      45.122   4.414   8.928  0.00  0.00    +0.000 A 
ATOM     17  N   UNL     1      45.617   5.234   9.881  0.00  0.00    +0.000 NA
ENDBRANCH  11  12
ENDBRANCH   8  11
ENDBRANCH   7   8
ENDBRANCH   1   7
BRANCH   4  18
ATOM     18  C   UNL     1      50.279   8.382  17.192  0.00  0.00    +0.000 C 
BRANCH  18  19
ATOM     19  N   UNL     1      51.083   7.216  17.475  0.00  0.00    +0.000 N 
ATOM     20  C   UNL     1      50.674   6.237  18.339  0.00  0.00    +0.000 C 
ATOM     21  O   UNL     1      49.603   6.300  18.938  0.00  0.00    +0.000 OA
ATOM     22  H   UNL     1      52.059   7.272  17.198  0.00  0.00    +0.000 HD
BRANCH  20  23
ATOM     23  C   UNL     1      51.549   5.064  18.460  0.00  0.00    +0.000 A 
ATOM     24  C   UNL     1      52.768   5.184  19.114  0.00  0.00    +0.000 A 
ATOM     25  S   UNL     1      53.661   3.733  19.169  0.00  0.00    +0.000 S 
ATOM     26  C   UNL     1      52.463   2.899  18.294  0.00  0.00    +0.000 A 
ATOM     27  N   UNL     1      52.627   1.592  17.954  0.00  0.00    +0.000 NA
ATOM     28  C   UNL     1      51.652   1.093  17.269  0.00  0.00    +0.000 A 
ATOM     29  N   UNL     1      50.521   1.780  16.909  0.00  0.00    +0.000 N 
ATOM     30  C   UNL     1      50.291   3.082  17.275  0.00  0.00    +0.000 A 
ATOM     31  O   UNL     1      49.224   3.634  17.023  0.00  0.00    +0.000 OA
ATOM     32  C   UNL     1      51.378   3.707  18.001  0.00  0.00    +0.000 A 
ATOM     33  H   UNL     1      49.778   1.322  16.400  0.00  0.00    +0.000 HD
ENDBRANCH  20  23
ENDBRANCH  18  19
ENDBRANCH   4  18
TORSDOF 7
ENDMDL
MODEL 9
REMARK VINA RESULT:    -5.747      4.813      7.239
REMARK INTER + INTRA:          -9.207
REMARK INTER:                  -8.678
REMARK INTRA:                  -0.529
REMARK UNBOUND:                -1.108
REMARK  Name = 
REMARK  8 active torsions:
REMARK  status: ('A' for Active; 'I' for Inactive)
REMARK    1  A    between atoms: C_1  and  C_2
REMARK    2  A    between atoms: C_2  and  N_3
REMARK    3  A    between atoms: C_2  and  C_25
REMARK    4  A    between atoms: N_3  and  C_4
REMARK    5  A    between atoms: C_4  and  C_5
REMARK    6  A    between atoms: C_8  and  C_9
REMARK    7  A    between atoms: C_9  and  N_10
REMARK    8  A    between atoms: C_11  and  C_13
REMARK                            x       y       z     vdW  Elec       q    Type
REMARK                         _______ _______ _______ _____ _____    ______ ____
ROOT
ATOM      1  C   UNL     1      51.936   9.221  12.755  0.00  0.00    +0.000 A 
ATOM      2  C   UNL     1      50.670   9.264  12.169  0.00  0.00    +0.000 A 
ATOM      3  C   UNL     1      49.566   8.782  12.867  0.00  0.00    +0.000 A 
ATOM      4  C   UNL     1      49.753   8.250  14.136  0.00  0.00    +0.000 A 
ATOM      5  N   UNL     1      50.966   8.208  14.739  0.00  0.00    +0.000 NA
ATOM      6  C   UNL     1      52.022   8.691  14.039  0.00  0.00    +0.000 A 
ENDROOT
BRANCH   1   7
ATOM      7  C   UNL     1      53.148   9.735  12.025  0.00  0.00    +0.000 C 
BRANCH   7   8
ATOM      8  N   UNL     1      53.322   9.046  10.751  0.00  0.00    +0.000 NA
ATOM      9  H   UNL     1      52.445   9.085  10.232  0.00  0.00    +0.000 HD
BRANCH   8  11
ATOM     10  C   UNL     1      55.130   7.400  11.326  0.00  0.00    +0.000 C 
ATOM     11  C   UNL     1      53.680   7.620  10.884  0.00  0.00    +0.000 C 
BRANCH  11  12
ATOM     12  C   UNL     1      53.463   6.861   9.570  0.00  0.00    +0.000 A 
ATOM     13  C   UNL     1      52.557   7.321   8.610  0.00  0.00    +0.000 A 
ATOM     14  C   UNL     1      52.416   6.619   7.418  0.00  0.00    +0.000 A 
ATOM     15  C   UNL     1      53.193   5.491   7.199  0.00  0.00    +0.000 A 
ATOM     16  C   UNL     1      54.074   5.103   8.194  0.00  0.00    +0.000 A 
ATOM     17  N   UNL     1      54.223   5.754   9.369  0.00  0.00    +0.000 NA
ENDBRANCH  11  12
ENDBRANCH   8  11
ENDBRANCH   7   8
ENDBRANCH   1   7
BRANCH   4  18
ATOM     18  C   UNL     1      48.579   7.701  14.909  0.00  0.00    +0.000 C 
BRANCH  18  19
ATOM     19  N   UNL     1      47.444   7.414  14.061  0.00  0.00    +0.000 N 
ATOM     20  C   UNL     1      47.226   6.174  13.525  0.00  0.00    +0.000 C 
ATOM     21  O   UNL     1      47.993   5.234  13.721  0.00  0.00    +0.000 OA
ATOM     22  H   UNL     1      46.955   8.222  13.686  0.00  0.00    +0.000 HD
BRANCH  20  23
ATOM     23  C   UNL     1      45.985   6.001  12.761  0.00  0.00    +0.000 A 
ATOM     24  C   UNL     1      45.365   7.111  12.202  0.00  0.00    +0.000 A 
ATOM     25  S   UNL     1      43.938   6.740  11.347  0.00  0.00    +0.000 S 
ATOM     26  C   UNL     1      44.081   5.085  11.719  0.00  0.00    +0.000 A 
ATOM     27  N   UNL     1      43.137   4.193  11.314  0.00  0.00    +0.000 NA
ATOM     28  C   UNL     1      43.358   2.976  11.688  0.00  0.00    +0.000 A 
ATOM     29  N   UNL     1      44.448   2.570  12.415  0.00  0.00    +0.000 N 
ATOM     30  C   UNL     1      45.450   3.427  12.798  0.00  0.00    +0.000 A 
ATOM     31  O   UNL     1      46.460   3.012  13.359  0.00  0.00    +0.000 OA
ATOM     32  C   UNL     1      45.225   4.815  12.450  0.00  0.00    +0.000 A 
ATOM     33  H   UNL     1      44.580   1.597  12.648  0.00  0.00    +0.000 HD
ENDBRANCH  20  23
ENDBRANCH  18  19
ENDBRANCH   4  18
TORSDOF 7
ENDMDL
