MODEL 1
REMARK VINA RESULT:    -7.467      0.000      0.000
REMARK INTER + INTRA:          -9.987
REMARK INTER:                  -9.650
REMARK INTRA:                  -0.337
REMARK UNBOUND:                -0.337
REMARK  Name = 
REMARK  7 active torsions:
REMARK  status: ('A' for Active; 'I' for Inactive)
REMARK    1  A    between atoms: C_1  and  N_2
REMARK    2  A    between atoms: N_2  and  C_3
REMARK    3  A    between atoms: C_4  and  C_6
REMARK    4  A    between atoms: C_9  and  O_10
REMARK    5  A    between atoms: O_10  and  C_11
REMARK    6  A    between atoms: C_11  and  C_12
REMARK    7  A    between atoms: C_12  and  C_15
REMARK                            x       y       z     vdW  Elec       q    Type
REMARK                         _______ _______ _______ _____ _____    ______ ____
ROOT
ATOM      1  C   UNL     1      46.916   6.339  12.767  0.00  0.00    +0.000 A 
ATOM      2  C   UNL     1      45.954   5.620  13.467  0.00  0.00    +0.000 A 
ATOM      3  C   UNL     1      44.915   4.969  12.802  0.00  0.00    +0.000 A 
ATOM      4  C   UNL     1      44.768   5.103  11.424  0.00  0.00    +0.000 A 
ATOM      5  C   UNL     1      45.673   5.901  10.721  0.00  0.00    +0.000 A 
ATOM      6  C   UNL     1      46.747   6.511  11.382  0.00  0.00    +0.000 A 
ENDROOT
BRANCH   1  10
ATOM      7  C   UNL     1      49.371   8.919  14.159  0.00  0.00    +0.000 C 
ATOM      8  N   UNL     1      48.177   8.391  13.518  0.00  0.00    +0.000 N 
ATOM      9  C   UNL     1      47.121   9.346  13.202  0.00  0.00    +0.000 C 
ATOM     10  C   UNL     1      48.079   6.992  13.440  0.00  0.00    +0.000 C 
ATOM     11  O   UNL     1      48.936   6.255  13.928  0.00  0.00    +0.000 OA
ENDBRANCH   1  10
BRANCH   4  12
ATOM     12  O   UNL     1      43.780   4.517  10.681  0.00  0.00    +0.000 OA
BRANCH  12  13
ATOM     13  C   UNL     1      44.173   4.041   9.382  0.00  0.00    +0.000 C 
BRANCH  13  14
ATOM     14  C   UNL     1      44.813   2.653   9.457  0.00  0.00    +0.000 C 
ATOM     15  F   UNL     1      45.419   2.530  10.684  0.00  0.00    +0.000 F 
ATOM     16  F   UNL     1      43.798   1.733   9.488  0.00  0.00    +0.000 F 
BRANCH  14  17
ATOM     17  C   UNL     1      45.761   2.424   8.294  0.00  0.00    +0.000 A 
ATOM     18  C   UNL     1      45.953   3.428   7.351  0.00  0.00    +0.000 A 
ATOM     19  C   UNL     1      46.809   3.200   6.281  0.00  0.00    +0.000 A 
ATOM     20  C   UNL     1      47.461   1.973   6.177  0.00  0.00    +0.000 A 
ATOM     21  C   UNL     1      47.225   1.027   7.156  0.00  0.00    +0.000 A 
ATOM     22  N   UNL     1      46.404   1.220   8.210  0.00  0.00    +0.000 NA
ENDBRANCH  14  17
ENDBRANCH  13  14
ENDBRANCH  12  13
ENDBRANCH   4  12
TORSDOF 5
ENDMDL
MODEL 2
REMARK VINA RESULT:    -6.968      1.639      2.294
REMARK INTER + INTRA:          -9.342
REMARK INTER:                  -8.411
REMARK INTRA:                  -0.931
REMARK UNBOUND:                -0.337
REMARK  Name = 
REMARK  7 active torsions:
REMARK  status: ('A' for Active; 'I' for Inactive)
REMARK    1  A    between atoms: C_1  and  N_2
REMARK    2  A    between atoms: N_2  and  C_3
REMARK    3  A    between atoms: C_4  and  C_6
REMARK    4  A    between atoms: C_9  and  O_10
REMARK    5  A    between atoms: O_10  and  C_11
REMARK    6  A    between atoms: C_11  and  C_12
REMARK    7  A    between atoms: C_12  and  C_15
REMARK                            x       y       z     vdW  Elec       q    Type
REMARK                         _______ _______ _______ _____ _____    ______ ____
ROOT
ATOM      1  C   UNL     1      47.947   7.232  12.429  0.00  0.00    +0.000 A 
ATOM      2  C   UNL     1      46.772   7.562  11.764  0.00  0.00    +0.000 A 
ATOM      3  C   UNL     1      45.615   6.800  11.924  0.00  0.00    +0.000 A 
ATOM      4  C   UNL     1      45.639   5.636  12.687  0.00  0.00    +0.000 A 
ATOM      5  C   UNL     1      46.837   5.241  13.284  0.00  0.00    +0.000 A 
ATOM      6  C   UNL     1      47.986   6.036  13.165  0.00  0.00    +0.000 A 
ENDROOT
BRANCH   1  10
ATOM      7  C   UNL     1      50.624   9.903  12.997  0.00  0.00    +0.000 C 
ATOM      8  N   UNL     1      49.405   9.138  13.207  0.00  0.00    +0.000 N 
ATOM      9  C   UNL     1      48.640   9.436  14.413  0.00  0.00    +0.000 C 
ATOM     10  C   UNL     1      49.186   8.062  12.332  0.00  0.00    +0.000 C 
ATOM     11  O   UNL     1      50.004   7.757  11.464  0.00  0.00    +0.000 OA
ENDBRANCH   1  10
BRANCH   4  12
ATOM     12  O   UNL     1      44.564   4.815  12.897  0.00  0.00    +0.000 OA
BRANCH  12  13
ATOM     13  C   UNL     1      44.686   3.481  12.374  0.00  0.00    +0.000 C 
BRANCH  13  14
ATOM     14  C   UNL     1      43.828   3.282  11.123  0.00  0.00    +0.000 C 
ATOM     15  F   UNL     1      43.057   2.159  11.310  0.00  0.00    +0.000 F 
ATOM     16  F   UNL     1      42.922   4.309  11.077  0.00  0.00    +0.000 F 
BRANCH  14  17
ATOM     17  C   UNL     1      44.687   3.218   9.874  0.00  0.00    +0.000 A 
ATOM     18  C   UNL     1      45.057   4.393   9.228  0.00  0.00    +0.000 A 
ATOM     19  C   UNL     1      45.829   4.321   8.075  0.00  0.00    +0.000 A 
ATOM     20  C   UNL     1      46.221   3.075   7.592  0.00  0.00    +0.000 A 
ATOM     21  C   UNL     1      45.821   1.952   8.291  0.00  0.00    +0.000 A 
ATOM     22  N   UNL     1      45.076   1.989   9.416  0.00  0.00    +0.000 NA
ENDBRANCH  14  17
ENDBRANCH  13  14
ENDBRANCH  12  13
ENDBRANCH   4  12
TORSDOF 5
ENDMDL
MODEL 3
REMARK VINA RESULT:    -6.962      1.600      1.987
REMARK INTER + INTRA:          -9.334
REMARK INTER:                  -9.164
REMARK INTRA:                  -0.170
REMARK UNBOUND:                -0.337
REMARK  Name = 
REMARK  7 active torsions:
REMARK  status: ('A' for Active; 'I' for Inactive)
REMARK    1  A    between atoms: C_1  and  N_2
REMARK    2  A    between atoms: N_2  and  C_3
REMARK    3  A    between atoms: C_4  and  C_6
REMARK    4  A    between atoms: C_9  and  O_10
REMARK    5  A    between atoms: O_10  and  C_11
REMARK    6  A    between atoms: C_11  and  C_12
REMARK    7  A    between atoms: C_12  and  C_15
REMARK                            x       y       z     vdW  Elec       q    Type
REMARK                         _______ _______ _______ _____ _____    ______ ____
ROOT
ATOM      1  C   UNL     1      47.446   6.108  13.658  0.00  0.00    +0.000 A 
ATOM      2  C   UNL     1      47.113   4.764  13.782  0.00  0.00    +0.000 A 
ATOM      3  C   UNL     1      46.134   4.187  12.974  0.00  0.00    +0.000 A 
ATOM      4  C   UNL     1      45.404   4.971  12.085  0.00  0.00    +0.000 A 
ATOM      5  C   UNL     1      45.663   6.341  12.019  0.00  0.00    +0.000 A 
ATOM      6  C   UNL     1      46.683   6.910  12.793  0.00  0.00    +0.000 A 
ENDROOT
BRANCH   1  10
ATOM      7  C   UNL     1      50.634   7.940  14.710  0.00  0.00    +0.000 C 
ATOM      8  N   UNL     1      49.611   7.392  13.833  0.00  0.00    +0.000 N 
ATOM      9  C   UNL     1      49.700   7.739  12.419  0.00  0.00    +0.000 C 
ATOM     10  C   UNL     1      48.535   6.744  14.460  0.00  0.00    +0.000 C 
ATOM     11  O   UNL     1      48.442   6.683  15.687  0.00  0.00    +0.000 OA
ENDBRANCH   1  10
BRANCH   4  12
ATOM     12  O   UNL     1      44.417   4.505  11.259  0.00  0.00    +0.000 OA
BRANCH  12  13
ATOM     13  C   UNL     1      44.820   3.508  10.304  0.00  0.00    +0.000 C 
BRANCH  13  14
ATOM     14  C   UNL     1      45.017   4.106   8.909  0.00  0.00    +0.000 C 
ATOM     15  F   UNL     1      43.777   4.391   8.390  0.00  0.00    +0.000 F 
ATOM     16  F   UNL     1      45.608   5.332   9.066  0.00  0.00    +0.000 F 
BRANCH  14  17
ATOM     17  C   UNL     1      45.838   3.181   8.028  0.00  0.00    +0.000 A 
ATOM     18  C   UNL     1      46.006   1.850   8.392  0.00  0.00    +0.000 A 
ATOM     19  C   UNL     1      46.775   1.017   7.587  0.00  0.00    +0.000 A 
ATOM     20  C   UNL     1      47.357   1.532   6.431  0.00  0.00    +0.000 A 
ATOM     21  C   UNL     1      47.139   2.864   6.131  0.00  0.00    +0.000 A 
ATOM     22  N   UNL     1      46.393   3.696   6.889  0.00  0.00    +0.000 NA
ENDBRANCH  14  17
ENDBRANCH  13  14
ENDBRANCH  12  13
ENDBRANCH   4  12
TORSDOF 5
ENDMDL
MODEL 4
REMARK VINA RESULT:    -6.948      2.010      2.404
REMARK INTER + INTRA:          -9.316
REMARK INTER:                  -9.125
REMARK INTRA:                  -0.191
REMARK UNBOUND:                -0.337
REMARK  Name = 
REMARK  7 active torsions:
REMARK  status: ('A' for Active; 'I' for Inactive)
REMARK    1  A    between atoms: C_1  and  N_2
REMARK    2  A    between atoms: N_2  and  C_3
REMARK    3  A    between atoms: C_4  and  C_6
REMARK    4  A    between atoms: C_9  and  O_10
REMARK    5  A    between atoms: O_10  and  C_11
REMARK    6  A    between atoms: C_11  and  C_12
REMARK    7  A    between atoms: C_12  and  C_15
REMARK                            x       y       z     vdW  Elec       q    Type
REMARK                         _______ _______ _______ _____ _____    ______ ____
ROOT
ATOM      1  C   UNL     1      47.320   5.557  14.163  0.00  0.00    +0.000 A 
ATOM      2  C   UNL     1      46.866   4.309  13.753  0.00  0.00    +0.000 A 
ATOM      3  C   UNL     1      46.029   4.175  12.646  0.00  0.00    +0.000 A 
ATOM      4  C   UNL     1      45.556   5.303  11.981  0.00  0.00    +0.000 A 
ATOM      5  C   UNL     1      45.928   6.567  12.441  0.00  0.00    +0.000 A 
ATOM      6  C   UNL     1      46.812   6.699  13.521  0.00  0.00    +0.000 A 
ENDROOT
BRANCH   1  10
ATOM      7  C   UNL     1      48.972   5.443  17.610  0.00  0.00    +0.000 C 
ATOM      8  N   UNL     1      47.998   5.176  16.563  0.00  0.00    +0.000 N 
ATOM      9  C   UNL     1      46.953   4.205  16.868  0.00  0.00    +0.000 C 
ATOM     10  C   UNL     1      48.271   5.732  15.303  0.00  0.00    +0.000 C 
ATOM     11  O   UNL     1      49.300   6.373  15.087  0.00  0.00    +0.000 OA
ENDBRANCH   1  10
BRANCH   4  12
ATOM     12  O   UNL     1      44.723   5.280  10.895  0.00  0.00    +0.000 OA
BRANCH  12  13
ATOM     13  C   UNL     1      45.348   4.983   9.634  0.00  0.00    +0.000 C 
BRANCH  13  14
ATOM     14  C   UNL     1      44.692   3.785   8.945  0.00  0.00    +0.000 C 
ATOM     15  F   UNL     1      43.984   3.084   9.892  0.00  0.00    +0.000 F 
ATOM     16  F   UNL     1      43.732   4.272   8.097  0.00  0.00    +0.000 F 
BRANCH  14  17
ATOM     17  C   UNL     1      45.723   2.939   8.220  0.00  0.00    +0.000 A 
ATOM     18  C   UNL     1      46.586   3.534   7.305  0.00  0.00    +0.000 A 
ATOM     19  C   UNL     1      47.513   2.746   6.634  0.00  0.00    +0.000 A 
ATOM     20  C   UNL     1      47.563   1.379   6.894  0.00  0.00    +0.000 A 
ATOM     21  C   UNL     1      46.679   0.860   7.821  0.00  0.00    +0.000 A 
ATOM     22  N   UNL     1      45.771   1.600   8.493  0.00  0.00    +0.000 NA
ENDBRANCH  14  17
ENDBRANCH  13  14
ENDBRANCH  12  13
ENDBRANCH   4  12
TORSDOF 5
ENDMDL
MODEL 5
REMARK VINA RESULT:    -6.524      3.055      3.836
REMARK INTER + INTRA:          -8.768
REMARK INTER:                  -8.315
REMARK INTRA:                  -0.453
REMARK UNBOUND:                -0.337
REMARK  Name = 
REMARK  7 active torsions:
REMARK  status: ('A' for Active; 'I' for Inactive)
REMARK    1  A    between atoms: C_1  and  N_2
REMARK    2  A    between atoms: N_2  and  C_3
REMARK    3  A    between atoms: C_4  and  C_6
REMARK    4  A    between atoms: C_9  and  O_10
REMARK    5  A    between atoms: O_10  and  C_11
REMARK    6  A    between atoms: C_11  and  C_12
REMARK    7  A    between atoms: C_12  and  C_15
REMARK                            x       y       z     vdW  Elec       q    Type
REMARK                         _______ _______ _______ _____ _____    ______ ____
ROOT
ATOM      1  C   UNL     1      48.309   5.326  15.893  0.00  0.00    +0.000 A 
ATOM      2  C   UNL     1      48.431   6.412  15.033  0.00  0.00    +0.000 A 
ATOM      3  C   UNL     1      47.625   6.528  13.901  0.00  0.00    +0.000 A 
ATOM      4  C   UNL     1      46.741   5.509  13.558  0.00  0.00    +0.000 A 
ATOM      5  C   UNL     1      46.677   4.369  14.361  0.00  0.00    +0.000 A 
ATOM      6  C   UNL     1      47.449   4.276  15.528  0.00  0.00    +0.000 A 
ENDROOT
BRANCH   1  10
ATOM      7  C   UNL     1      49.419   5.369  19.552  0.00  0.00    +0.000 C 
ATOM      8  N   UNL     1      48.538   5.484  18.400  0.00  0.00    +0.000 N 
ATOM      9  C   UNL     1      47.119   5.683  18.673  0.00  0.00    +0.000 C 
ATOM     10  C   UNL     1      49.109   5.201  17.149  0.00  0.00    +0.000 C 
ATOM     11  O   UNL     1      50.279   4.834  17.039  0.00  0.00    +0.000 OA
ENDBRANCH   1  10
BRANCH   4  12
ATOM     12  O   UNL     1      45.918   5.521  12.466  0.00  0.00    +0.000 OA
BRANCH  12  13
ATOM     13  C   UNL     1      44.858   4.549  12.470  0.00  0.00    +0.000 C 
BRANCH  13  14
ATOM     14  C   UNL     1      44.012   4.625  11.198  0.00  0.00    +0.000 C 
ATOM     15  F   UNL     1      42.777   4.090  11.474  0.00  0.00    +0.000 F 
ATOM     16  F   UNL     1      43.758   5.949  10.951  0.00  0.00    +0.000 F 
BRANCH  14  17
ATOM     17  C   UNL     1      44.713   3.948  10.033  0.00  0.00    +0.000 A 
ATOM     18  C   UNL     1      45.346   4.720   9.065  0.00  0.00    +0.000 A 
ATOM     19  C   UNL     1      45.969   4.090   7.994  0.00  0.00    +0.000 A 
ATOM     20  C   UNL     1      45.949   2.700   7.915  0.00  0.00    +0.000 A 
ATOM     21  C   UNL     1      45.306   2.000   8.918  0.00  0.00    +0.000 A 
ATOM     22  N   UNL     1      44.697   2.582   9.973  0.00  0.00    +0.000 NA
ENDBRANCH  14  17
ENDBRANCH  13  14
ENDBRANCH  12  13
ENDBRANCH   4  12
TORSDOF 5
ENDMDL
MODEL 6
REMARK VINA RESULT:    -6.318      2.205      3.096
REMARK INTER + INTRA:          -8.503
REMARK INTER:                  -7.730
REMARK INTRA:                  -0.773
REMARK UNBOUND:                -0.337
REMARK  Name = 
REMARK  7 active torsions:
REMARK  status: ('A' for Active; 'I' for Inactive)
REMARK    1  A    between atoms: C_1  and  N_2
REMARK    2  A    between atoms: N_2  and  C_3
REMARK    3  A    between atoms: C_4  and  C_6
REMARK    4  A    between atoms: C_9  and  O_10
REMARK    5  A    between atoms: O_10  and  C_11
REMARK    6  A    between atoms: C_11  and  C_12
REMARK    7  A    between atoms: C_12  and  C_15
REMARK                            x       y       z     vdW  Elec       q    Type
REMARK                         _______ _______ _______ _____ _____    ______ ____
ROOT
ATOM      1  C   UNL     1      48.690   8.018  12.665  0.00  0.00    +0.000 A 
ATOM      2  C   UNL     1      48.397   6.682  12.414  0.00  0.00    +0.000 A 
ATOM      3  C   UNL     1      47.081   6.225  12.391  0.00  0.00    +0.000 A 
ATOM      4  C   UNL     1      46.032   7.083  12.711  0.00  0.00    +0.000 A 
ATOM      5  C   UNL     1      46.319   8.404  13.058  0.00  0.00    +0.000 A 
ATOM      6  C   UNL     1      47.639   8.877  13.028  0.00  0.00    +0.000 A 
ENDROOT
BRANCH   1  10
ATOM      7  C   UNL     1      52.238   9.071  13.627  0.00  0.00    +0.000 C 
ATOM      8  N   UNL     1      50.916   8.480  13.760  0.00  0.00    +0.000 N 
ATOM      9  C   UNL     1      50.660   7.700  14.966  0.00  0.00    +0.000 C 
ATOM     10  C   UNL     1      50.084   8.556  12.631  0.00  0.00    +0.000 C 
ATOM     11  O   UNL     1      50.470   9.057  11.574  0.00  0.00    +0.000 OA
ENDBRANCH   1  10
BRANCH   4  12
ATOM     12  O   UNL     1      44.710   6.731  12.730  0.00  0.00    +0.000 OA
BRANCH  12  13
ATOM     13  C   UNL     1      44.158   6.307  11.471  0.00  0.00    +0.000 C 
BRANCH  13  14
ATOM     14  C   UNL     1      43.803   4.819  11.479  0.00  0.00    +0.000 C 
ATOM     15  F   UNL     1      44.183   4.298  12.692  0.00  0.00    +0.000 F 
ATOM     16  F   UNL     1      42.436   4.721  11.482  0.00  0.00    +0.000 F 
BRANCH  14  17
ATOM     17  C   UNL     1      44.427   4.101  10.296  0.00  0.00    +0.000 A 
ATOM     18  C   UNL     1      45.213   4.809   9.394  0.00  0.00    +0.000 A 
ATOM     19  C   UNL     1      45.764   4.145   8.305  0.00  0.00    +0.000 A 
ATOM     20  C   UNL     1      45.522   2.783   8.141  0.00  0.00    +0.000 A 
ATOM     21  C   UNL     1      44.737   2.145   9.083  0.00  0.00    +0.000 A 
ATOM     22  N   UNL     1      44.192   2.761  10.154  0.00  0.00    +0.000 NA
ENDBRANCH  14  17
ENDBRANCH  13  14
ENDBRANCH  12  13
ENDBRANCH   4  12
TORSDOF 5
ENDMDL
MODEL 7
REMARK VINA RESULT:    -6.129      1.975      2.654
REMARK INTER + INTRA:          -8.259
REMARK INTER:                  -8.235
REMARK INTRA:                  -0.023
REMARK UNBOUND:                -0.337
REMARK  Name = 
REMARK  7 active torsions:
REMARK  status: ('A' for Active; 'I' for Inactive)
REMARK    1  A    between atoms: C_1  and  N_2
REMARK    2  A    between atoms: N_2  and  C_3
REMARK    3  A    between atoms: C_4  and  C_6
REMARK    4  A    between atoms: C_9  and  O_10
REMARK    5  A    between atoms: O_10  and  C_11
REMARK    6  A    between atoms: C_11  and  C_12
REMARK    7  A    between atoms: C_12  and  C_15
REMARK                            x       y       z     vdW  Elec       q    Type
REMARK                         _______ _______ _______ _____ _____    ______ ____
ROOT
ATOM      1  C   UNL     1      48.366   6.512  14.458  0.00  0.00    +0.000 A 
ATOM      2  C   UNL     1      47.353   5.562  14.391  0.00  0.00    +0.000 A 
ATOM      3  C   UNL     1      46.670   5.319  13.200  0.00  0.00    +0.000 A 
ATOM      4  C   UNL     1      46.928   6.090  12.071  0.00  0.00    +0.000 A 
ATOM      5  C   UNL     1      47.876   7.111  12.150  0.00  0.00    +0.000 A 
ATOM      6  C   UNL     1      48.600   7.320  13.332  0.00  0.00    +0.000 A 
ENDROOT
BRANCH   1  10
ATOM      7  C   UNL     1      49.985   8.135  17.518  0.00  0.00    +0.000 C 
ATOM      8  N   UNL     1      49.140   8.000  16.342  0.00  0.00    +0.000 N 
ATOM      9  C   UNL     1      48.213   9.093  16.068  0.00  0.00    +0.000 C 
ATOM     10  C   UNL     1      49.163   6.753  15.698  0.00  0.00    +0.000 C 
ATOM     11  O   UNL     1      49.828   5.812  16.133  0.00  0.00    +0.000 OA
ENDBRANCH   1  10
BRANCH   4  12
ATOM     12  O   UNL     1      46.307   5.940  10.861  0.00  0.00    +0.000 OA
BRANCH  12  13
ATOM     13  C   UNL     1      44.869   5.945  10.892  0.00  0.00    +0.000 C 
BRANCH  13  14
ATOM     14  C   UNL     1      44.291   4.548  10.658  0.00  0.00    +0.000 C 
ATOM     15  F   UNL     1      44.336   3.864  11.848  0.00  0.00    +0.000 F 
ATOM     16  F   UNL     1      42.952   4.693  10.402  0.00  0.00    +0.000 F 
BRANCH  14  17
ATOM     17  C   UNL     1      45.017   3.838   9.530  0.00  0.00    +0.000 A 
ATOM     18  C   UNL     1      45.170   2.456   9.569  0.00  0.00    +0.000 A 
ATOM     19  C   UNL     1      45.853   1.818   8.540  0.00  0.00    +0.000 A 
ATOM     20  C   UNL     1      46.364   2.575   7.488  0.00  0.00    +0.000 A 
ATOM     21  C   UNL     1      46.166   3.942   7.515  0.00  0.00    +0.000 A 
ATOM     22  N   UNL     1      45.504   4.590   8.497  0.00  0.00    +0.000 NA
ENDBRANCH  14  17
ENDBRANCH  13  14
ENDBRANCH  12  13
ENDBRANCH   4  12
TORSDOF 5
ENDMDL
MODEL 8
REMARK VINA RESULT:    -5.893      2.639      3.828
REMARK INTER + INTRA:          -7.953
REMARK INTER:                  -7.345
REMARK INTRA:                  -0.608
REMARK UNBOUND:                -0.337
REMARK  Name = 
REMARK  7 active torsions:
REMARK  status: ('A' for Active; 'I' for Inactive)
REMARK    1  A    between atoms: C_1  and  N_2
REMARK    2  A    between atoms: N_2  and  C_3
REMARK    3  A    between atoms: C_4  and  C_6
REMARK    4  A    between atoms: C_9  and  O_10
REMARK    5  A    between atoms: O_10  and  C_11
REMARK    6  A    between atoms: C_11  and  C_12
REMARK    7  A    between atoms: C_12  and  C_15
REMARK                            x       y       z     vdW  Elec       q    Type
REMARK                         _______ _______ _______ _____ _____    ______ ____
ROOT
ATOM      1  C   UNL     1      49.661   8.075  12.525  0.00  0.00    +0.000 A 
ATOM      2  C   UNL     1      48.631   8.140  11.594  0.00  0.00    +0.000 A 
ATOM      3  C   UNL     1      47.396   7.544  11.842  0.00  0.00    +0.000 A 
ATOM      4  C   UNL     1      47.198   6.789  12.996  0.00  0.00    +0.000 A 
ATOM      5  C   UNL     1      48.254   6.636  13.895  0.00  0.00    +0.000 A 
ATOM      6  C   UNL     1      49.479   7.281  13.670  0.00  0.00    +0.000 A 
ENDROOT
BRANCH   1  10
ATOM      7  C   UNL     1      53.157   9.004  11.286  0.00  0.00    +0.000 C 
ATOM      8  N   UNL     1      51.895   8.287  11.372  0.00  0.00    +0.000 N 
ATOM      9  C   UNL     1      51.633   7.289  10.341  0.00  0.00    +0.000 C 
ATOM     10  C   UNL     1      50.974   8.759  12.322  0.00  0.00    +0.000 C 
ATOM     11  O   UNL     1      51.207   9.752  13.012  0.00  0.00    +0.000 OA
ENDBRANCH   1  10
BRANCH   4  12
ATOM     12  O   UNL     1      46.031   6.156  13.326  0.00  0.00    +0.000 OA
BRANCH  12  13
ATOM     13  C   UNL     1      45.905   4.798  12.867  0.00  0.00    +0.000 C 
BRANCH  13  14
ATOM     14  C   UNL     1      44.583   4.568  12.132  0.00  0.00    +0.000 C 
ATOM     15  F   UNL     1      43.844   3.665  12.858  0.00  0.00    +0.000 F 
ATOM     16  F   UNL     1      43.863   5.732  12.207  0.00  0.00    +0.000 F 
BRANCH  14  17
ATOM     17  C   UNL     1      44.823   4.132  10.698  0.00  0.00    +0.000 A 
ATOM     18  C   UNL     1      45.497   4.976   9.823  0.00  0.00    +0.000 A 
ATOM     19  C   UNL     1      45.694   4.574   8.507  0.00  0.00    +0.000 A 
ATOM     20  C   UNL     1      45.218   3.332   8.094  0.00  0.00    +0.000 A 
ATOM     21  C   UNL     1      44.563   2.545   9.023  0.00  0.00    +0.000 A 
ATOM     22  N   UNL     1      44.360   2.906  10.308  0.00  0.00    +0.000 NA
ENDBRANCH  14  17
ENDBRANCH  13  14
ENDBRANCH  12  13
ENDBRANCH   4  12
TORSDOF 5
ENDMDL
MODEL 9
REMARK VINA RESULT:    -5.883      4.281      5.433
REMARK INTER + INTRA:          -7.940
REMARK INTER:                  -7.329
REMARK INTRA:                  -0.611
REMARK UNBOUND:                -0.337
REMARK  Name = 
REMARK  7 active torsions:
REMARK  status: ('A' for Active; 'I' for Inactive)
REMARK    1  A    between atoms: C_1  and  N_2
REMARK    2  A    between atoms: N_2  and  C_3
REMARK    3  A    between atoms: C_4  and  C_6
REMARK    4  A    between atoms: C_9  and  O_10
REMARK    5  A    between atoms: O_10  and  C_11
REMARK    6  A    between atoms: C_11  and  C_12
REMARK    7  A    between atoms: C_12  and  C_15
REMARK                            x       y       z     vdW  Elec       q    Type
REMARK                         _______ _______ _______ _____ _____    ______ ____
ROOT
ATOM      1  C   UNL     1      49.613   4.616  17.554  0.00  0.00    +0.000 A 
ATOM      2  C   UNL     1      48.862   3.448  17.608  0.00  0.00    +0.000 A 
ATOM      3  C   UNL     1      47.791   3.238  16.739  0.00  0.00    +0.000 A 
ATOM      4  C   UNL     1      47.395   4.239  15.857  0.00  0.00    +0.000 A 
ATOM      5  C   UNL     1      48.082   5.454  15.858  0.00  0.00    +0.000 A 
ATOM      6  C   UNL     1      49.191   5.644  16.693  0.00  0.00    +0.000 A 
ENDROOT
BRANCH   1  10
ATOM      7  C   UNL     1      51.920   5.715  20.398  0.00  0.00    +0.000 C 
ATOM      8  N   UNL     1      50.688   5.511  19.654  0.00  0.00    +0.000 N 
ATOM      9  C   UNL     1      49.442   5.834  20.340  0.00  0.00    +0.000 C 
ATOM     10  C   UNL     1      50.807   4.845  18.423  0.00  0.00    +0.000 C 
ATOM     11  O   UNL     1      51.890   4.420  18.019  0.00  0.00    +0.000 OA
ENDBRANCH   1  10
BRANCH   4  12
ATOM     12  O   UNL     1      46.354   4.138  14.975  0.00  0.00    +0.000 OA
BRANCH  12  13
ATOM     13  C   UNL     1      46.711   4.148  13.582  0.00  0.00    +0.000 C 
BRANCH  13  14
ATOM     14  C   UNL     1      45.871   5.150  12.787  0.00  0.00    +0.000 C 
ATOM     15  F   UNL     1      44.834   5.564  13.588  0.00  0.00    +0.000 F 
ATOM     16  F   UNL     1      46.632   6.276  12.610  0.00  0.00    +0.000 F 
BRANCH  14  17
ATOM     17  C   UNL     1      45.411   4.555  11.469  0.00  0.00    +0.000 A 
ATOM     18  C   UNL     1      45.641   5.243  10.283  0.00  0.00    +0.000 A 
ATOM     19  C   UNL     1      45.198   4.697   9.083  0.00  0.00    +0.000 A 
ATOM     20  C   UNL     1      44.539   3.471   9.093  0.00  0.00    +0.000 A 
ATOM     21  C   UNL     1      44.353   2.842  10.311  0.00  0.00    +0.000 A 
ATOM     22  N   UNL     1      44.775   3.344  11.491  0.00  0.00    +0.000 NA
ENDBRANCH  14  17
ENDBRANCH  13  14
ENDBRANCH  12  13
ENDBRANCH   4  12
TORSDOF 5
ENDMDL
