MODEL 1
REMARK VINA RESULT:    -5.989      0.000      0.000
REMARK INTER + INTRA:          -7.428
REMARK INTER:                  -7.215
REMARK INTRA:                  -0.213
REMARK UNBOUND:                -0.213
REMARK  Name = 
REMARK  4 active torsions:
REMARK  status: ('A' for Active; 'I' for Inactive)
REMARK    1  A    between atoms: N_1  and  C_2
REMARK    2  A    between atoms: C_2  and  C_3
REMARK    3  A    between atoms: C_7  and  C_8
REMARK    4  A    between atoms: C_9  and  C_10
REMARK                            x       y       z     vdW  Elec       q    Type
REMARK                         _______ _______ _______ _____ _____    ______ ____
ROOT
ATOM      1  C   UNL     1      46.552   2.703   7.003  0.00  0.00    +0.000 A 
ATOM      2  C   UNL     1      46.028   1.609   7.684  0.00  0.00    +0.000 A 
ATOM      3  N   UNL     1      45.406   1.691   8.881  0.00  0.00    +0.000 NA
ATOM      4  C   UNL     1      45.298   2.927   9.424  0.00  0.00    +0.000 A 
ATOM      5  C   UNL     1      45.758   4.098   8.826  0.00  0.00    +0.000 A 
ATOM      6  C   UNL     1      46.400   3.963   7.594  0.00  0.00    +0.000 A 
ENDROOT
BRANCH   5   7
ATOM      7  C   UNL     1      45.643   5.381   9.530  0.00  0.00    +0.000 C 
ATOM      8  C   UNL     1      45.681   5.521  10.866  0.00  0.00    +0.000 C 
BRANCH   8   9
ATOM      9  C   UNL     1      45.541   6.812  11.544  0.00  0.00    +0.000 A 
ATOM     10  C   UNL     1      46.297   7.207  12.636  0.00  0.00    +0.000 A 
ATOM     11  N   UNL     1      46.180   8.402  13.252  0.00  0.00    +0.000 NA
ATOM     12  C   UNL     1      45.271   9.237  12.728  0.00  0.00    +0.000 A 
ATOM     13  N   UNL     1      44.498   8.991  11.661  0.00  0.00    +0.000 NA
ATOM     14  C   UNL     1      44.661   7.777  11.089  0.00  0.00    +0.000 A 
ENDBRANCH   8   9
ENDBRANCH   5   7
BRANCH   1  15
ATOM     15  C   UNL     1      47.265   2.549   5.694  0.00  0.00    +0.000 C 
BRANCH  15  16
ATOM     16  N   UNL     1      48.506   1.800   5.854  0.00  0.00    +0.000 NA
ATOM     17  H   UNL     1      48.302   0.886   6.253  0.00  0.00    +0.000 HD
ATOM     18  H   UNL     1      49.102   2.281   6.527  0.00  0.00    +0.000 HD
ENDBRANCH  15  16
ENDBRANCH   1  15
TORSDOF 4
ENDMDL
MODEL 2
REMARK VINA RESULT:    -5.978      2.458      6.870
REMARK INTER + INTRA:          -7.414
REMARK INTER:                  -7.148
REMARK INTRA:                  -0.266
REMARK UNBOUND:                -0.213
REMARK  Name = 
REMARK  4 active torsions:
REMARK  status: ('A' for Active; 'I' for Inactive)
REMARK    1  A    between atoms: N_1  and  C_2
REMARK    2  A    between atoms: C_2  and  C_3
REMARK    3  A    between atoms: C_7  and  C_8
REMARK    4  A    between atoms: C_9  and  C_10
REMARK                            x       y       z     vdW  Elec       q    Type
REMARK                         _______ _______ _______ _____ _____    ______ ____
ROOT
ATOM      1  C   UNL     1      42.950   5.258  11.848  0.00  0.00    +0.000 A 
ATOM      2  C   UNL     1      42.983   4.562  13.051  0.00  0.00    +0.000 A 
ATOM      3  N   UNL     1      43.686   3.426  13.249  0.00  0.00    +0.000 NA
ATOM      4  C   UNL     1      44.397   2.962  12.193  0.00  0.00    +0.000 A 
ATOM      5  C   UNL     1      44.464   3.585  10.949  0.00  0.00    +0.000 A 
ATOM      6  C   UNL     1      43.715   4.752  10.789  0.00  0.00    +0.000 A 
ENDROOT
BRANCH   5   7
ATOM      7  C   UNL     1      45.217   2.964   9.852  0.00  0.00    +0.000 C 
ATOM      8  C   UNL     1      45.536   3.584   8.702  0.00  0.00    +0.000 C 
BRANCH   8   9
ATOM      9  C   UNL     1      46.270   2.933   7.614  0.00  0.00    +0.000 A 
ATOM     10  C   UNL     1      46.768   1.642   7.670  0.00  0.00    +0.000 A 
ATOM     11  N   UNL     1      47.431   1.036   6.664  0.00  0.00    +0.000 NA
ATOM     12  C   UNL     1      47.580   1.763   5.548  0.00  0.00    +0.000 A 
ATOM     13  N   UNL     1      47.124   3.009   5.352  0.00  0.00    +0.000 NA
ATOM     14  C   UNL     1      46.469   3.562   6.398  0.00  0.00    +0.000 A 
ENDBRANCH   8   9
ENDBRANCH   5   7
BRANCH   1  15
ATOM     15  C   UNL     1      42.122   6.496  11.674  0.00  0.00    +0.000 C 
BRANCH  15  16
ATOM     16  N   UNL     1      42.863   7.529  10.959  0.00  0.00    +0.000 NA
ATOM     17  H   UNL     1      42.806   7.357   9.957  0.00  0.00    +0.000 HD
ATOM     18  H   UNL     1      43.850   7.464  11.206  0.00  0.00    +0.000 HD
ENDBRANCH  15  16
ENDBRANCH   1  15
TORSDOF 4
ENDMDL
MODEL 3
REMARK VINA RESULT:    -5.452      4.530      6.381
REMARK INTER + INTRA:          -6.781
REMARK INTER:                  -6.508
REMARK INTRA:                  -0.273
REMARK UNBOUND:                -0.213
REMARK  Name = 
REMARK  4 active torsions:
REMARK  status: ('A' for Active; 'I' for Inactive)
REMARK    1  A    between atoms: N_1  and  C_2
REMARK    2  A    between atoms: C_2  and  C_3
REMARK    3  A    between atoms: C_7  and  C_8
REMARK    4  A    between atoms: C_9  and  C_10
REMARK                            x       y       z     vdW  Elec       q    Type
REMARK                         _______ _______ _______ _____ _____    ______ ____
ROOT
ATOM      1  C   UNL     1      44.561   4.123  11.583  0.00  0.00    +0.000 A 
ATOM      2  C   UNL     1      44.822   5.174  10.711  0.00  0.00    +0.000 A 
ATOM      3  N   UNL     1      45.744   6.134  10.940  0.00  0.00    +0.000 NA
ATOM      4  C   UNL     1      46.443   6.040  12.096  0.00  0.00    +0.000 A 
ATOM      5  C   UNL     1      46.289   5.020  13.033  0.00  0.00    +0.000 A 
ATOM      6  C   UNL     1      45.320   4.054  12.757  0.00  0.00    +0.000 A 
ENDROOT
BRANCH   5   7
ATOM      7  C   UNL     1      47.057   5.046  14.285  0.00  0.00    +0.000 C 
ATOM      8  C   UNL     1      47.059   4.057  15.196  0.00  0.00    +0.000 C 
BRANCH   8   9
ATOM      9  C   UNL     1      47.817   4.118  16.447  0.00  0.00    +0.000 A 
ATOM     10  C   UNL     1      48.594   5.196  16.839  0.00  0.00    +0.000 A 
ATOM     11  N   UNL     1      49.281   5.260  17.998  0.00  0.00    +0.000 NA
ATOM     12  C   UNL     1      49.162   4.193  18.802  0.00  0.00    +0.000 A 
ATOM     13  N   UNL     1      48.424   3.101  18.557  0.00  0.00    +0.000 NA
ATOM     14  C   UNL     1      47.760   3.097  17.379  0.00  0.00    +0.000 A 
ENDBRANCH   8   9
ENDBRANCH   5   7
BRANCH   1  15
ATOM     15  C   UNL     1      43.500   3.103  11.294  0.00  0.00    +0.000 C 
BRANCH  15  16
ATOM     16  N   UNL     1      43.472   2.067  12.321  0.00  0.00    +0.000 NA
ATOM     17  H   UNL     1      42.738   1.395  12.105  0.00  0.00    +0.000 HD
ATOM     18  H   UNL     1      43.222   2.489  13.215  0.00  0.00    +0.000 HD
ENDBRANCH  15  16
ENDBRANCH   1  15
TORSDOF 4
ENDMDL
MODEL 4
REMARK VINA RESULT:    -5.293      1.867      2.730
REMARK INTER + INTRA:          -6.590
REMARK INTER:                  -6.348
REMARK INTRA:                  -0.241
REMARK UNBOUND:                -0.213
REMARK  Name = 
REMARK  4 active torsions:
REMARK  status: ('A' for Active; 'I' for Inactive)
REMARK    1  A    between atoms: N_1  and  C_2
REMARK    2  A    between atoms: C_2  and  C_3
REMARK    3  A    between atoms: C_7  and  C_8
REMARK    4  A    between atoms: C_9  and  C_10
REMARK                            x       y       z     vdW  Elec       q    Type
REMARK                         _______ _______ _______ _____ _____    ______ ____
ROOT
ATOM      1  C   UNL     1      45.195   3.639   8.561  0.00  0.00    +0.000 A 
ATOM      2  C   UNL     1      44.322   2.822   9.272  0.00  0.00    +0.000 A 
ATOM      3  N   UNL     1      43.897   3.082  10.528  0.00  0.00    +0.000 NA
ATOM      4  C   UNL     1      44.364   4.216  11.103  0.00  0.00    +0.000 A 
ATOM      5  C   UNL     1      45.219   5.124  10.482  0.00  0.00    +0.000 A 
ATOM      6  C   UNL     1      45.637   4.810   9.188  0.00  0.00    +0.000 A 
ENDROOT
BRANCH   5   7
ATOM      7  C   UNL     1      45.714   6.293  11.219  0.00  0.00    +0.000 C 
ATOM      8  C   UNL     1      46.877   6.330  11.895  0.00  0.00    +0.000 C 
BRANCH   8   9
ATOM      9  C   UNL     1      47.336   7.505  12.640  0.00  0.00    +0.000 A 
ATOM     10  C   UNL     1      47.225   8.809  12.189  0.00  0.00    +0.000 A 
ATOM     11  N   UNL     1      47.634   9.893  12.882  0.00  0.00    +0.000 NA
ATOM     12  C   UNL     1      48.163   9.644  14.088  0.00  0.00    +0.000 A 
ATOM     13  N   UNL     1      48.302   8.436  14.653  0.00  0.00    +0.000 NA
ATOM     14  C   UNL     1      47.874   7.391  13.910  0.00  0.00    +0.000 A 
ENDBRANCH   8   9
ENDBRANCH   5   7
BRANCH   1  15
ATOM     15  C   UNL     1      45.661   3.283   7.181  0.00  0.00    +0.000 C 
BRANCH  15  16
ATOM     16  N   UNL     1      46.766   4.139   6.762  0.00  0.00    +0.000 NA
ATOM     17  H   UNL     1      46.397   4.989   6.341  0.00  0.00    +0.000 HD
ATOM     18  H   UNL     1      47.298   3.664   6.034  0.00  0.00    +0.000 HD
ENDBRANCH  15  16
ENDBRANCH   1  15
TORSDOF 4
ENDMDL
MODEL 5
REMARK VINA RESULT:    -5.191      3.242      6.515
REMARK INTER + INTRA:          -6.466
REMARK INTER:                  -6.221
REMARK INTRA:                  -0.245
REMARK UNBOUND:                -0.213
REMARK  Name = 
REMARK  4 active torsions:
REMARK  status: ('A' for Active; 'I' for Inactive)
REMARK    1  A    between atoms: N_1  and  C_2
REMARK    2  A    between atoms: C_2  and  C_3
REMARK    3  A    between atoms: C_7  and  C_8
REMARK    4  A    between atoms: C_9  and  C_10
REMARK                            x       y       z     vdW  Elec       q    Type
REMARK                         _______ _______ _______ _____ _____    ______ ____
ROOT
ATOM      1  C   UNL     1      49.508   8.793  11.635  0.00  0.00    +0.000 A 
ATOM      2  C   UNL     1      48.856  10.015  11.756  0.00  0.00    +0.000 A 
ATOM      3  N   UNL     1      47.541  10.146  12.033  0.00  0.00    +0.000 NA
ATOM      4  C   UNL     1      46.840   8.999  12.201  0.00  0.00    +0.000 A 
ATOM      5  C   UNL     1      47.386   7.719  12.130  0.00  0.00    +0.000 A 
ATOM      6  C   UNL     1      48.748   7.634  11.835  0.00  0.00    +0.000 A 
ENDROOT
BRANCH   5   7
ATOM      7  C   UNL     1      46.524   6.539  12.268  0.00  0.00    +0.000 C 
ATOM      8  C   UNL     1      45.804   6.003  11.267  0.00  0.00    +0.000 C 
BRANCH   8   9
ATOM      9  C   UNL     1      44.934   4.837  11.438  0.00  0.00    +0.000 A 
ATOM     10  C   UNL     1      44.468   4.050  10.398  0.00  0.00    +0.000 A 
ATOM     11  N   UNL     1      43.679   2.967  10.555  0.00  0.00    +0.000 NA
ATOM     12  C   UNL     1      43.362   2.659  11.821  0.00  0.00    +0.000 A 
ATOM     13  N   UNL     1      43.767   3.318  12.917  0.00  0.00    +0.000 NA
ATOM     14  C   UNL     1      44.555   4.394  12.693  0.00  0.00    +0.000 A 
ENDBRANCH   8   9
ENDBRANCH   5   7
BRANCH   1  15
ATOM     15  C   UNL     1      50.964   8.706  11.290  0.00  0.00    +0.000 C 
BRANCH  15  16
ATOM     16  N   UNL     1      51.360   7.328  11.018  0.00  0.00    +0.000 NA
ATOM     17  H   UNL     1      51.925   6.978  11.788  0.00  0.00    +0.000 HD
ATOM     18  H   UNL     1      51.957   7.309  10.191  0.00  0.00    +0.000 HD
ENDBRANCH  15  16
ENDBRANCH   1  15
TORSDOF 4
ENDMDL
MODEL 6
REMARK VINA RESULT:    -4.995      4.535      8.086
REMARK INTER + INTRA:          -6.230
REMARK INTER:                  -6.017
REMARK INTRA:                  -0.213
REMARK UNBOUND:                -0.213
REMARK  Name = 
REMARK  4 active torsions:
REMARK  status: ('A' for Active; 'I' for Inactive)
REMARK    1  A    between atoms: N_1  and  C_2
REMARK    2  A    between atoms: C_2  and  C_3
REMARK    3  A    between atoms: C_7  and  C_8
REMARK    4  A    between atoms: C_9  and  C_10
REMARK                            x       y       z     vdW  Elec       q    Type
REMARK                         _______ _______ _______ _____ _____    ______ ____
ROOT
ATOM      1  C   UNL     1      48.250   4.130  17.505  0.00  0.00    +0.000 A 
ATOM      2  C   UNL     1      48.814   5.400  17.544  0.00  0.00    +0.000 A 
ATOM      3  N   UNL     1      48.768   6.279  16.520  0.00  0.00    +0.000 NA
ATOM      4  C   UNL     1      48.123   5.873  15.401  0.00  0.00    +0.000 A 
ATOM      5  C   UNL     1      47.496   4.637  15.253  0.00  0.00    +0.000 A 
ATOM      6  C   UNL     1      47.577   3.759  16.335  0.00  0.00    +0.000 A 
ENDROOT
BRANCH   5   7
ATOM      7  C   UNL     1      46.876   4.272  13.973  0.00  0.00    +0.000 C 
ATOM      8  C   UNL     1      45.638   4.638  13.597  0.00  0.00    +0.000 C 
BRANCH   8   9
ATOM      9  C   UNL     1      45.035   4.241  12.322  0.00  0.00    +0.000 A 
ATOM     10  C   UNL     1      44.106   3.223  12.180  0.00  0.00    +0.000 A 
ATOM     11  N   UNL     1      43.539   2.867  11.009  0.00  0.00    +0.000 NA
ATOM     12  C   UNL     1      43.916   3.583   9.940  0.00  0.00    +0.000 A 
ATOM     13  N   UNL     1      44.782   4.607   9.944  0.00  0.00    +0.000 NA
ATOM     14  C   UNL     1      45.316   4.916  11.147  0.00  0.00    +0.000 A 
ENDBRANCH   8   9
ENDBRANCH   5   7
BRANCH   1  15
ATOM     15  C   UNL     1      48.362   3.181  18.660  0.00  0.00    +0.000 C 
BRANCH  15  16
ATOM     16  N   UNL     1      48.542   3.899  19.917  0.00  0.00    +0.000 NA
ATOM     17  H   UNL     1      49.260   3.437  20.472  0.00  0.00    +0.000 HD
ATOM     18  H   UNL     1      47.680   3.846  20.458  0.00  0.00    +0.000 HD
ENDBRANCH  15  16
ENDBRANCH   1  15
TORSDOF 4
ENDMDL
MODEL 7
REMARK VINA RESULT:    -4.978      3.027      4.159
REMARK INTER + INTRA:          -6.210
REMARK INTER:                  -5.955
REMARK INTRA:                  -0.255
REMARK UNBOUND:                -0.213
REMARK  Name = 
REMARK  4 active torsions:
REMARK  status: ('A' for Active; 'I' for Inactive)
REMARK    1  A    between atoms: N_1  and  C_2
REMARK    2  A    between atoms: C_2  and  C_3
REMARK    3  A    between atoms: C_7  and  C_8
REMARK    4  A    between atoms: C_9  and  C_10
REMARK                            x       y       z     vdW  Elec       q    Type
REMARK                         _______ _______ _______ _____ _____    ______ ____
ROOT
ATOM      1  C   UNL     1      44.418   3.593  10.760  0.00  0.00    +0.000 A 
ATOM      2  C   UNL     1      43.617   3.103  11.785  0.00  0.00    +0.000 A 
ATOM      3  N   UNL     1      43.647   3.563  13.054  0.00  0.00    +0.000 NA
ATOM      4  C   UNL     1      44.519   4.567  13.314  0.00  0.00    +0.000 A 
ATOM      5  C   UNL     1      45.353   5.157  12.366  0.00  0.00    +0.000 A 
ATOM      6  C   UNL     1      45.292   4.643  11.070  0.00  0.00    +0.000 A 
ENDROOT
BRANCH   5   7
ATOM      7  C   UNL     1      46.305   6.199  12.767  0.00  0.00    +0.000 C 
ATOM      8  C   UNL     1      47.287   6.675  11.981  0.00  0.00    +0.000 C 
BRANCH   8   9
ATOM      9  C   UNL     1      48.239   7.701  12.415  0.00  0.00    +0.000 A 
ATOM     10  C   UNL     1      49.364   7.448  13.183  0.00  0.00    +0.000 A 
ATOM     11  N   UNL     1      50.249   8.390  13.571  0.00  0.00    +0.000 NA
ATOM     12  C   UNL     1      49.993   9.636  13.149  0.00  0.00    +0.000 A 
ATOM     13  N   UNL     1      48.959  10.010  12.381  0.00  0.00    +0.000 NA
ATOM     14  C   UNL     1      48.107   9.022  12.026  0.00  0.00    +0.000 A 
ENDBRANCH   8   9
ENDBRANCH   5   7
BRANCH   1  15
ATOM     15  C   UNL     1      44.368   3.019   9.375  0.00  0.00    +0.000 C 
BRANCH  15  16
ATOM     16  N   UNL     1      44.218   4.070   8.375  0.00  0.00    +0.000 NA
ATOM     17  H   UNL     1      43.237   4.330   8.299  0.00  0.00    +0.000 HD
ATOM     18  H   UNL     1      44.490   3.704   7.463  0.00  0.00    +0.000 HD
ENDBRANCH  15  16
ENDBRANCH   1  15
TORSDOF 4
ENDMDL
MODEL 8
REMARK VINA RESULT:    -4.706      5.741      8.166
REMARK INTER + INTRA:          -5.882
REMARK INTER:                  -5.646
REMARK INTRA:                  -0.236
REMARK UNBOUND:                -0.213
REMARK  Name = 
REMARK  4 active torsions:
REMARK  status: ('A' for Active; 'I' for Inactive)
REMARK    1  A    between atoms: N_1  and  C_2
REMARK    2  A    between atoms: C_2  and  C_3
REMARK    3  A    between atoms: C_7  and  C_8
REMARK    4  A    between atoms: C_9  and  C_10
REMARK                            x       y       z     vdW  Elec       q    Type
REMARK                         _______ _______ _______ _____ _____    ______ ____
ROOT
ATOM      1  C   UNL     1      50.087   2.683  17.298  0.00  0.00    +0.000 A 
ATOM      2  C   UNL     1      50.395   3.772  18.106  0.00  0.00    +0.000 A 
ATOM      3  N   UNL     1      49.685   4.921  18.129  0.00  0.00    +0.000 NA
ATOM      4  C   UNL     1      48.611   4.986  17.307  0.00  0.00    +0.000 A 
ATOM      5  C   UNL     1      48.188   3.953  16.473  0.00  0.00    +0.000 A 
ATOM      6  C   UNL     1      48.957   2.788  16.477  0.00  0.00    +0.000 A 
ENDROOT
BRANCH   5   7
ATOM      7  C   UNL     1      47.044   4.150  15.574  0.00  0.00    +0.000 C 
ATOM      8  C   UNL     1      47.102   4.042  14.235  0.00  0.00    +0.000 C 
BRANCH   8   9
ATOM      9  C   UNL     1      45.948   4.266  13.360  0.00  0.00    +0.000 A 
ATOM     10  C   UNL     1      45.220   5.444  13.313  0.00  0.00    +0.000 A 
ATOM     11  N   UNL     1      44.166   5.657  12.497  0.00  0.00    +0.000 NA
ATOM     12  C   UNL     1      43.849   4.640  11.683  0.00  0.00    +0.000 A 
ATOM     13  N   UNL     1      44.486   3.462  11.609  0.00  0.00    +0.000 NA
ATOM     14  C   UNL     1      45.532   3.310  12.451  0.00  0.00    +0.000 A 
ENDBRANCH   8   9
ENDBRANCH   5   7
BRANCH   1  15
ATOM     15  C   UNL     1      50.932   1.445  17.286  0.00  0.00    +0.000 C 
BRANCH  15  16
ATOM     16  N   UNL     1      52.093   1.591  18.158  0.00  0.00    +0.000 NA
ATOM     17  H   UNL     1      52.547   2.482  17.973  0.00  0.00    +0.000 HD
ATOM     18  H   UNL     1      52.774   0.867  17.932  0.00  0.00    +0.000 HD
ENDBRANCH  15  16
ENDBRANCH   1  15
TORSDOF 4
ENDMDL
MODEL 9
REMARK VINA RESULT:    -4.646      3.539      7.545
REMARK INTER + INTRA:          -5.810
REMARK INTER:                  -5.572
REMARK INTRA:                  -0.238
REMARK UNBOUND:                -0.213
REMARK  Name = 
REMARK  4 active torsions:
REMARK  status: ('A' for Active; 'I' for Inactive)
REMARK    1  A    between atoms: N_1  and  C_2
REMARK    2  A    between atoms: C_2  and  C_3
REMARK    3  A    between atoms: C_7  and  C_8
REMARK    4  A    between atoms: C_9  and  C_10
REMARK                            x       y       z     vdW  Elec       q    Type
REMARK                         _______ _______ _______ _____ _____    ______ ____
ROOT
ATOM      1  C   UNL     1      48.789   9.285  14.126  0.00  0.00    +0.000 A 
ATOM      2  C   UNL     1      49.468   9.552  12.943  0.00  0.00    +0.000 A 
ATOM      3  N   UNL     1      49.266   8.882  11.788  0.00  0.00    +0.000 NA
ATOM      4  C   UNL     1      48.338   7.896  11.813  0.00  0.00    +0.000 A 
ATOM      5  C   UNL     1      47.576   7.555  12.929  0.00  0.00    +0.000 A 
ATOM      6  C   UNL     1      47.824   8.270  14.101  0.00  0.00    +0.000 A 
ENDROOT
BRANCH   5   7
ATOM      7  C   UNL     1      46.637   6.428  12.865  0.00  0.00    +0.000 C 
ATOM      8  C   UNL     1      46.004   6.028  11.749  0.00  0.00    +0.000 C 
BRANCH   8   9
ATOM      9  C   UNL     1      45.054   4.913  11.718  0.00  0.00    +0.000 A 
ATOM     10  C   UNL     1      44.585   4.318  10.559  0.00  0.00    +0.000 A 
ATOM     11  N   UNL     1      43.722   3.280  10.530  0.00  0.00    +0.000 NA
ATOM     12  C   UNL     1      43.333   2.817  11.726  0.00  0.00    +0.000 A 
ATOM     13  N   UNL     1      43.731   3.282  12.919  0.00  0.00    +0.000 NA
ATOM     14  C   UNL     1      44.595   4.321  12.882  0.00  0.00    +0.000 A 
ENDBRANCH   8   9
ENDBRANCH   5   7
BRANCH   1  15
ATOM     15  C   UNL     1      49.078  10.038  15.390  0.00  0.00    +0.000 C 
BRANCH  15  16
ATOM     16  N   UNL     1      47.942   9.991  16.303  0.00  0.00    +0.000 NA
ATOM     17  H   UNL     1      48.198   9.469  17.139  0.00  0.00    +0.000 HD
ATOM     18  H   UNL     1      47.181   9.475  15.863  0.00  0.00    +0.000 HD
ENDBRANCH  15  16
ENDBRANCH   1  15
TORSDOF 4
ENDMDL
