MODEL 1
REMARK VINA RESULT:    -7.543      0.000      0.000
REMARK INTER + INTRA:         -10.155
REMARK INTER:                  -9.528
REMARK INTRA:                  -0.627
REMARK UNBOUND:                -0.627
REMARK  Name = 
REMARK  5 active torsions:
REMARK  status: ('A' for Active; 'I' for Inactive)
REMARK    1  A    between atoms: N_1  and  C_2
REMARK    2  A    between atoms: C_2  and  C_3
REMARK    3  A    between atoms: C_3  and  C_4
REMARK    4  A    between atoms: C_7  and  C_8
REMARK    5  A    between atoms: C_8  and  N_9
REMARK                            x       y       z     vdW  Elec       q    Type
REMARK                         _______ _______ _______ _____ _____    ______ ____
ROOT
ATOM      1  C   UNL     1      46.094   2.337   7.802  0.00  0.00    +0.000 A 
ATOM      2  C   UNL     1      45.276   1.727   8.761  0.00  0.00    +0.000 A 
ATOM      3  C   UNL     1      44.561   2.499   9.681  0.00  0.00    +0.000 A 
ATOM      4  C   UNL     1      44.642   3.898   9.656  0.00  0.00    +0.000 A 
ATOM      5  C   UNL     1      45.436   4.507   8.674  0.00  0.00    +0.000 A 
ATOM      6  C   UNL     1      46.151   3.734   7.753  0.00  0.00    +0.000 A 
ENDROOT
BRANCH   1   7
ATOM      7  C   UNL     1      46.912   1.501   6.846  0.00  0.00    +0.000 C 
BRANCH   7   8
ATOM      8  C   UNL     1      48.230   2.174   6.457  0.00  0.00    +0.000 C 
BRANCH   8   9
ATOM      9  N   UNL     1      48.269   2.459   5.022  0.00  0.00    +0.000 NA
ATOM     10  H   UNL     1      48.810   1.734   4.549  0.00  0.00    +0.000 HD
ATOM     11  H   UNL     1      48.765   3.333   4.861  0.00  0.00    +0.000 HD
ENDBRANCH   8   9
ENDBRANCH   7   8
ENDBRANCH   1   7
BRANCH   4  12
ATOM     12  C   UNL     1      43.897   4.734  10.668  0.00  0.00    +0.000 C 
BRANCH  12  13
ATOM     13  N   UNL     1      44.786   5.576  11.465  0.00  0.00    +0.000 N 
ATOM     14  C   UNL     1      44.750   6.951  11.462  0.00  0.00    +0.000 A 
ATOM     15  C   UNL     1      45.617   7.406  12.430  0.00  0.00    +0.000 A 
ATOM     16  C   UNL     1      46.203   6.272  13.054  0.00  0.00    +0.000 A 
ATOM     17  C   UNL     1      47.121   6.105  14.099  0.00  0.00    +0.000 A 
ATOM     18  N   UNL     1      47.500   4.868  14.497  0.00  0.00    +0.000 NA
ATOM     19  C   UNL     1      46.981   3.795  13.864  0.00  0.00    +0.000 A 
ATOM     20  C   UNL     1      46.064   3.853  12.823  0.00  0.00    +0.000 A 
ATOM     21  C   UNL     1      45.676   5.136  12.428  0.00  0.00    +0.000 A 
ENDBRANCH  12  13
ENDBRANCH   4  12
TORSDOF 5
ENDMDL
MODEL 2
REMARK VINA RESULT:    -7.370      1.145      2.344
REMARK INTER + INTRA:          -9.936
REMARK INTER:                  -9.343
REMARK INTRA:                  -0.593
REMARK UNBOUND:                -0.627
REMARK  Name = 
REMARK  5 active torsions:
REMARK  status: ('A' for Active; 'I' for Inactive)
REMARK    1  A    between atoms: N_1  and  C_2
REMARK    2  A    between atoms: C_2  and  C_3
REMARK    3  A    between atoms: C_3  and  C_4
REMARK    4  A    between atoms: C_7  and  C_8
REMARK    5  A    between atoms: C_8  and  N_9
REMARK                            x       y       z     vdW  Elec       q    Type
REMARK                         _______ _______ _______ _____ _____    ______ ____
ROOT
ATOM      1  C   UNL     1      46.120   2.334   7.839  0.00  0.00    +0.000 A 
ATOM      2  C   UNL     1      45.294   1.727   8.793  0.00  0.00    +0.000 A 
ATOM      3  C   UNL     1      44.546   2.503   9.682  0.00  0.00    +0.000 A 
ATOM      4  C   UNL     1      44.601   3.903   9.633  0.00  0.00    +0.000 A 
ATOM      5  C   UNL     1      45.403   4.508   8.655  0.00  0.00    +0.000 A 
ATOM      6  C   UNL     1      46.151   3.731   7.764  0.00  0.00    +0.000 A 
ENDROOT
BRANCH   1   7
ATOM      7  C   UNL     1      46.973   1.497   6.917  0.00  0.00    +0.000 C 
BRANCH   7   8
ATOM      8  C   UNL     1      48.261   2.209   6.498  0.00  0.00    +0.000 C 
BRANCH   8   9
ATOM      9  N   UNL     1      48.273   2.467   5.058  0.00  0.00    +0.000 NA
ATOM     10  H   UNL     1      49.032   1.939   4.626  0.00  0.00    +0.000 HD
ATOM     11  H   UNL     1      48.480   3.450   4.889  0.00  0.00    +0.000 HD
ENDBRANCH   8   9
ENDBRANCH   7   8
ENDBRANCH   1   7
BRANCH   4  12
ATOM     12  C   UNL     1      43.819   4.743  10.612  0.00  0.00    +0.000 C 
BRANCH  12  13
ATOM     13  N   UNL     1      44.666   5.336  11.645  0.00  0.00    +0.000 N 
ATOM     14  C   UNL     1      45.466   4.608  12.494  0.00  0.00    +0.000 A 
ATOM     15  C   UNL     1      46.226   5.490  13.229  0.00  0.00    +0.000 A 
ATOM     16  C   UNL     1      45.885   6.806  12.814  0.00  0.00    +0.000 A 
ATOM     17  C   UNL     1      46.331   8.084  13.176  0.00  0.00    +0.000 A 
ATOM     18  N   UNL     1      45.816   9.189  12.589  0.00  0.00    +0.000 NA
ATOM     19  C   UNL     1      44.858   9.038  11.650  0.00  0.00    +0.000 A 
ATOM     20  C   UNL     1      44.352   7.820  11.219  0.00  0.00    +0.000 A 
ATOM     21  C   UNL     1      44.899   6.687  11.829  0.00  0.00    +0.000 A 
ENDBRANCH  12  13
ENDBRANCH   4  12
TORSDOF 5
ENDMDL
MODEL 3
REMARK VINA RESULT:    -7.069      1.182      2.397
REMARK INTER + INTRA:          -9.556
REMARK INTER:                  -8.949
REMARK INTRA:                  -0.607
REMARK UNBOUND:                -0.627
REMARK  Name = 
REMARK  5 active torsions:
REMARK  status: ('A' for Active; 'I' for Inactive)
REMARK    1  A    between atoms: N_1  and  C_2
REMARK    2  A    between atoms: C_2  and  C_3
REMARK    3  A    between atoms: C_3  and  C_4
REMARK    4  A    between atoms: C_7  and  C_8
REMARK    5  A    between atoms: C_8  and  N_9
REMARK                            x       y       z     vdW  Elec       q    Type
REMARK                         _______ _______ _______ _____ _____    ______ ____
ROOT
ATOM      1  C   UNL     1      45.886   3.084   7.764  0.00  0.00    +0.000 A 
ATOM      2  C   UNL     1      46.078   4.450   8.008  0.00  0.00    +0.000 A 
ATOM      3  C   UNL     1      45.608   5.034   9.187  0.00  0.00    +0.000 A 
ATOM      4  C   UNL     1      44.943   4.264  10.152  0.00  0.00    +0.000 A 
ATOM      5  C   UNL     1      44.782   2.891   9.919  0.00  0.00    +0.000 A 
ATOM      6  C   UNL     1      45.253   2.306   8.739  0.00  0.00    +0.000 A 
ENDROOT
BRANCH   1   7
ATOM      7  C   UNL     1      46.342   2.465   6.464  0.00  0.00    +0.000 C 
BRANCH   7   8
ATOM      8  C   UNL     1      47.541   1.532   6.645  0.00  0.00    +0.000 C 
BRANCH   8   9
ATOM      9  N   UNL     1      48.599   1.845   5.684  0.00  0.00    +0.000 NA
ATOM     10  H   UNL     1      49.060   2.713   5.959  0.00  0.00    +0.000 HD
ATOM     11  H   UNL     1      48.188   2.021   4.769  0.00  0.00    +0.000 HD
ENDBRANCH   8   9
ENDBRANCH   7   8
ENDBRANCH   1   7
BRANCH   4  12
ATOM     12  C   UNL     1      44.406   4.898  11.411  0.00  0.00    +0.000 C 
BRANCH  12  13
ATOM     13  N   UNL     1      45.432   5.066  12.438  0.00  0.00    +0.000 N 
ATOM     14  C   UNL     1      45.843   4.064  13.285  0.00  0.00    +0.000 A 
ATOM     15  C   UNL     1      46.914   4.530  14.014  0.00  0.00    +0.000 A 
ATOM     16  C   UNL     1      47.174   5.864  13.597  0.00  0.00    +0.000 A 
ATOM     17  C   UNL     1      48.131   6.824  13.953  0.00  0.00    +0.000 A 
ATOM     18  N   UNL     1      48.142   8.042  13.365  0.00  0.00    +0.000 NA
ATOM     19  C   UNL     1      47.207   8.320  12.432  0.00  0.00    +0.000 A 
ATOM     20  C   UNL     1      46.221   7.441  12.007  0.00  0.00    +0.000 A 
ATOM     21  C   UNL     1      46.228   6.184  12.617  0.00  0.00    +0.000 A 
ENDBRANCH  12  13
ENDBRANCH   4  12
TORSDOF 5
ENDMDL
MODEL 4
REMARK VINA RESULT:    -6.198      1.548      6.431
REMARK INTER + INTRA:          -8.456
REMARK INTER:                  -7.908
REMARK INTRA:                  -0.548
REMARK UNBOUND:                -0.627
REMARK  Name = 
REMARK  5 active torsions:
REMARK  status: ('A' for Active; 'I' for Inactive)
REMARK    1  A    between atoms: N_1  and  C_2
REMARK    2  A    between atoms: C_2  and  C_3
REMARK    3  A    between atoms: C_3  and  C_4
REMARK    4  A    between atoms: C_7  and  C_8
REMARK    5  A    between atoms: C_8  and  N_9
REMARK                            x       y       z     vdW  Elec       q    Type
REMARK                         _______ _______ _______ _____ _____    ______ ____
ROOT
ATOM      1  C   UNL     1      46.543   4.695  13.740  0.00  0.00    +0.000 A 
ATOM      2  C   UNL     1      46.241   3.374  13.389  0.00  0.00    +0.000 A 
ATOM      3  C   UNL     1      45.558   3.092  12.202  0.00  0.00    +0.000 A 
ATOM      4  C   UNL     1      45.170   4.124  11.338  0.00  0.00    +0.000 A 
ATOM      5  C   UNL     1      45.503   5.444  11.676  0.00  0.00    +0.000 A 
ATOM      6  C   UNL     1      46.186   5.726  12.863  0.00  0.00    +0.000 A 
ENDROOT
BRANCH   1   7
ATOM      7  C   UNL     1      47.228   5.005  15.050  0.00  0.00    +0.000 C 
BRANCH   7   8
ATOM      8  C   UNL     1      47.536   3.747  15.865  0.00  0.00    +0.000 C 
BRANCH   8   9
ATOM      9  N   UNL     1      46.631   3.628  17.008  0.00  0.00    +0.000 NA
ATOM     10  H   UNL     1      46.730   4.451  17.604  0.00  0.00    +0.000 HD
ATOM     11  H   UNL     1      46.905   2.830  17.579  0.00  0.00    +0.000 HD
ENDBRANCH   8   9
ENDBRANCH   7   8
ENDBRANCH   1   7
BRANCH   4  12
ATOM     12  C   UNL     1      44.404   3.826  10.072  0.00  0.00    +0.000 C 
BRANCH  12  13
ATOM     13  N   UNL     1      45.266   3.768   8.894  0.00  0.00    +0.000 N 
ATOM     14  C   UNL     1      45.775   4.876   8.258  0.00  0.00    +0.000 A 
ATOM     15  C   UNL     1      46.654   4.450   7.289  0.00  0.00    +0.000 A 
ATOM     16  C   UNL     1      46.691   3.030   7.332  0.00  0.00    +0.000 A 
ATOM     17  C   UNL     1      47.401   2.055   6.618  0.00  0.00    +0.000 A 
ATOM     18  N   UNL     1      47.235   0.740   6.891  0.00  0.00    +0.000 NA
ATOM     19  C   UNL     1      46.365   0.382   7.859  0.00  0.00    +0.000 A 
ATOM     20  C   UNL     1      45.618   1.268   8.623  0.00  0.00    +0.000 A 
ATOM     21  C   UNL     1      45.807   2.623   8.337  0.00  0.00    +0.000 A 
ENDBRANCH  12  13
ENDBRANCH   4  12
TORSDOF 5
ENDMDL
MODEL 5
REMARK VINA RESULT:    -5.893      2.360      5.939
REMARK INTER + INTRA:          -8.070
REMARK INTER:                  -7.449
REMARK INTRA:                  -0.621
REMARK UNBOUND:                -0.627
REMARK  Name = 
REMARK  5 active torsions:
REMARK  status: ('A' for Active; 'I' for Inactive)
REMARK    1  A    between atoms: N_1  and  C_2
REMARK    2  A    between atoms: C_2  and  C_3
REMARK    3  A    between atoms: C_3  and  C_4
REMARK    4  A    between atoms: C_7  and  C_8
REMARK    5  A    between atoms: C_8  and  N_9
REMARK                            x       y       z     vdW  Elec       q    Type
REMARK                         _______ _______ _______ _____ _____    ______ ____
ROOT
ATOM      1  C   UNL     1      48.331   7.340  12.876  0.00  0.00    +0.000 A 
ATOM      2  C   UNL     1      47.496   8.192  12.142  0.00  0.00    +0.000 A 
ATOM      3  C   UNL     1      46.175   7.829  11.867  0.00  0.00    +0.000 A 
ATOM      4  C   UNL     1      45.657   6.610  12.326  0.00  0.00    +0.000 A 
ATOM      5  C   UNL     1      46.485   5.774  13.089  0.00  0.00    +0.000 A 
ATOM      6  C   UNL     1      47.807   6.138  13.364  0.00  0.00    +0.000 A 
ENDROOT
BRANCH   1   7
ATOM      7  C   UNL     1      49.775   7.704  13.122  0.00  0.00    +0.000 C 
BRANCH   7   8
ATOM      8  C   UNL     1      50.445   8.321  11.892  0.00  0.00    +0.000 C 
BRANCH   8   9
ATOM      9  N   UNL     1      51.111   7.296  11.089  0.00  0.00    +0.000 NA
ATOM     10  H   UNL     1      50.642   6.400  11.228  0.00  0.00    +0.000 HD
ATOM     11  H   UNL     1      52.066   7.170  11.419  0.00  0.00    +0.000 HD
ENDBRANCH   8   9
ENDBRANCH   7   8
ENDBRANCH   1   7
BRANCH   4  12
ATOM     12  C   UNL     1      44.241   6.201  12.004  0.00  0.00    +0.000 C 
BRANCH  12  13
ATOM     13  N   UNL     1      44.140   4.804  11.586  0.00  0.00    +0.000 N 
ATOM     14  C   UNL     1      43.432   3.846  12.272  0.00  0.00    +0.000 A 
ATOM     15  C   UNL     1      43.433   2.692  11.521  0.00  0.00    +0.000 A 
ATOM     16  C   UNL     1      44.163   2.951  10.330  0.00  0.00    +0.000 A 
ATOM     17  C   UNL     1      44.478   2.186   9.198  0.00  0.00    +0.000 A 
ATOM     18  N   UNL     1      45.203   2.715   8.185  0.00  0.00    +0.000 NA
ATOM     19  C   UNL     1      45.623   3.993   8.287  0.00  0.00    +0.000 A 
ATOM     20  C   UNL     1      45.363   4.834   9.361  0.00  0.00    +0.000 A 
ATOM     21  C   UNL     1      44.606   4.277  10.395  0.00  0.00    +0.000 A 
ENDBRANCH  12  13
ENDBRANCH   4  12
TORSDOF 5
ENDMDL
MODEL 6
REMARK VINA RESULT:    -5.787      1.952      6.607
REMARK INTER + INTRA:          -7.937
REMARK INTER:                  -7.428
REMARK INTRA:                  -0.509
REMARK UNBOUND:                -0.627
REMARK  Name = 
REMARK  5 active torsions:
REMARK  status: ('A' for Active; 'I' for Inactive)
REMARK    1  A    between atoms: N_1  and  C_2
REMARK    2  A    between atoms: C_2  and  C_3
REMARK    3  A    between atoms: C_3  and  C_4
REMARK    4  A    between atoms: C_7  and  C_8
REMARK    5  A    between atoms: C_8  and  N_9
REMARK                            x       y       z     vdW  Elec       q    Type
REMARK                         _______ _______ _______ _____ _____    ______ ____
ROOT
ATOM      1  C   UNL     1      48.080   7.137  13.904  0.00  0.00    +0.000 A 
ATOM      2  C   UNL     1      47.692   5.817  13.644  0.00  0.00    +0.000 A 
ATOM      3  C   UNL     1      46.487   5.546  12.991  0.00  0.00    +0.000 A 
ATOM      4  C   UNL     1      45.646   6.588  12.578  0.00  0.00    +0.000 A 
ATOM      5  C   UNL     1      46.053   7.910  12.811  0.00  0.00    +0.000 A 
ATOM      6  C   UNL     1      47.260   8.181  13.463  0.00  0.00    +0.000 A 
ENDROOT
BRANCH   1   7
ATOM      7  C   UNL     1      49.354   7.429  14.661  0.00  0.00    +0.000 C 
BRANCH   7   8
ATOM      8  C   UNL     1      49.371   6.791  16.052  0.00  0.00    +0.000 C 
BRANCH   8   9
ATOM      9  N   UNL     1      48.310   7.344  16.895  0.00  0.00    +0.000 NA
ATOM     10  H   UNL     1      47.760   6.580  17.289  0.00  0.00    +0.000 HD
ATOM     11  H   UNL     1      47.668   7.889  16.322  0.00  0.00    +0.000 HD
ENDBRANCH   8   9
ENDBRANCH   7   8
ENDBRANCH   1   7
BRANCH   4  12
ATOM     12  C   UNL     1      44.329   6.299  11.902  0.00  0.00    +0.000 C 
BRANCH  12  13
ATOM     13  N   UNL     1      44.195   4.899  11.506  0.00  0.00    +0.000 N 
ATOM     14  C   UNL     1      43.440   3.975  12.190  0.00  0.00    +0.000 A 
ATOM     15  C   UNL     1      43.424   2.808  11.460  0.00  0.00    +0.000 A 
ATOM     16  C   UNL     1      44.193   3.022  10.284  0.00  0.00    +0.000 A 
ATOM     17  C   UNL     1      44.513   2.227   9.175  0.00  0.00    +0.000 A 
ATOM     18  N   UNL     1      45.279   2.715   8.172  0.00  0.00    +0.000 NA
ATOM     19  C   UNL     1      45.737   3.981   8.262  0.00  0.00    +0.000 A 
ATOM     20  C   UNL     1      45.475   4.849   9.313  0.00  0.00    +0.000 A 
ATOM     21  C   UNL     1      44.675   4.335  10.337  0.00  0.00    +0.000 A 
ENDBRANCH  12  13
ENDBRANCH   4  12
TORSDOF 5
ENDMDL
MODEL 7
REMARK VINA RESULT:    -5.775      2.473      3.748
REMARK INTER + INTRA:          -7.921
REMARK INTER:                  -7.330
REMARK INTRA:                  -0.591
REMARK UNBOUND:                -0.627
REMARK  Name = 
REMARK  5 active torsions:
REMARK  status: ('A' for Active; 'I' for Inactive)
REMARK    1  A    between atoms: N_1  and  C_2
REMARK    2  A    between atoms: C_2  and  C_3
REMARK    3  A    between atoms: C_3  and  C_4
REMARK    4  A    between atoms: C_7  and  C_8
REMARK    5  A    between atoms: C_8  and  N_9
REMARK                            x       y       z     vdW  Elec       q    Type
REMARK                         _______ _______ _______ _____ _____    ______ ____
ROOT
ATOM      1  C   UNL     1      44.893   3.208   9.831  0.00  0.00    +0.000 A 
ATOM      2  C   UNL     1      44.680   2.894  11.179  0.00  0.00    +0.000 A 
ATOM      3  C   UNL     1      44.812   3.874  12.166  0.00  0.00    +0.000 A 
ATOM      4  C   UNL     1      45.153   5.191  11.827  0.00  0.00    +0.000 A 
ATOM      5  C   UNL     1      45.334   5.509  10.474  0.00  0.00    +0.000 A 
ATOM      6  C   UNL     1      45.201   4.529   9.486  0.00  0.00    +0.000 A 
ENDROOT
BRANCH   1   7
ATOM      7  C   UNL     1      44.808   2.137   8.769  0.00  0.00    +0.000 C 
BRANCH   7   8
ATOM      8  C   UNL     1      46.131   1.938   8.026  0.00  0.00    +0.000 C 
BRANCH   8   9
ATOM      9  N   UNL     1      46.509   0.525   7.997  0.00  0.00    +0.000 NA
ATOM     10  H   UNL     1      45.803  -0.023   8.488  0.00  0.00    +0.000 HD
ATOM     11  H   UNL     1      47.378   0.393   8.510  0.00  0.00    +0.000 HD
ENDBRANCH   8   9
ENDBRANCH   7   8
ENDBRANCH   1   7
BRANCH   4  12
ATOM     12  C   UNL     1      45.329   6.244  12.894  0.00  0.00    +0.000 C 
BRANCH  12  13
ATOM     13  N   UNL     1      46.637   6.891  12.835  0.00  0.00    +0.000 N 
ATOM     14  C   UNL     1      47.831   6.229  13.004  0.00  0.00    +0.000 A 
ATOM     15  C   UNL     1      48.853   7.113  12.740  0.00  0.00    +0.000 A 
ATOM     16  C   UNL     1      48.268   8.360  12.391  0.00  0.00    +0.000 A 
ATOM     17  C   UNL     1      48.790   9.603  12.007  0.00  0.00    +0.000 A 
ATOM     18  N   UNL     1      47.968  10.638  11.718  0.00  0.00    +0.000 NA
ATOM     19  C   UNL     1      46.634  10.454  11.812  0.00  0.00    +0.000 A 
ATOM     20  C   UNL     1      46.019   9.265  12.179  0.00  0.00    +0.000 A 
ATOM     21  C   UNL     1      46.880   8.202  12.466  0.00  0.00    +0.000 A 
ENDBRANCH  12  13
ENDBRANCH   4  12
TORSDOF 5
ENDMDL
MODEL 8
REMARK VINA RESULT:    -5.715      1.577      6.326
REMARK INTER + INTRA:          -7.846
REMARK INTER:                  -7.373
REMARK INTRA:                  -0.473
REMARK UNBOUND:                -0.627
REMARK  Name = 
REMARK  5 active torsions:
REMARK  status: ('A' for Active; 'I' for Inactive)
REMARK    1  A    between atoms: N_1  and  C_2
REMARK    2  A    between atoms: C_2  and  C_3
REMARK    3  A    between atoms: C_3  and  C_4
REMARK    4  A    between atoms: C_7  and  C_8
REMARK    5  A    between atoms: C_8  and  N_9
REMARK                            x       y       z     vdW  Elec       q    Type
REMARK                         _______ _______ _______ _____ _____    ______ ____
ROOT
ATOM      1  C   UNL     1      46.692   6.199  12.648  0.00  0.00    +0.000 A 
ATOM      2  C   UNL     1      45.990   4.996  12.789  0.00  0.00    +0.000 A 
ATOM      3  C   UNL     1      45.322   4.431  11.700  0.00  0.00    +0.000 A 
ATOM      4  C   UNL     1      45.348   5.051  10.444  0.00  0.00    +0.000 A 
ATOM      5  C   UNL     1      46.080   6.239  10.297  0.00  0.00    +0.000 A 
ATOM      6  C   UNL     1      46.749   6.804  11.388  0.00  0.00    +0.000 A 
ENDROOT
BRANCH   1   7
ATOM      7  C   UNL     1      47.365   6.841  13.838  0.00  0.00    +0.000 C 
BRANCH   7   8
ATOM      8  C   UNL     1      48.597   7.660  13.447  0.00  0.00    +0.000 C 
BRANCH   8   9
ATOM      9  N   UNL     1      49.670   6.794  12.960  0.00  0.00    +0.000 NA
ATOM     10  H   UNL     1      50.417   6.759  13.654  0.00  0.00    +0.000 HD
ATOM     11  H   UNL     1      50.081   7.198  12.120  0.00  0.00    +0.000 HD
ENDBRANCH   8   9
ENDBRANCH   7   8
ENDBRANCH   1   7
BRANCH   4  12
ATOM     12  C   UNL     1      44.601   4.461   9.273  0.00  0.00    +0.000 C 
BRANCH  12  13
ATOM     13  N   UNL     1      45.051   3.111   8.942  0.00  0.00    +0.000 N 
ATOM     14  C   UNL     1      44.399   1.966   9.335  0.00  0.00    +0.000 A 
ATOM     15  C   UNL     1      45.011   0.893   8.729  0.00  0.00    +0.000 A 
ATOM     16  C   UNL     1      46.074   1.395   7.931  0.00  0.00    +0.000 A 
ATOM     17  C   UNL     1      47.017   0.799   7.082  0.00  0.00    +0.000 A 
ATOM     18  N   UNL     1      47.931   1.551   6.426  0.00  0.00    +0.000 NA
ATOM     19  C   UNL     1      47.922   2.888   6.608  0.00  0.00    +0.000 A 
ATOM     20  C   UNL     1      47.031   3.574   7.422  0.00  0.00    +0.000 A 
ATOM     21  C   UNL     1      46.088   2.786   8.086  0.00  0.00    +0.000 A 
ENDBRANCH  12  13
ENDBRANCH   4  12
TORSDOF 5
ENDMDL
MODEL 9
REMARK VINA RESULT:    -5.400      3.610      7.663
REMARK INTER + INTRA:          -7.447
REMARK INTER:                  -6.869
REMARK INTRA:                  -0.578
REMARK UNBOUND:                -0.627
REMARK  Name = 
REMARK  5 active torsions:
REMARK  status: ('A' for Active; 'I' for Inactive)
REMARK    1  A    between atoms: N_1  and  C_2
REMARK    2  A    between atoms: C_2  and  C_3
REMARK    3  A    between atoms: C_3  and  C_4
REMARK    4  A    between atoms: C_7  and  C_8
REMARK    5  A    between atoms: C_8  and  N_9
REMARK                            x       y       z     vdW  Elec       q    Type
REMARK                         _______ _______ _______ _____ _____    ______ ____
ROOT
ATOM      1  C   UNL     1      48.029   5.456  17.510  0.00  0.00    +0.000 A 
ATOM      2  C   UNL     1      47.313   4.424  16.892  0.00  0.00    +0.000 A 
ATOM      3  C   UNL     1      47.175   4.388  15.502  0.00  0.00    +0.000 A 
ATOM      4  C   UNL     1      47.757   5.379  14.699  0.00  0.00    +0.000 A 
ATOM      5  C   UNL     1      48.502   6.393  15.319  0.00  0.00    +0.000 A 
ATOM      6  C   UNL     1      48.640   6.428  16.710  0.00  0.00    +0.000 A 
ENDROOT
BRANCH   1   7
ATOM      7  C   UNL     1      48.129   5.527  19.016  0.00  0.00    +0.000 C 
BRANCH   7   8
ATOM      8  C   UNL     1      49.061   4.461  19.595  0.00  0.00    +0.000 C 
BRANCH   8   9
ATOM      9  N   UNL     1      48.411   3.733  20.686  0.00  0.00    +0.000 NA
ATOM     10  H   UNL     1      47.719   4.338  21.130  0.00  0.00    +0.000 HD
ATOM     11  H   UNL     1      49.097   3.512  21.406  0.00  0.00    +0.000 HD
ENDBRANCH   8   9
ENDBRANCH   7   8
ENDBRANCH   1   7
BRANCH   4  12
ATOM     12  C   UNL     1      47.583   5.362  13.200  0.00  0.00    +0.000 C 
BRANCH  12  13
ATOM     13  N   UNL     1      46.249   5.786  12.784  0.00  0.00    +0.000 N 
ATOM     14  C   UNL     1      45.872   7.101  12.637  0.00  0.00    +0.000 A 
ATOM     15  C   UNL     1      44.606   7.127  12.096  0.00  0.00    +0.000 A 
ATOM     16  C   UNL     1      44.192   5.782  11.899  0.00  0.00    +0.000 A 
ATOM     17  C   UNL     1      43.036   5.189  11.372  0.00  0.00    +0.000 A 
ATOM     18  N   UNL     1      42.921   3.843  11.298  0.00  0.00    +0.000 NA
ATOM     19  C   UNL     1      43.939   3.078  11.749  0.00  0.00    +0.000 A 
ATOM     20  C   UNL     1      45.123   3.566  12.284  0.00  0.00    +0.000 A 
ATOM     21  C   UNL     1      45.232   4.958  12.345  0.00  0.00    +0.000 A 
ENDBRANCH  12  13
ENDBRANCH   4  12
TORSDOF 5
ENDMDL
