MODEL 1
REMARK VINA RESULT:    -9.078      0.000      0.000
REMARK INTER + INTRA:         -13.250
REMARK INTER:                 -12.262
REMARK INTRA:                  -0.988
REMARK UNBOUND:                -0.988
REMARK  Name = 
REMARK  6 active torsions:
REMARK  status: ('A' for Active; 'I' for Inactive)
REMARK    1  A    between atoms: C_2  and  C_3
REMARK    2  A    between atoms: C_6  and  C_7
REMARK    3  A    between atoms: C_9  and  C_10
REMARK    4  A    between atoms: C_10  and  N_11
REMARK    5  A    between atoms: N_11  and  C_12
REMARK    6  A    between atoms: C_15  and  C_16
REMARK                            x       y       z     vdW  Elec       q    Type
REMARK                         _______ _______ _______ _____ _____    ______ ____
ROOT
ATOM      1  C   UNL     1      43.925   5.480  11.158  0.00  0.00    +0.000 C 
ATOM      2  C   UNL     1      42.917   6.479  11.685  0.00  0.00    +0.000 C 
ATOM      3  C   UNL     1      42.622   5.026  11.820  0.00  0.00    +0.000 C 
ENDROOT
BRANCH   1   6
ATOM      4  C   UNL     1      47.383   6.054  12.705  0.00  0.00    +0.000 A 
ATOM      5  C   UNL     1      46.241   6.222  11.924  0.00  0.00    +0.000 A 
ATOM      6  C   UNL     1      45.210   5.274  11.949  0.00  0.00    +0.000 A 
ATOM      7  C   UNL     1      45.411   4.146  12.750  0.00  0.00    +0.000 A 
ATOM      8  C   UNL     1      46.561   4.048  13.510  0.00  0.00    +0.000 A 
ATOM      9  N   UNL     1      47.541   4.972  13.506  0.00  0.00    +0.000 NA
BRANCH   4  13
ATOM     10  C   UNL     1      50.615   8.899  12.676  0.00  0.00    +0.000 A 
ATOM     11  C   UNL     1      50.352   8.165  13.829  0.00  0.00    +0.000 A 
ATOM     12  C   UNL     1      49.306   7.232  13.845  0.00  0.00    +0.000 A 
ATOM     13  C   UNL     1      48.498   7.021  12.712  0.00  0.00    +0.000 A 
ATOM     14  C   UNL     1      48.791   7.774  11.558  0.00  0.00    +0.000 A 
ATOM     15  C   UNL     1      49.833   8.703  11.536  0.00  0.00    +0.000 A 
BRANCH  10  17
ATOM     16  N   UNL     1      52.550  10.617  12.637  0.00  0.00    +0.000 NA
ATOM     17  C   UNL     1      51.682   9.845  12.657  0.00  0.00    +0.000 C 
ENDBRANCH  10  17
ENDBRANCH   4  13
ENDBRANCH   1   6
BRANCH   1  18
ATOM     18  N   UNL     1      44.028   5.108   9.746  0.00  0.00    +0.000 N 
ATOM     19  H   UNL     1      43.606   5.742   9.076  0.00  0.00    +0.000 HD
BRANCH  18  20
ATOM     20  C   UNL     1      44.717   4.026   9.173  0.00  0.00    +0.000 A 
ATOM     21  C   UNL     1      45.658   4.338   8.177  0.00  0.00    +0.000 A 
ATOM     22  C   UNL     1      46.431   3.353   7.553  0.00  0.00    +0.000 A 
ATOM     23  C   UNL     1      46.273   2.013   7.906  0.00  0.00    +0.000 A 
ATOM     24  C   UNL     1      45.304   1.677   8.859  0.00  0.00    +0.000 A 
ATOM     25  C   UNL     1      44.537   2.672   9.475  0.00  0.00    +0.000 A 
ATOM     26  F   UNL     1      43.640   2.278  10.392  0.00  0.00    +0.000 F 
BRANCH  23  27
ATOM     27  C   UNL     1      47.104   0.922   7.321  0.00  0.00    +0.000 C 
ATOM     28  N   UNL     1      46.805  -0.375   7.637  0.00  0.00    +0.000 N 
ATOM     29  O   UNL     1      48.032   1.169   6.560  0.00  0.00    +0.000 OA
ATOM     30  H   UNL     1      46.056  -0.680   8.235  0.00  0.00    +0.000 HD
ATOM     31  H   UNL     1      47.377  -1.091   7.205  0.00  0.00    +0.000 HD
ENDBRANCH  23  27
ENDBRANCH  18  20
ENDBRANCH   1  18
TORSDOF 6
ENDMDL
MODEL 2
REMARK VINA RESULT:    -8.633      2.357      3.579
REMARK INTER + INTRA:         -12.649
REMARK INTER:                 -12.379
REMARK INTRA:                  -0.270
REMARK UNBOUND:                -0.988
REMARK  Name = 
REMARK  6 active torsions:
REMARK  status: ('A' for Active; 'I' for Inactive)
REMARK    1  A    between atoms: C_2  and  C_3
REMARK    2  A    between atoms: C_6  and  C_7
REMARK    3  A    between atoms: C_9  and  C_10
REMARK    4  A    between atoms: C_10  and  N_11
REMARK    5  A    between atoms: N_11  and  C_12
REMARK    6  A    between atoms: C_15  and  C_16
REMARK                            x       y       z     vdW  Elec       q    Type
REMARK                         _______ _______ _______ _____ _____    ______ ____
ROOT
ATOM      1  C   UNL     1      43.913   5.015  11.564  0.00  0.00    +0.000 C 
ATOM      2  C   UNL     1      42.703   5.261  12.440  0.00  0.00    +0.000 C 
ATOM      3  C   UNL     1      43.333   3.911  12.451  0.00  0.00    +0.000 C 
ENDROOT
BRANCH   1   6
ATOM      4  C   UNL     1      47.055   5.833  13.598  0.00  0.00    +0.000 A 
ATOM      5  C   UNL     1      45.805   5.328  13.244  0.00  0.00    +0.000 A 
ATOM      6  C   UNL     1      45.243   5.619  11.994  0.00  0.00    +0.000 A 
ATOM      7  C   UNL     1      45.973   6.469  11.158  0.00  0.00    +0.000 A 
ATOM      8  C   UNL     1      47.213   6.924  11.566  0.00  0.00    +0.000 A 
ATOM      9  N   UNL     1      47.765   6.624  12.757  0.00  0.00    +0.000 NA
BRANCH   4  13
ATOM     10  C   UNL     1      48.881   4.982  17.404  0.00  0.00    +0.000 A 
ATOM     11  C   UNL     1      49.249   6.126  16.703  0.00  0.00    +0.000 A 
ATOM     12  C   UNL     1      48.655   6.415  15.466  0.00  0.00    +0.000 A 
ATOM     13  C   UNL     1      47.688   5.560  14.904  0.00  0.00    +0.000 A 
ATOM     14  C   UNL     1      47.330   4.413  15.640  0.00  0.00    +0.000 A 
ATOM     15  C   UNL     1      47.917   4.123  16.872  0.00  0.00    +0.000 A 
BRANCH  10  17
ATOM     16  N   UNL     1      49.966   4.456  19.694  0.00  0.00    +0.000 NA
ATOM     17  C   UNL     1      49.481   4.691  18.665  0.00  0.00    +0.000 C 
ENDBRANCH  10  17
ENDBRANCH   4  13
ENDBRANCH   1   6
BRANCH   1  18
ATOM     18  N   UNL     1      43.825   4.726  10.132  0.00  0.00    +0.000 N 
ATOM     19  H   UNL     1      43.114   5.226   9.609  0.00  0.00    +0.000 HD
BRANCH  18  20
ATOM     20  C   UNL     1      44.657   3.908   9.350  0.00  0.00    +0.000 A 
ATOM     21  C   UNL     1      45.471   4.559   8.407  0.00  0.00    +0.000 A 
ATOM     22  C   UNL     1      46.366   3.859   7.591  0.00  0.00    +0.000 A 
ATOM     23  C   UNL     1      46.464   2.471   7.691  0.00  0.00    +0.000 A 
ATOM     24  C   UNL     1      45.625   1.799   8.588  0.00  0.00    +0.000 A 
ATOM     25  C   UNL     1      44.733   2.511   9.398  0.00  0.00    +0.000 A 
ATOM     26  F   UNL     1      43.972   1.803  10.246  0.00  0.00    +0.000 F 
BRANCH  23  27
ATOM     27  C   UNL     1      47.437   1.672   6.893  0.00  0.00    +0.000 C 
ATOM     28  N   UNL     1      48.546   2.296   6.390  0.00  0.00    +0.000 N 
ATOM     29  O   UNL     1      47.265   0.476   6.694  0.00  0.00    +0.000 OA
ATOM     30  H   UNL     1      48.785   3.265   6.513  0.00  0.00    +0.000 HD
ATOM     31  H   UNL     1      49.196   1.718   5.871  0.00  0.00    +0.000 HD
ENDBRANCH  23  27
ENDBRANCH  18  20
ENDBRANCH   1  18
TORSDOF 6
ENDMDL
MODEL 3
REMARK VINA RESULT:    -7.928      1.600      2.022
REMARK INTER + INTRA:         -11.697
REMARK INTER:                 -11.325
REMARK INTRA:                  -0.372
REMARK UNBOUND:                -0.988
REMARK  Name = 
REMARK  6 active torsions:
REMARK  status: ('A' for Active; 'I' for Inactive)
REMARK    1  A    between atoms: C_2  and  C_3
REMARK    2  A    between atoms: C_6  and  C_7
REMARK    3  A    between atoms: C_9  and  C_10
REMARK    4  A    between atoms: C_10  and  N_11
REMARK    5  A    between atoms: N_11  and  C_12
REMARK    6  A    between atoms: C_15  and  C_16
REMARK                            x       y       z     vdW  Elec       q    Type
REMARK                         _______ _______ _______ _____ _____    ______ ____
ROOT
ATOM      1  C   UNL     1      44.003   5.218  11.500  0.00  0.00    +0.000 C 
ATOM      2  C   UNL     1      43.105   4.749  12.625  0.00  0.00    +0.000 C 
ATOM      3  C   UNL     1      44.425   4.084  12.439  0.00  0.00    +0.000 C 
ENDROOT
BRANCH   1   6
ATOM      4  C   UNL     1      46.728   7.838  12.124  0.00  0.00    +0.000 A 
ATOM      5  C   UNL     1      46.067   6.614  12.044  0.00  0.00    +0.000 A 
ATOM      6  C   UNL     1      44.719   6.552  11.664  0.00  0.00    +0.000 A 
ATOM      7  C   UNL     1      44.076   7.770  11.424  0.00  0.00    +0.000 A 
ATOM      8  C   UNL     1      44.795   8.947  11.508  0.00  0.00    +0.000 A 
ATOM      9  N   UNL     1      46.097   9.005  11.848  0.00  0.00    +0.000 NA
BRANCH   4  13
ATOM     10  C   UNL     1      50.870   8.217  13.239  0.00  0.00    +0.000 A 
ATOM     11  C   UNL     1      49.943   7.767  14.173  0.00  0.00    +0.000 A 
ATOM     12  C   UNL     1      48.593   7.634  13.817  0.00  0.00    +0.000 A 
ATOM     13  C   UNL     1      48.145   7.957  12.522  0.00  0.00    +0.000 A 
ATOM     14  C   UNL     1      49.108   8.404  11.596  0.00  0.00    +0.000 A 
ATOM     15  C   UNL     1      50.453   8.535  11.946  0.00  0.00    +0.000 A 
BRANCH  10  17
ATOM     16  N   UNL     1      53.364   8.447  13.892  0.00  0.00    +0.000 NA
ATOM     17  C   UNL     1      52.244   8.347  13.599  0.00  0.00    +0.000 C 
ENDBRANCH  10  17
ENDBRANCH   4  13
ENDBRANCH   1   6
BRANCH   1  18
ATOM     18  N   UNL     1      43.837   4.797  10.108  0.00  0.00    +0.000 N 
ATOM     19  H   UNL     1      43.045   5.186   9.607  0.00  0.00    +0.000 HD
BRANCH  18  20
ATOM     20  C   UNL     1      44.682   3.989   9.330  0.00  0.00    +0.000 A 
ATOM     21  C   UNL     1      45.553   4.655   8.452  0.00  0.00    +0.000 A 
ATOM     22  C   UNL     1      46.466   3.964   7.647  0.00  0.00    +0.000 A 
ATOM     23  C   UNL     1      46.523   2.571   7.693  0.00  0.00    +0.000 A 
ATOM     24  C   UNL     1      45.627   1.886   8.523  0.00  0.00    +0.000 A 
ATOM     25  C   UNL     1      44.718   2.590   9.322  0.00  0.00    +0.000 A 
ATOM     26  F   UNL     1      43.902   1.869  10.107  0.00  0.00    +0.000 F 
BRANCH  23  27
ATOM     27  C   UNL     1      47.509   1.778   6.905  0.00  0.00    +0.000 C 
ATOM     28  N   UNL     1      48.612   2.412   6.401  0.00  0.00    +0.000 N 
ATOM     29  O   UNL     1      47.353   0.578   6.715  0.00  0.00    +0.000 OA
ATOM     30  H   UNL     1      48.838   3.386   6.517  0.00  0.00    +0.000 HD
ATOM     31  H   UNL     1      49.271   1.839   5.889  0.00  0.00    +0.000 HD
ENDBRANCH  23  27
ENDBRANCH  18  20
ENDBRANCH   1  18
TORSDOF 6
ENDMDL
MODEL 4
REMARK VINA RESULT:    -6.788      4.031      6.003
REMARK INTER + INTRA:         -10.157
REMARK INTER:                  -9.176
REMARK INTRA:                  -0.981
REMARK UNBOUND:                -0.988
REMARK  Name = 
REMARK  6 active torsions:
REMARK  status: ('A' for Active; 'I' for Inactive)
REMARK    1  A    between atoms: C_2  and  C_3
REMARK    2  A    between atoms: C_6  and  C_7
REMARK    3  A    between atoms: C_9  and  C_10
REMARK    4  A    between atoms: C_10  and  N_11
REMARK    5  A    between atoms: N_11  and  C_12
REMARK    6  A    between atoms: C_15  and  C_16
REMARK                            x       y       z     vdW  Elec       q    Type
REMARK                         _______ _______ _______ _____ _____    ______ ____
ROOT
ATOM      1  C   UNL     1      47.756   7.965  13.309  0.00  0.00    +0.000 C 
ATOM      2  C   UNL     1      48.683   7.802  12.123  0.00  0.00    +0.000 C 
ATOM      3  C   UNL     1      48.108   9.147  12.402  0.00  0.00    +0.000 C 
ENDROOT
BRANCH   1   6
ATOM      4  C   UNL     1      49.759   6.921  16.404  0.00  0.00    +0.000 A 
ATOM      5  C   UNL     1      49.149   6.884  15.151  0.00  0.00    +0.000 A 
ATOM      6  C   UNL     1      48.368   7.958  14.703  0.00  0.00    +0.000 A 
ATOM      7  C   UNL     1      48.199   9.026  15.589  0.00  0.00    +0.000 A 
ATOM      8  C   UNL     1      48.844   9.004  16.812  0.00  0.00    +0.000 A 
ATOM      9  N   UNL     1      49.615   7.984  17.232  0.00  0.00    +0.000 NA
BRANCH   4  13
ATOM     10  C   UNL     1      52.132   3.659  17.910  0.00  0.00    +0.000 A 
ATOM     11  C   UNL     1      52.753   4.841  17.521  0.00  0.00    +0.000 A 
ATOM     12  C   UNL     1      51.988   5.911  17.035  0.00  0.00    +0.000 A 
ATOM     13  C   UNL     1      50.588   5.815  16.922  0.00  0.00    +0.000 A 
ATOM     14  C   UNL     1      49.986   4.608  17.330  0.00  0.00    +0.000 A 
ATOM     15  C   UNL     1      50.744   3.541  17.816  0.00  0.00    +0.000 A 
BRANCH  10  17
ATOM     16  N   UNL     1      53.547   1.689  18.814  0.00  0.00    +0.000 NA
ATOM     17  C   UNL     1      52.909   2.572  18.410  0.00  0.00    +0.000 C 
ENDBRANCH  10  17
ENDBRANCH   4  13
ENDBRANCH   1   6
BRANCH   1  18
ATOM     18  N   UNL     1      46.338   7.602  13.279  0.00  0.00    +0.000 N 
ATOM     19  H   UNL     1      45.679   8.319  13.562  0.00  0.00    +0.000 HD
BRANCH  18  20
ATOM     20  C   UNL     1      45.748   6.412  12.822  0.00  0.00    +0.000 A 
ATOM     21  C   UNL     1      44.979   6.503  11.649  0.00  0.00    +0.000 A 
ATOM     22  C   UNL     1      44.366   5.384  11.075  0.00  0.00    +0.000 A 
ATOM     23  C   UNL     1      44.500   4.131  11.673  0.00  0.00    +0.000 A 
ATOM     24  C   UNL     1      45.218   4.029  12.871  0.00  0.00    +0.000 A 
ATOM     25  C   UNL     1      45.825   5.157  13.435  0.00  0.00    +0.000 A 
ATOM     26  F   UNL     1      46.512   4.981  14.574  0.00  0.00    +0.000 F 
BRANCH  23  27
ATOM     27  C   UNL     1      43.920   2.891  11.083  0.00  0.00    +0.000 C 
ATOM     28  N   UNL     1      44.570   2.292  10.039  0.00  0.00    +0.000 N 
ATOM     29  O   UNL     1      42.889   2.399  11.524  0.00  0.00    +0.000 OA
ATOM     30  H   UNL     1      45.429   2.607   9.619  0.00  0.00    +0.000 HD
ATOM     31  H   UNL     1      44.160   1.440   9.677  0.00  0.00    +0.000 HD
ENDBRANCH  23  27
ENDBRANCH  18  20
ENDBRANCH   1  18
TORSDOF 6
ENDMDL
MODEL 5
REMARK VINA RESULT:    -6.322      4.882      8.749
REMARK INTER + INTRA:          -9.528
REMARK INTER:                  -8.347
REMARK INTRA:                  -1.181
REMARK UNBOUND:                -0.988
REMARK  Name = 
REMARK  6 active torsions:
REMARK  status: ('A' for Active; 'I' for Inactive)
REMARK    1  A    between atoms: C_2  and  C_3
REMARK    2  A    between atoms: C_6  and  C_7
REMARK    3  A    between atoms: C_9  and  C_10
REMARK    4  A    between atoms: C_10  and  N_11
REMARK    5  A    between atoms: N_11  and  C_12
REMARK    6  A    between atoms: C_15  and  C_16
REMARK                            x       y       z     vdW  Elec       q    Type
REMARK                         _______ _______ _______ _____ _____    ______ ____
ROOT
ATOM      1  C   UNL     1      49.596   7.406  17.513  0.00  0.00    +0.000 C 
ATOM      2  C   UNL     1      48.311   7.728  18.246  0.00  0.00    +0.000 C 
ATOM      3  C   UNL     1      49.354   8.785  18.132  0.00  0.00    +0.000 C 
ENDROOT
BRANCH   1   6
ATOM      4  C   UNL     1      48.443   6.629  13.942  0.00  0.00    +0.000 A 
ATOM      5  C   UNL     1      48.509   6.647  15.335  0.00  0.00    +0.000 A 
ATOM      6  C   UNL     1      49.551   7.314  15.993  0.00  0.00    +0.000 A 
ATOM      7  C   UNL     1      50.529   7.905  15.188  0.00  0.00    +0.000 A 
ATOM      8  C   UNL     1      50.395   7.861  13.813  0.00  0.00    +0.000 A 
ATOM      9  N   UNL     1      49.380   7.243  13.180  0.00  0.00    +0.000 NA
BRANCH   4  13
ATOM     10  C   UNL     1      45.302   4.580  11.827  0.00  0.00    +0.000 A 
ATOM     11  C   UNL     1      45.782   5.793  11.343  0.00  0.00    +0.000 A 
ATOM     12  C   UNL     1      46.809   6.464  12.022  0.00  0.00    +0.000 A 
ATOM     13  C   UNL     1      47.369   5.938  13.202  0.00  0.00    +0.000 A 
ATOM     14  C   UNL     1      46.868   4.705  13.664  0.00  0.00    +0.000 A 
ATOM     15  C   UNL     1      45.847   4.033  12.990  0.00  0.00    +0.000 A 
BRANCH  10  17
ATOM     16  N   UNL     1      43.416   3.332  10.568  0.00  0.00    +0.000 NA
ATOM     17  C   UNL     1      44.260   3.895  11.134  0.00  0.00    +0.000 C 
ENDBRANCH  10  17
ENDBRANCH   4  13
ENDBRANCH   1   6
BRANCH   1  18
ATOM     18  N   UNL     1      50.709   6.676  18.121  0.00  0.00    +0.000 N 
ATOM     19  H   UNL     1      51.276   7.184  18.791  0.00  0.00    +0.000 HD
BRANCH  18  20
ATOM     20  C   UNL     1      51.054   5.322  17.971  0.00  0.00    +0.000 A 
ATOM     21  C   UNL     1      52.427   5.025  17.937  0.00  0.00    +0.000 A 
ATOM     22  C   UNL     1      52.899   3.712  17.824  0.00  0.00    +0.000 A 
ATOM     23  C   UNL     1      51.998   2.651  17.731  0.00  0.00    +0.000 A 
ATOM     24  C   UNL     1      50.626   2.932  17.711  0.00  0.00    +0.000 A 
ATOM     25  C   UNL     1      50.168   4.250  17.823  0.00  0.00    +0.000 A 
ATOM     26  F   UNL     1      48.840   4.442  17.815  0.00  0.00    +0.000 F 
BRANCH  23  27
ATOM     27  C   UNL     1      52.434   1.227  17.666  0.00  0.00    +0.000 C 
ATOM     28  N   UNL     1      51.578   0.256  18.107  0.00  0.00    +0.000 N 
ATOM     29  O   UNL     1      53.531   0.918  17.216  0.00  0.00    +0.000 OA
ATOM     30  H   UNL     1      50.653   0.406  18.475  0.00  0.00    +0.000 HD
ATOM     31  H   UNL     1      51.898  -0.702  18.029  0.00  0.00    +0.000 HD
ENDBRANCH  23  27
ENDBRANCH  18  20
ENDBRANCH   1  18
TORSDOF 6
ENDMDL
