MODEL 1
REMARK VINA RESULT:    -8.347      0.000      0.000
REMARK INTER + INTRA:         -12.151
REMARK INTER:                 -11.519
REMARK INTRA:                  -0.632
REMARK UNBOUND:                -0.632
REMARK  Name = 
REMARK  7 active torsions:
REMARK  status: ('A' for Active; 'I' for Inactive)
REMARK    1  A    between atoms: CA_9  and  C_10
REMARK    2  A    between atoms: N_12  and  CA_13
REMARK    3  A    between atoms: CA_13  and  C_14
REMARK    4  A    between atoms: CA_13  and  C_16
REMARK    5  A    between atoms: C_14  and  O_15
REMARK    6  A    between atoms: C_19  and  O_20
REMARK    7  A    between atoms: O_20  and  C_21
REMARK                            x       y       z     vdW  Elec       q    Type
REMARK                         _______ _______ _______ _____ _____    ______ ____
ROOT
ATOM      1  C   UNL     1      47.153   5.299  14.133  0.00  0.00    +0.000 C 
ATOM      2  O   UNL     1      47.896   5.535  13.184  0.00  0.00    +0.000 OA
ATOM      3  N   UNL     1      45.808   5.580  14.109  0.00  0.00    +0.000 N 
ATOM      4  H   UNL     1      45.216   5.293  14.878  0.00  0.00    +0.000 HD
ENDROOT
BRANCH   1  13
ATOM      5  N   UNL     1      48.974   7.748  15.321  0.00  0.00    +0.000 N 
ATOM      6  C   UNL     1      49.010   6.793  16.292  0.00  0.00    +0.000 A 
ATOM      7  N   UNL     1      49.619   6.980  17.453  0.00  0.00    +0.000 NA
ATOM      8  N   UNL     1      49.470   5.798  18.168  0.00  0.00    +0.000 N 
ATOM      9  C   UNL     1      48.749   4.823  17.524  0.00  0.00    +0.000 A 
ATOM     10  N   UNL     1      48.412   3.643  17.940  0.00  0.00    +0.000 NA
ATOM     11  C   UNL     1      47.653   2.960  17.024  0.00  0.00    +0.000 C 
ATOM     12  N   UNL     1      47.314   3.396  15.768  0.00  0.00    +0.000 N 
ATOM     13  CA  UNL     1      47.653   4.695  15.401  0.00  0.00    +0.000 C 
ATOM     14  C   UNL     1      48.398   5.440  16.221  0.00  0.00    +0.000 A 
ATOM     15  H   UNL     1      49.131   8.688  15.662  0.00  0.00    +0.000 HD
ATOM     16  H   UNL     1      48.184   7.674  14.672  0.00  0.00    +0.000 HD
ATOM     17  H   UNL     1      49.810   5.688  19.116  0.00  0.00    +0.000 HD
ATOM     18  H   UNL     1      46.500   2.973  15.338  0.00  0.00    +0.000 HD
ENDBRANCH   1  13
BRANCH   3  19
ATOM     19  CA  UNL     1      45.211   6.272  12.973  0.00  0.00    +0.000 C 
BRANCH  19  20
ATOM     20  C   UNL     1      45.006   5.358  11.780  0.00  0.00    +0.000 A 
ATOM     21  C   UNL     1      45.531   5.742  10.536  0.00  0.00    +0.000 A 
ATOM     22  C   UNL     1      45.382   4.925   9.415  0.00  0.00    +0.000 A 
ATOM     23  C   UNL     1      44.744   3.689   9.526  0.00  0.00    +0.000 A 
ATOM     24  C   UNL     1      44.189   3.309  10.749  0.00  0.00    +0.000 A 
ATOM     25  C   UNL     1      44.328   4.132  11.871  0.00  0.00    +0.000 A 
BRANCH  23  26
ATOM     26  O   UNL     1      44.558   2.831   8.468  0.00  0.00    +0.000 OA
BRANCH  26  27
ATOM     27  C   UNL     1      45.666   2.476   7.707  0.00  0.00    +0.000 A 
ATOM     28  C   UNL     1      45.946   3.277   6.609  0.00  0.00    +0.000 A 
ATOM     29  C   UNL     1      47.062   2.970   5.836  0.00  0.00    +0.000 A 
ATOM     30  C   UNL     1      47.851   1.878   6.182  0.00  0.00    +0.000 A 
ATOM     31  C   UNL     1      47.477   1.119   7.278  0.00  0.00    +0.000 A 
ATOM     32  N   UNL     1      46.396   1.384   8.038  0.00  0.00    +0.000 NA
ENDBRANCH  26  27
ENDBRANCH  23  26
ENDBRANCH  19  20
BRANCH  19  33
ATOM     33  C   UNL     1      46.028   7.521  12.585  0.00  0.00    +0.000 C 
BRANCH  33  34
ATOM     34  O   UNL     1      46.359   8.315  13.728  0.00  0.00    +0.000 OA
ATOM     35  H   UNL     1      46.178   9.248  13.518  0.00  0.00    +0.000 HD
ENDBRANCH  33  34
ENDBRANCH  19  33
ENDBRANCH   3  19
TORSDOF 7
ENDMDL
MODEL 2
REMARK VINA RESULT:    -7.793      1.807      3.026
REMARK INTER + INTRA:         -11.386
REMARK INTER:                 -10.273
REMARK INTRA:                  -1.113
REMARK UNBOUND:                -0.632
REMARK  Name = 
REMARK  7 active torsions:
REMARK  status: ('A' for Active; 'I' for Inactive)
REMARK    1  A    between atoms: CA_9  and  C_10
REMARK    2  A    between atoms: N_12  and  CA_13
REMARK    3  A    between atoms: CA_13  and  C_14
REMARK    4  A    between atoms: CA_13  and  C_16
REMARK    5  A    between atoms: C_14  and  O_15
REMARK    6  A    between atoms: C_19  and  O_20
REMARK    7  A    between atoms: O_20  and  C_21
REMARK                            x       y       z     vdW  Elec       q    Type
REMARK                         _______ _______ _______ _____ _____    ______ ____
ROOT
ATOM      1  C   UNL     1      48.957   6.982  16.015  0.00  0.00    +0.000 C 
ATOM      2  O   UNL     1      48.618   8.035  16.549  0.00  0.00    +0.000 OA
ATOM      3  N   UNL     1      48.529   6.616  14.761  0.00  0.00    +0.000 N 
ATOM      4  H   UNL     1      48.897   5.782  14.323  0.00  0.00    +0.000 HD
ENDROOT
BRANCH   1  13
ATOM      5  N   UNL     1      46.796   4.742  17.031  0.00  0.00    +0.000 N 
ATOM      6  C   UNL     1      48.010   4.222  17.365  0.00  0.00    +0.000 A 
ATOM      7  N   UNL     1      48.146   3.021  17.905  0.00  0.00    +0.000 NA
ATOM      8  N   UNL     1      49.506   2.844  18.127  0.00  0.00    +0.000 N 
ATOM      9  C   UNL     1      50.296   3.892  17.724  0.00  0.00    +0.000 A 
ATOM     10  N   UNL     1      51.586   4.008  17.763  0.00  0.00    +0.000 NA
ATOM     11  C   UNL     1      52.023   5.195  17.233  0.00  0.00    +0.000 C 
ATOM     12  N   UNL     1      51.230   6.211  16.761  0.00  0.00    +0.000 N 
ATOM     13  CA  UNL     1      49.856   6.004  16.689  0.00  0.00    +0.000 C 
ATOM     14  C   UNL     1      49.331   4.881  17.187  0.00  0.00    +0.000 A 
ATOM     15  H   UNL     1      46.071   4.046  16.903  0.00  0.00    +0.000 HD
ATOM     16  H   UNL     1      46.818   5.451  16.291  0.00  0.00    +0.000 HD
ATOM     17  H   UNL     1      49.890   1.982  18.498  0.00  0.00    +0.000 HD
ATOM     18  H   UNL     1      51.652   6.859  16.106  0.00  0.00    +0.000 HD
ENDBRANCH   1  13
BRANCH   3  19
ATOM     19  CA  UNL     1      47.560   7.430  14.036  0.00  0.00    +0.000 C 
BRANCH  19  20
ATOM     20  C   UNL     1      46.727   6.615  13.066  0.00  0.00    +0.000 A 
ATOM     21  C   UNL     1      46.301   7.214  11.870  0.00  0.00    +0.000 A 
ATOM     22  C   UNL     1      45.549   6.497  10.941  0.00  0.00    +0.000 A 
ATOM     23  C   UNL     1      45.243   5.154  11.169  0.00  0.00    +0.000 A 
ATOM     24  C   UNL     1      45.631   4.555  12.368  0.00  0.00    +0.000 A 
ATOM     25  C   UNL     1      46.377   5.276  13.306  0.00  0.00    +0.000 A 
BRANCH  23  26
ATOM     26  O   UNL     1      44.504   4.383  10.302  0.00  0.00    +0.000 OA
BRANCH  26  27
ATOM     27  C   UNL     1      45.175   3.714   9.284  0.00  0.00    +0.000 A 
ATOM     28  C   UNL     1      45.257   2.335   9.399  0.00  0.00    +0.000 A 
ATOM     29  C   UNL     1      45.899   1.625   8.388  0.00  0.00    +0.000 A 
ATOM     30  C   UNL     1      46.438   2.316   7.307  0.00  0.00    +0.000 A 
ATOM     31  C   UNL     1      46.333   3.697   7.293  0.00  0.00    +0.000 A 
ATOM     32  N   UNL     1      45.727   4.411   8.263  0.00  0.00    +0.000 NA
ENDBRANCH  26  27
ENDBRANCH  23  26
ENDBRANCH  19  20
BRANCH  19  33
ATOM     33  C   UNL     1      48.245   8.615  13.325  0.00  0.00    +0.000 C 
BRANCH  33  34
ATOM     34  O   UNL     1      48.074   9.838  14.045  0.00  0.00    +0.000 OA
ATOM     35  H   UNL     1      48.054   9.635  14.997  0.00  0.00    +0.000 HD
ENDBRANCH  33  34
ENDBRANCH  19  33
ENDBRANCH   3  19
TORSDOF 7
ENDMDL
MODEL 3
REMARK VINA RESULT:    -7.759      1.714      2.266
REMARK INTER + INTRA:         -11.340
REMARK INTER:                 -10.987
REMARK INTRA:                  -0.353
REMARK UNBOUND:                -0.632
REMARK  Name = 
REMARK  7 active torsions:
REMARK  status: ('A' for Active; 'I' for Inactive)
REMARK    1  A    between atoms: CA_9  and  C_10
REMARK    2  A    between atoms: N_12  and  CA_13
REMARK    3  A    between atoms: CA_13  and  C_14
REMARK    4  A    between atoms: CA_13  and  C_16
REMARK    5  A    between atoms: C_14  and  O_15
REMARK    6  A    between atoms: C_19  and  O_20
REMARK    7  A    between atoms: O_20  and  C_21
REMARK                            x       y       z     vdW  Elec       q    Type
REMARK                         _______ _______ _______ _____ _____    ______ ____
ROOT
ATOM      1  C   UNL     1      48.246   6.124  15.873  0.00  0.00    +0.000 C 
ATOM      2  O   UNL     1      48.677   7.274  15.896  0.00  0.00    +0.000 OA
ATOM      3  N   UNL     1      47.514   5.628  14.819  0.00  0.00    +0.000 N 
ATOM      4  H   UNL     1      47.250   4.652  14.801  0.00  0.00    +0.000 HD
ENDROOT
BRANCH   1  13
ATOM      5  N   UNL     1      47.335   7.945  18.437  0.00  0.00    +0.000 N 
ATOM      6  C   UNL     1      47.609   6.721  18.968  0.00  0.00    +0.000 A 
ATOM      7  N   UNL     1      47.424   6.441  20.248  0.00  0.00    +0.000 NA
ATOM      8  N   UNL     1      47.828   5.124  20.424  0.00  0.00    +0.000 N 
ATOM      9  C   UNL     1      48.260   4.497  19.282  0.00  0.00    +0.000 A 
ATOM     10  N   UNL     1      48.660   3.276  19.117  0.00  0.00    +0.000 NA
ATOM     11  C   UNL     1      48.981   2.998  17.813  0.00  0.00    +0.000 C 
ATOM     12  N   UNL     1      48.966   3.889  16.769  0.00  0.00    +0.000 N 
ATOM     13  CA  UNL     1      48.470   5.170  16.995  0.00  0.00    +0.000 C 
ATOM     14  C   UNL     1      48.136   5.540  18.234  0.00  0.00    +0.000 A 
ATOM     15  H   UNL     1      46.683   8.494  18.984  0.00  0.00    +0.000 HD
ATOM     16  H   UNL     1      47.130   7.945  17.433  0.00  0.00    +0.000 HD
ATOM     17  H   UNL     1      47.749   4.644  21.313  0.00  0.00    +0.000 HD
ATOM     18  H   UNL     1      48.890   3.503  15.836  0.00  0.00    +0.000 HD
ENDBRANCH   1  13
BRANCH   3  19
ATOM     19  CA  UNL     1      47.130   6.489  13.707  0.00  0.00    +0.000 C 
BRANCH  19  20
ATOM     20  C   UNL     1      46.459   5.722  12.584  0.00  0.00    +0.000 A 
ATOM     21  C   UNL     1      45.931   4.450  12.854  0.00  0.00    +0.000 A 
ATOM     22  C   UNL     1      45.290   3.716  11.857  0.00  0.00    +0.000 A 
ATOM     23  C   UNL     1      45.125   4.257  10.582  0.00  0.00    +0.000 A 
ATOM     24  C   UNL     1      45.673   5.507  10.289  0.00  0.00    +0.000 A 
ATOM     25  C   UNL     1      46.326   6.240  11.286  0.00  0.00    +0.000 A 
BRANCH  23  26
ATOM     26  O   UNL     1      44.506   3.594   9.547  0.00  0.00    +0.000 OA
BRANCH  26  27
ATOM     27  C   UNL     1      45.303   2.904   8.640  0.00  0.00    +0.000 A 
ATOM     28  C   UNL     1      45.703   3.603   7.511  0.00  0.00    +0.000 A 
ATOM     29  C   UNL     1      46.522   2.954   6.590  0.00  0.00    +0.000 A 
ATOM     30  C   UNL     1      46.905   1.638   6.827  0.00  0.00    +0.000 A 
ATOM     31  C   UNL     1      46.432   1.012   7.969  0.00  0.00    +0.000 A 
ATOM     32  N   UNL     1      45.629   1.610   8.872  0.00  0.00    +0.000 NA
ENDBRANCH  26  27
ENDBRANCH  23  26
ENDBRANCH  19  20
BRANCH  19  33
ATOM     33  C   UNL     1      48.333   7.301  13.186  0.00  0.00    +0.000 C 
BRANCH  33  34
ATOM     34  O   UNL     1      49.447   6.460  12.876  0.00  0.00    +0.000 OA
ATOM     35  H   UNL     1      49.126   5.705  12.352  0.00  0.00    +0.000 HD
ENDBRANCH  33  34
ENDBRANCH  19  33
ENDBRANCH   3  19
TORSDOF 7
ENDMDL
MODEL 4
REMARK VINA RESULT:    -7.528      0.962      2.124
REMARK INTER + INTRA:         -11.020
REMARK INTER:                 -10.900
REMARK INTRA:                  -0.121
REMARK UNBOUND:                -0.632
REMARK  Name = 
REMARK  7 active torsions:
REMARK  status: ('A' for Active; 'I' for Inactive)
REMARK    1  A    between atoms: CA_9  and  C_10
REMARK    2  A    between atoms: N_12  and  CA_13
REMARK    3  A    between atoms: CA_13  and  C_14
REMARK    4  A    between atoms: CA_13  and  C_16
REMARK    5  A    between atoms: C_14  and  O_15
REMARK    6  A    between atoms: C_19  and  O_20
REMARK    7  A    between atoms: O_20  and  C_21
REMARK                            x       y       z     vdW  Elec       q    Type
REMARK                         _______ _______ _______ _____ _____    ______ ____
ROOT
ATOM      1  C   UNL     1      47.324   6.470  13.665  0.00  0.00    +0.000 C 
ATOM      2  O   UNL     1      48.006   6.387  12.647  0.00  0.00    +0.000 OA
ATOM      3  N   UNL     1      46.008   6.866  13.646  0.00  0.00    +0.000 N 
ATOM      4  H   UNL     1      45.458   6.840  14.494  0.00  0.00    +0.000 HD
ENDROOT
BRANCH   1  13
ATOM      5  N   UNL     1      46.880   3.228  13.792  0.00  0.00    +0.000 N 
ATOM      6  C   UNL     1      47.546   3.527  14.943  0.00  0.00    +0.000 A 
ATOM      7  N   UNL     1      47.940   2.599  15.800  0.00  0.00    +0.000 NA
ATOM      8  N   UNL     1      48.555   3.271  16.849  0.00  0.00    +0.000 N 
ATOM      9  C   UNL     1      48.608   4.635  16.707  0.00  0.00    +0.000 A 
ATOM     10  N   UNL     1      49.142   5.520  17.487  0.00  0.00    +0.000 NA
ATOM     11  C   UNL     1      49.028   6.795  16.992  0.00  0.00    +0.000 C 
ATOM     12  N   UNL     1      48.375   7.160  15.842  0.00  0.00    +0.000 N 
ATOM     13  CA  UNL     1      47.873   6.159  15.015  0.00  0.00    +0.000 C 
ATOM     14  C   UNL     1      47.929   4.886  15.412  0.00  0.00    +0.000 A 
ATOM     15  H   UNL     1      47.009   2.275  13.478  0.00  0.00    +0.000 HD
ATOM     16  H   UNL     1      46.976   3.923  13.045  0.00  0.00    +0.000 HD
ATOM     17  H   UNL     1      48.988   2.786  17.627  0.00  0.00    +0.000 HD
ATOM     18  H   UNL     1      48.644   8.041  15.420  0.00  0.00    +0.000 HD
ENDBRANCH   1  13
BRANCH   3  19
ATOM     19  CA  UNL     1      45.379   7.304  12.405  0.00  0.00    +0.000 C 
BRANCH  19  20
ATOM     20  C   UNL     1      45.108   6.153  11.454  0.00  0.00    +0.000 A 
ATOM     21  C   UNL     1      45.823   6.089  10.248  0.00  0.00    +0.000 A 
ATOM     22  C   UNL     1      45.619   5.040   9.352  0.00  0.00    +0.000 A 
ATOM     23  C   UNL     1      44.728   4.012   9.664  0.00  0.00    +0.000 A 
ATOM     24  C   UNL     1      43.986   4.080  10.844  0.00  0.00    +0.000 A 
ATOM     25  C   UNL     1      44.182   5.137  11.739  0.00  0.00    +0.000 A 
BRANCH  23  26
ATOM     26  O   UNL     1      44.473   2.947   8.832  0.00  0.00    +0.000 OA
BRANCH  26  27
ATOM     27  C   UNL     1      45.517   2.453   8.059  0.00  0.00    +0.000 A 
ATOM     28  C   UNL     1      45.897   3.220   6.967  0.00  0.00    +0.000 A 
ATOM     29  C   UNL     1      46.956   2.771   6.183  0.00  0.00    +0.000 A 
ATOM     30  C   UNL     1      47.590   1.577   6.511  0.00  0.00    +0.000 A 
ATOM     31  C   UNL     1      47.122   0.864   7.603  0.00  0.00    +0.000 A 
ATOM     32  N   UNL     1      46.092   1.268   8.374  0.00  0.00    +0.000 NA
ENDBRANCH  26  27
ENDBRANCH  23  26
ENDBRANCH  19  20
BRANCH  19  33
ATOM     33  C   UNL     1      46.206   8.411  11.719  0.00  0.00    +0.000 C 
BRANCH  33  34
ATOM     34  O   UNL     1      46.267   9.597  12.515  0.00  0.00    +0.000 OA
ATOM     35  H   UNL     1      45.359   9.854  12.756  0.00  0.00    +0.000 HD
ENDBRANCH  33  34
ENDBRANCH  19  33
ENDBRANCH   3  19
TORSDOF 7
ENDMDL
MODEL 5
REMARK VINA RESULT:    -7.454      2.201      3.754
REMARK INTER + INTRA:         -10.918
REMARK INTER:                  -9.613
REMARK INTRA:                  -1.305
REMARK UNBOUND:                -0.632
REMARK  Name = 
REMARK  7 active torsions:
REMARK  status: ('A' for Active; 'I' for Inactive)
REMARK    1  A    between atoms: CA_9  and  C_10
REMARK    2  A    between atoms: N_12  and  CA_13
REMARK    3  A    between atoms: CA_13  and  C_14
REMARK    4  A    between atoms: CA_13  and  C_16
REMARK    5  A    between atoms: C_14  and  O_15
REMARK    6  A    between atoms: C_19  and  O_20
REMARK    7  A    between atoms: O_20  and  C_21
REMARK                            x       y       z     vdW  Elec       q    Type
REMARK                         _______ _______ _______ _____ _____    ______ ____
ROOT
ATOM      1  C   UNL     1      49.609   7.008  16.027  0.00  0.00    +0.000 C 
ATOM      2  O   UNL     1      48.907   7.842  16.592  0.00  0.00    +0.000 OA
ATOM      3  N   UNL     1      49.765   6.973  14.661  0.00  0.00    +0.000 N 
ATOM      4  H   UNL     1      50.418   6.323  14.242  0.00  0.00    +0.000 HD
ENDROOT
BRANCH   1  13
ATOM      5  N   UNL     1      47.146   5.045  16.922  0.00  0.00    +0.000 N 
ATOM      6  C   UNL     1      48.268   4.400  17.348  0.00  0.00    +0.000 A 
ATOM      7  N   UNL     1      48.232   3.204  17.913  0.00  0.00    +0.000 NA
ATOM      8  N   UNL     1      49.545   2.882  18.232  0.00  0.00    +0.000 N 
ATOM      9  C   UNL     1      50.473   3.826  17.870  0.00  0.00    +0.000 A 
ATOM     10  N   UNL     1      51.762   3.800  17.997  0.00  0.00    +0.000 NA
ATOM     11  C   UNL     1      52.365   4.919  17.481  0.00  0.00    +0.000 C 
ATOM     12  N   UNL     1      51.725   6.006  16.941  0.00  0.00    +0.000 N 
ATOM     13  CA  UNL     1      50.344   5.951  16.776  0.00  0.00    +0.000 C 
ATOM     14  C   UNL     1      49.664   4.905  17.253  0.00  0.00    +0.000 A 
ATOM     15  H   UNL     1      46.358   4.431  16.754  0.00  0.00    +0.000 HD
ATOM     16  H   UNL     1      47.298   5.731  16.175  0.00  0.00    +0.000 HD
ATOM     17  H   UNL     1      49.803   1.992  18.641  0.00  0.00    +0.000 HD
ATOM     18  H   UNL     1      52.261   6.587  16.308  0.00  0.00    +0.000 HD
ENDBRANCH   1  13
BRANCH   3  19
ATOM     19  CA  UNL     1      49.015   7.881  13.801  0.00  0.00    +0.000 C 
BRANCH  19  20
ATOM     20  C   UNL     1      47.831   7.206  13.137  0.00  0.00    +0.000 A 
ATOM     21  C   UNL     1      47.623   5.835  13.355  0.00  0.00    +0.000 A 
ATOM     22  C   UNL     1      46.536   5.177  12.779  0.00  0.00    +0.000 A 
ATOM     23  C   UNL     1      45.613   5.886  12.010  0.00  0.00    +0.000 A 
ATOM     24  C   UNL     1      45.824   7.242  11.757  0.00  0.00    +0.000 A 
ATOM     25  C   UNL     1      46.919   7.901  12.326  0.00  0.00    +0.000 A 
BRANCH  23  26
ATOM     26  O   UNL     1      44.519   5.307  11.408  0.00  0.00    +0.000 OA
BRANCH  26  27
ATOM     27  C   UNL     1      44.741   4.397  10.380  0.00  0.00    +0.000 A 
ATOM     28  C   UNL     1      45.394   4.881   9.256  0.00  0.00    +0.000 A 
ATOM     29  C   UNL     1      45.657   3.995   8.214  0.00  0.00    +0.000 A 
ATOM     30  C   UNL     1      45.255   2.669   8.329  0.00  0.00    +0.000 A 
ATOM     31  C   UNL     1      44.582   2.284   9.477  0.00  0.00    +0.000 A 
ATOM     32  N   UNL     1      44.304   3.121  10.497  0.00  0.00    +0.000 NA
ENDBRANCH  26  27
ENDBRANCH  23  26
ENDBRANCH  19  20
BRANCH  19  33
ATOM     33  C   UNL     1      49.933   8.550  12.758  0.00  0.00    +0.000 C 
BRANCH  33  34
ATOM     34  O   UNL     1      50.720   7.588  12.049  0.00  0.00    +0.000 OA
ATOM     35  H   UNL     1      51.564   7.473  12.522  0.00  0.00    +0.000 HD
ENDBRANCH  33  34
ENDBRANCH  19  33
ENDBRANCH   3  19
TORSDOF 7
ENDMDL
MODEL 6
REMARK VINA RESULT:    -7.388      1.403      1.895
REMARK INTER + INTRA:         -10.827
REMARK INTER:                 -11.090
REMARK INTRA:                   0.263
REMARK UNBOUND:                -0.632
REMARK  Name = 
REMARK  7 active torsions:
REMARK  status: ('A' for Active; 'I' for Inactive)
REMARK    1  A    between atoms: CA_9  and  C_10
REMARK    2  A    between atoms: N_12  and  CA_13
REMARK    3  A    between atoms: CA_13  and  C_14
REMARK    4  A    between atoms: CA_13  and  C_16
REMARK    5  A    between atoms: C_14  and  O_15
REMARK    6  A    between atoms: C_19  and  O_20
REMARK    7  A    between atoms: O_20  and  C_21
REMARK                            x       y       z     vdW  Elec       q    Type
REMARK                         _______ _______ _______ _____ _____    ______ ____
ROOT
ATOM      1  C   UNL     1      47.314   6.459  13.395  0.00  0.00    +0.000 C 
ATOM      2  O   UNL     1      47.731   6.469  12.240  0.00  0.00    +0.000 OA
ATOM      3  N   UNL     1      45.977   6.556  13.701  0.00  0.00    +0.000 N 
ATOM      4  H   UNL     1      45.668   6.458  14.659  0.00  0.00    +0.000 HD
ENDROOT
BRANCH   1  13
ATOM      5  N   UNL     1      49.814   8.335  12.419  0.00  0.00    +0.000 N 
ATOM      6  C   UNL     1      50.134   7.976  13.693  0.00  0.00    +0.000 A 
ATOM      7  N   UNL     1      51.214   8.427  14.312  0.00  0.00    +0.000 NA
ATOM      8  N   UNL     1      51.223   7.834  15.568  0.00  0.00    +0.000 N 
ATOM      9  C   UNL     1      50.156   7.009  15.822  0.00  0.00    +0.000 A 
ATOM     10  N   UNL     1      49.866   6.351  16.900  0.00  0.00    +0.000 NA
ATOM     11  C   UNL     1      48.688   5.656  16.792  0.00  0.00    +0.000 C 
ATOM     12  N   UNL     1      47.897   5.575  15.674  0.00  0.00    +0.000 N 
ATOM     13  CA  UNL     1      48.227   6.351  14.567  0.00  0.00    +0.000 C 
ATOM     14  C   UNL     1      49.360   7.058  14.571  0.00  0.00    +0.000 A 
ATOM     15  H   UNL     1      50.244   9.201  12.115  0.00  0.00    +0.000 HD
ATOM     16  H   UNL     1      48.817   8.270  12.189  0.00  0.00    +0.000 HD
ATOM     17  H   UNL     1      51.927   8.045  16.265  0.00  0.00    +0.000 HD
ATOM     18  H   UNL     1      46.924   5.330  15.816  0.00  0.00    +0.000 HD
ENDBRANCH   1  13
BRANCH   3  19
ATOM     19  CA  UNL     1      44.987   6.776  12.654  0.00  0.00    +0.000 C 
BRANCH  19  20
ATOM     20  C   UNL     1      44.887   5.606  11.694  0.00  0.00    +0.000 A 
ATOM     21  C   UNL     1      45.261   5.795  10.355  0.00  0.00    +0.000 A 
ATOM     22  C   UNL     1      45.203   4.743   9.441  0.00  0.00    +0.000 A 
ATOM     23  C   UNL     1      44.810   3.471   9.858  0.00  0.00    +0.000 A 
ATOM     24  C   UNL     1      44.403   3.275  11.179  0.00  0.00    +0.000 A 
ATOM     25  C   UNL     1      44.451   4.332  12.094  0.00  0.00    +0.000 A 
BRANCH  23  26
ATOM     26  O   UNL     1      44.725   2.386   9.017  0.00  0.00    +0.000 OA
BRANCH  26  27
ATOM     27  C   UNL     1      45.720   2.218   8.060  0.00  0.00    +0.000 A 
ATOM     28  C   UNL     1      45.791   3.181   7.065  0.00  0.00    +0.000 A 
ATOM     29  C   UNL     1      46.789   3.063   6.102  0.00  0.00    +0.000 A 
ATOM     30  C   UNL     1      47.672   1.989   6.164  0.00  0.00    +0.000 A 
ATOM     31  C   UNL     1      47.505   1.061   7.178  0.00  0.00    +0.000 A 
ATOM     32  N   UNL     1      46.542   1.143   8.117  0.00  0.00    +0.000 NA
ENDBRANCH  26  27
ENDBRANCH  23  26
ENDBRANCH  19  20
BRANCH  19  33
ATOM     33  C   UNL     1      45.253   8.095  11.900  0.00  0.00    +0.000 C 
BRANCH  33  34
ATOM     34  O   UNL     1      44.807   9.231  12.644  0.00  0.00    +0.000 OA
ATOM     35  H   UNL     1      45.588   9.716  12.963  0.00  0.00    +0.000 HD
ENDBRANCH  33  34
ENDBRANCH  19  33
ENDBRANCH   3  19
TORSDOF 7
ENDMDL
MODEL 7
REMARK VINA RESULT:    -7.241      4.929      7.573
REMARK INTER + INTRA:         -10.624
REMARK INTER:                  -9.659
REMARK INTRA:                  -0.965
REMARK UNBOUND:                -0.632
REMARK  Name = 
REMARK  7 active torsions:
REMARK  status: ('A' for Active; 'I' for Inactive)
REMARK    1  A    between atoms: CA_9  and  C_10
REMARK    2  A    between atoms: N_12  and  CA_13
REMARK    3  A    between atoms: CA_13  and  C_14
REMARK    4  A    between atoms: CA_13  and  C_16
REMARK    5  A    between atoms: C_14  and  O_15
REMARK    6  A    between atoms: C_19  and  O_20
REMARK    7  A    between atoms: O_20  and  C_21
REMARK                            x       y       z     vdW  Elec       q    Type
REMARK                         _______ _______ _______ _____ _____    ______ ____
ROOT
ATOM      1  C   UNL     1      45.615   6.477  11.274  0.00  0.00    +0.000 C 
ATOM      2  O   UNL     1      44.740   7.268  11.614  0.00  0.00    +0.000 OA
ATOM      3  N   UNL     1      46.945   6.674  11.562  0.00  0.00    +0.000 N 
ATOM      4  H   UNL     1      47.624   5.958  11.339  0.00  0.00    +0.000 HD
ENDROOT
BRANCH   1  13
ATOM      5  N   UNL     1      44.429   4.552  13.643  0.00  0.00    +0.000 N 
ATOM      6  C   UNL     1      44.278   3.822  12.503  0.00  0.00    +0.000 A 
ATOM      7  N   UNL     1      43.687   2.638  12.487  0.00  0.00    +0.000 NA
ATOM      8  N   UNL     1      43.739   2.192  11.172  0.00  0.00    +0.000 N 
ATOM      9  C   UNL     1      44.331   3.063  10.292  0.00  0.00    +0.000 A 
ATOM     10  N   UNL     1      44.493   2.951   9.012  0.00  0.00    +0.000 NA
ATOM     11  C   UNL     1      45.100   4.050   8.460  0.00  0.00    +0.000 C 
ATOM     12  N   UNL     1      45.567   5.145   9.143  0.00  0.00    +0.000 N 
ATOM     13  CA  UNL     1      45.310   5.236  10.508  0.00  0.00    +0.000 C 
ATOM     14  C   UNL     1      44.729   4.213  11.140  0.00  0.00    +0.000 A 
ATOM     15  H   UNL     1      43.781   4.302  14.380  0.00  0.00    +0.000 HD
ATOM     16  H   UNL     1      44.519   5.563  13.501  0.00  0.00    +0.000 HD
ATOM     17  H   UNL     1      43.315   1.321  10.876  0.00  0.00    +0.000 HD
ATOM     18  H   UNL     1      45.676   6.004   8.617  0.00  0.00    +0.000 HD
ENDBRANCH   1  13
BRANCH   3  19
ATOM     19  CA  UNL     1      47.394   7.901  12.210  0.00  0.00    +0.000 C 
BRANCH  19  20
ATOM     20  C   UNL     1      48.772   8.332  11.745  0.00  0.00    +0.000 A 
ATOM     21  C   UNL     1      49.053   9.704  11.644  0.00  0.00    +0.000 A 
ATOM     22  C   UNL     1      50.312  10.147  11.238  0.00  0.00    +0.000 A 
ATOM     23  C   UNL     1      51.326   9.228  10.967  0.00  0.00    +0.000 A 
ATOM     24  C   UNL     1      51.052   7.861  11.031  0.00  0.00    +0.000 A 
ATOM     25  C   UNL     1      49.786   7.415  11.428  0.00  0.00    +0.000 A 
BRANCH  23  26
ATOM     26  O   UNL     1      52.590   9.588  10.560  0.00  0.00    +0.000 OA
BRANCH  26  27
ATOM     27  C   UNL     1      52.878   9.547   9.200  0.00  0.00    +0.000 A 
ATOM     28  C   UNL     1      52.447  10.626   8.443  0.00  0.00    +0.000 A 
ATOM     29  C   UNL     1      52.738  10.635   7.082  0.00  0.00    +0.000 A 
ATOM     30  C   UNL     1      53.440   9.569   6.528  0.00  0.00    +0.000 A 
ATOM     31  C   UNL     1      53.805   8.522   7.357  0.00  0.00    +0.000 A 
ATOM     32  N   UNL     1      53.527   8.480   8.676  0.00  0.00    +0.000 NA
ENDBRANCH  26  27
ENDBRANCH  23  26
ENDBRANCH  19  20
BRANCH  19  33
ATOM     33  C   UNL     1      47.338   7.774  13.746  0.00  0.00    +0.000 C 
BRANCH  33  34
ATOM     34  O   UNL     1      46.798   8.950  14.356  0.00  0.00    +0.000 OA
ATOM     35  H   UNL     1      45.963   9.174  13.908  0.00  0.00    +0.000 HD
ENDBRANCH  33  34
ENDBRANCH  19  33
ENDBRANCH   3  19
TORSDOF 7
ENDMDL
MODEL 8
REMARK VINA RESULT:    -7.046      2.320      4.013
REMARK INTER + INTRA:         -10.356
REMARK INTER:                  -9.396
REMARK INTRA:                  -0.960
REMARK UNBOUND:                -0.632
REMARK  Name = 
REMARK  7 active torsions:
REMARK  status: ('A' for Active; 'I' for Inactive)
REMARK    1  A    between atoms: CA_9  and  C_10
REMARK    2  A    between atoms: N_12  and  CA_13
REMARK    3  A    between atoms: CA_13  and  C_14
REMARK    4  A    between atoms: CA_13  and  C_16
REMARK    5  A    between atoms: C_14  and  O_15
REMARK    6  A    between atoms: C_19  and  O_20
REMARK    7  A    between atoms: O_20  and  C_21
REMARK                            x       y       z     vdW  Elec       q    Type
REMARK                         _______ _______ _______ _____ _____    ______ ____
ROOT
ATOM      1  C   UNL     1      49.114   6.670  16.025  0.00  0.00    +0.000 C 
ATOM      2  O   UNL     1      50.056   5.913  16.247  0.00  0.00    +0.000 OA
ATOM      3  N   UNL     1      47.890   6.221  15.588  0.00  0.00    +0.000 N 
ATOM      4  H   UNL     1      47.116   6.867  15.498  0.00  0.00    +0.000 HD
ENDROOT
BRANCH   1  13
ATOM      5  N   UNL     1      50.176   7.576  13.063  0.00  0.00    +0.000 N 
ATOM      6  C   UNL     1      49.986   8.749  13.731  0.00  0.00    +0.000 A 
ATOM      7  N   UNL     1      50.152   9.931  13.159  0.00  0.00    +0.000 NA
ATOM      8  N   UNL     1      49.896  10.880  14.140  0.00  0.00    +0.000 N 
ATOM      9  C   UNL     1      49.534  10.364  15.360  0.00  0.00    +0.000 A 
ATOM     10  N   UNL     1      49.201  10.986  16.446  0.00  0.00    +0.000 NA
ATOM     11  C   UNL     1      48.863  10.126  17.461  0.00  0.00    +0.000 C 
ATOM     12  N   UNL     1      48.917   8.756  17.412  0.00  0.00    +0.000 N 
ATOM     13  CA  UNL     1      49.224   8.145  16.200  0.00  0.00    +0.000 C 
ATOM     14  C   UNL     1      49.574   8.896  15.153  0.00  0.00    +0.000 A 
ATOM     15  H   UNL     1      50.114   7.662  12.056  0.00  0.00    +0.000 HD
ATOM     16  H   UNL     1      49.659   6.776  13.439  0.00  0.00    +0.000 HD
ATOM     17  H   UNL     1      49.912  11.875  13.952  0.00  0.00    +0.000 HD
ATOM     18  H   UNL     1      48.340   8.249  18.073  0.00  0.00    +0.000 HD
ENDBRANCH   1  13
BRANCH   3  19
ATOM     19  CA  UNL     1      47.681   4.813  15.271  0.00  0.00    +0.000 C 
BRANCH  19  20
ATOM     20  C   UNL     1      46.838   4.618  14.026  0.00  0.00    +0.000 A 
ATOM     21  C   UNL     1      46.530   5.735  13.234  0.00  0.00    +0.000 A 
ATOM     22  C   UNL     1      45.773   5.600  12.070  0.00  0.00    +0.000 A 
ATOM     23  C   UNL     1      45.346   4.339  11.653  0.00  0.00    +0.000 A 
ATOM     24  C   UNL     1      45.616   3.223  12.447  0.00  0.00    +0.000 A 
ATOM     25  C   UNL     1      46.366   3.359  13.620  0.00  0.00    +0.000 A 
BRANCH  23  26
ATOM     26  O   UNL     1      44.595   4.126  10.520  0.00  0.00    +0.000 OA
BRANCH  26  27
ATOM     27  C   UNL     1      45.213   3.534   9.425  0.00  0.00    +0.000 A 
ATOM     28  C   UNL     1      45.726   4.392   8.464  0.00  0.00    +0.000 A 
ATOM     29  C   UNL     1      46.374   3.839   7.363  0.00  0.00    +0.000 A 
ATOM     30  C   UNL     1      46.482   2.456   7.260  0.00  0.00    +0.000 A 
ATOM     31  C   UNL     1      45.914   1.677   8.254  0.00  0.00    +0.000 A 
ATOM     32  N   UNL     1      45.270   2.184   9.325  0.00  0.00    +0.000 NA
ENDBRANCH  26  27
ENDBRANCH  23  26
ENDBRANCH  19  20
BRANCH  19  33
ATOM     33  C   UNL     1      47.086   4.052  16.473  0.00  0.00    +0.000 C 
BRANCH  33  34
ATOM     34  O   UNL     1      46.706   4.939  17.528  0.00  0.00    +0.000 OA
ATOM     35  H   UNL     1      47.158   5.790  17.393  0.00  0.00    +0.000 HD
ENDBRANCH  33  34
ENDBRANCH  19  33
ENDBRANCH   3  19
TORSDOF 7
ENDMDL
MODEL 9
REMARK VINA RESULT:    -7.007      4.561      7.850
REMARK INTER + INTRA:         -10.302
REMARK INTER:                  -9.151
REMARK INTRA:                  -1.152
REMARK UNBOUND:                -0.632
REMARK  Name = 
REMARK  7 active torsions:
REMARK  status: ('A' for Active; 'I' for Inactive)
REMARK    1  A    between atoms: CA_9  and  C_10
REMARK    2  A    between atoms: N_12  and  CA_13
REMARK    3  A    between atoms: CA_13  and  C_14
REMARK    4  A    between atoms: CA_13  and  C_16
REMARK    5  A    between atoms: C_14  and  O_15
REMARK    6  A    between atoms: C_19  and  O_20
REMARK    7  A    between atoms: O_20  and  C_21
REMARK                            x       y       z     vdW  Elec       q    Type
REMARK                         _______ _______ _______ _____ _____    ______ ____
ROOT
ATOM      1  C   UNL     1      45.618   6.478  11.220  0.00  0.00    +0.000 C 
ATOM      2  O   UNL     1      44.814   7.397  11.350  0.00  0.00    +0.000 OA
ATOM      3  N   UNL     1      46.885   6.520  11.753  0.00  0.00    +0.000 N 
ATOM      4  H   UNL     1      47.487   5.709  11.696  0.00  0.00    +0.000 HD
ENDROOT
BRANCH   1  13
ATOM      5  N   UNL     1      44.552   4.528  13.624  0.00  0.00    +0.000 N 
ATOM      6  C   UNL     1      44.359   3.803  12.486  0.00  0.00    +0.000 A 
ATOM      7  N   UNL     1      43.778   2.614  12.488  0.00  0.00    +0.000 NA
ATOM      8  N   UNL     1      43.778   2.177  11.169  0.00  0.00    +0.000 N 
ATOM      9  C   UNL     1      44.324   3.059  10.270  0.00  0.00    +0.000 A 
ATOM     10  N   UNL     1      44.432   2.956   8.984  0.00  0.00    +0.000 NA
ATOM     11  C   UNL     1      45.006   4.064   8.414  0.00  0.00    +0.000 C 
ATOM     12  N   UNL     1      45.491   5.159   9.084  0.00  0.00    +0.000 N 
ATOM     13  CA  UNL     1      45.291   5.239  10.459  0.00  0.00    +0.000 C 
ATOM     14  C   UNL     1      44.747   4.207  11.108  0.00  0.00    +0.000 A 
ATOM     15  H   UNL     1      43.937   4.267  14.386  0.00  0.00    +0.000 HD
ATOM     16  H   UNL     1      44.625   5.541  13.485  0.00  0.00    +0.000 HD
ATOM     17  H   UNL     1      43.349   1.304  10.885  0.00  0.00    +0.000 HD
ATOM     18  H   UNL     1      45.570   6.022   8.559  0.00  0.00    +0.000 HD
ENDBRANCH   1  13
BRANCH   3  19
ATOM     19  CA  UNL     1      47.371   7.718  12.427  0.00  0.00    +0.000 C 
BRANCH  19  20
ATOM     20  C   UNL     1      48.698   8.199  11.872  0.00  0.00    +0.000 A 
ATOM     21  C   UNL     1      48.923   9.579  11.755  0.00  0.00    +0.000 A 
ATOM     22  C   UNL     1      50.136  10.066  11.267  0.00  0.00    +0.000 A 
ATOM     23  C   UNL     1      51.161   9.184  10.926  0.00  0.00    +0.000 A 
ATOM     24  C   UNL     1      50.940   7.808  11.004  0.00  0.00    +0.000 A 
ATOM     25  C   UNL     1      49.721   7.318  11.485  0.00  0.00    +0.000 A 
BRANCH  23  26
ATOM     26  O   UNL     1      52.381   9.588  10.436  0.00  0.00    +0.000 OA
BRANCH  26  27
ATOM     27  C   UNL     1      53.511   8.870  10.812  0.00  0.00    +0.000 A 
ATOM     28  C   UNL     1      53.976   9.079  12.102  0.00  0.00    +0.000 A 
ATOM     29  C   UNL     1      55.090   8.360  12.526  0.00  0.00    +0.000 A 
ATOM     30  C   UNL     1      55.699   7.467  11.650  0.00  0.00    +0.000 A 
ATOM     31  C   UNL     1      55.181   7.346  10.371  0.00  0.00    +0.000 A 
ATOM     32  N   UNL     1      54.111   8.037   9.929  0.00  0.00    +0.000 NA
ENDBRANCH  26  27
ENDBRANCH  23  26
ENDBRANCH  19  20
BRANCH  19  33
ATOM     33  C   UNL     1      47.447   7.510  13.953  0.00  0.00    +0.000 C 
BRANCH  33  34
ATOM     34  O   UNL     1      47.129   6.166  14.322  0.00  0.00    +0.000 OA
ATOM     35  H   UNL     1      46.632   5.756  13.593  0.00  0.00    +0.000 HD
ENDBRANCH  33  34
ENDBRANCH  19  33
ENDBRANCH   3  19
TORSDOF 7
ENDMDL
