MODEL 1
REMARK VINA RESULT:    -8.929      0.000      0.000
REMARK INTER + INTRA:         -12.784
REMARK INTER:                 -12.061
REMARK INTRA:                  -0.722
REMARK UNBOUND:                -0.722
REMARK  Name = 
REMARK  6 active torsions:
REMARK  status: ('A' for Active; 'I' for Inactive)
REMARK    1  A    between atoms: C_2  and  C_4
REMARK    2  A    between atoms: C_7  and  N_8
REMARK    3  A    between atoms: N_8  and  C_9
REMARK    4  A    between atoms: C_9  and  C_10
REMARK    5  A    between atoms: C_10  and  C_13
REMARK    6  A    between atoms: N_18  and  C_19
REMARK                            x       y       z     vdW  Elec       q    Type
REMARK                         _______ _______ _______ _____ _____    ______ ____
ROOT
ATOM      1  C   UNL     1      43.389   4.354  11.163  0.00  0.00    +0.000 C 
ENDROOT
BRANCH   1   2
ATOM      2  C   UNL     1      43.694   5.437  12.228  0.00  0.00    +0.000 C 
ATOM      3  F   UNL     1      43.228   6.634  11.759  0.00  0.00    +0.000 F 
ATOM      4  F   UNL     1      42.915   5.160  13.322  0.00  0.00    +0.000 F 
BRANCH   2   5
ATOM      5  C   UNL     1      45.161   5.497  12.593  0.00  0.00    +0.000 A 
ATOM      6  C   UNL     1      45.702   4.698  13.596  0.00  0.00    +0.000 A 
ATOM      7  C   UNL     1      47.042   4.861  13.915  0.00  0.00    +0.000 A 
ATOM      8  N   UNL     1      47.864   5.752  13.312  0.00  0.00    +0.000 NA
ATOM      9  C   UNL     1      47.347   6.502  12.321  0.00  0.00    +0.000 A 
ATOM     10  N   UNL     1      48.131   7.458  11.648  0.00  0.00    +0.000 N 
ATOM     11  C   UNL     1      46.009   6.398  11.942  0.00  0.00    +0.000 A 
ATOM     12  H   UNL     1      48.101   7.264  10.650  0.00  0.00    +0.000 HD
BRANCH  10  13
ATOM     13  C   UNL     1      49.412   7.926  12.106  0.00  0.00    +0.000 C 
ATOM     14  C   UNL     1      49.659   9.390  11.705  0.00  0.00    +0.000 C 
ATOM     15  O   UNL     1      50.892   9.046  11.030  0.00  0.00    +0.000 OA
ATOM     16  C   UNL     1      50.625   7.629  11.222  0.00  0.00    +0.000 C 
ENDBRANCH  10  13
ENDBRANCH   2   5
ENDBRANCH   1   2
BRANCH   1  17
ATOM     17  N   UNL     1      43.737   4.760   9.789  0.00  0.00    +0.000 N 
ATOM     18  H   UNL     1      42.937   5.077   9.242  0.00  0.00    +0.000 HD
BRANCH  17  22
ATOM     19  C   UNL     1      46.667   2.607   7.635  0.00  0.00    +0.000 A 
ATOM     20  C   UNL     1      46.632   4.004   7.617  0.00  0.00    +0.000 A 
ATOM     21  C   UNL     1      45.630   4.694   8.316  0.00  0.00    +0.000 A 
ATOM     22  C   UNL     1      44.638   4.010   9.033  0.00  0.00    +0.000 A 
ATOM     23  C   UNL     1      44.698   2.617   9.056  0.00  0.00    +0.000 A 
ATOM     24  C   UNL     1      45.688   1.927   8.354  0.00  0.00    +0.000 A 
ATOM     25  F   UNL     1      45.667   0.585   8.406  0.00  0.00    +0.000 F 
BRANCH  19  27
ATOM     26  N   UNL     1      48.635   2.667   6.181  0.00  0.00    +0.000 N 
ATOM     27  C   UNL     1      47.757   1.911   6.902  0.00  0.00    +0.000 C 
ATOM     28  O   UNL     1      47.867   0.692   6.936  0.00  0.00    +0.000 OA
ATOM     29  H   UNL     1      49.364   2.187   5.673  0.00  0.00    +0.000 HD
ATOM     30  H   UNL     1      48.580   3.676   6.121  0.00  0.00    +0.000 HD
ENDBRANCH  19  27
ENDBRANCH  17  22
ENDBRANCH   1  17
TORSDOF 6
ENDMDL
MODEL 2
REMARK VINA RESULT:    -8.913      2.514      3.581
REMARK INTER + INTRA:         -12.762
REMARK INTER:                 -12.095
REMARK INTRA:                  -0.666
REMARK UNBOUND:                -0.722
REMARK  Name = 
REMARK  6 active torsions:
REMARK  status: ('A' for Active; 'I' for Inactive)
REMARK    1  A    between atoms: C_2  and  C_4
REMARK    2  A    between atoms: C_7  and  N_8
REMARK    3  A    between atoms: N_8  and  C_9
REMARK    4  A    between atoms: C_9  and  C_10
REMARK    5  A    between atoms: C_10  and  C_13
REMARK    6  A    between atoms: N_18  and  C_19
REMARK                            x       y       z     vdW  Elec       q    Type
REMARK                         _______ _______ _______ _____ _____    ______ ____
ROOT
ATOM      1  C   UNL     1      44.080   3.854  11.592  0.00  0.00    +0.000 C 
ENDROOT
BRANCH   1   2
ATOM      2  C   UNL     1      44.363   5.307  12.052  0.00  0.00    +0.000 C 
ATOM      3  F   UNL     1      44.366   6.107  10.942  0.00  0.00    +0.000 F 
ATOM      4  F   UNL     1      43.277   5.720  12.780  0.00  0.00    +0.000 F 
BRANCH   2   5
ATOM      5  C   UNL     1      45.643   5.427  12.848  0.00  0.00    +0.000 A 
ATOM      6  C   UNL     1      46.720   6.185  12.397  0.00  0.00    +0.000 A 
ATOM      7  C   UNL     1      47.883   6.190  13.153  0.00  0.00    +0.000 A 
ATOM      8  N   UNL     1      48.041   5.501  14.309  0.00  0.00    +0.000 NA
ATOM      9  C   UNL     1      46.989   4.794  14.759  0.00  0.00    +0.000 A 
ATOM     10  N   UNL     1      47.072   4.043  15.947  0.00  0.00    +0.000 N 
ATOM     11  C   UNL     1      45.785   4.737  14.056  0.00  0.00    +0.000 A 
ATOM     12  H   UNL     1      46.327   4.336  16.574  0.00  0.00    +0.000 HD
BRANCH  10  13
ATOM     13  C   UNL     1      48.302   3.724  16.622  0.00  0.00    +0.000 C 
ATOM     14  C   UNL     1      48.057   2.868  17.875  0.00  0.00    +0.000 C 
ATOM     15  O   UNL     1      48.744   3.823  18.719  0.00  0.00    +0.000 OA
ATOM     16  C   UNL     1      48.849   4.757  17.609  0.00  0.00    +0.000 C 
ENDBRANCH  10  13
ENDBRANCH   2   5
ENDBRANCH   1   2
BRANCH   1  17
ATOM     17  N   UNL     1      43.696   3.746  10.173  0.00  0.00    +0.000 N 
ATOM     18  H   UNL     1      42.771   3.341  10.031  0.00  0.00    +0.000 HD
BRANCH  17  22
ATOM     19  C   UNL     1      46.676   2.610   7.401  0.00  0.00    +0.000 A 
ATOM     20  C   UNL     1      46.306   3.949   7.563  0.00  0.00    +0.000 A 
ATOM     21  C   UNL     1      45.292   4.295   8.468  0.00  0.00    +0.000 A 
ATOM     22  C   UNL     1      44.618   3.321   9.218  0.00  0.00    +0.000 A 
ATOM     23  C   UNL     1      45.012   1.992   9.057  0.00  0.00    +0.000 A 
ATOM     24  C   UNL     1      46.014   1.643   8.151  0.00  0.00    +0.000 A 
ATOM     25  F   UNL     1      46.323   0.340   8.037  0.00  0.00    +0.000 F 
BRANCH  19  27
ATOM     26  N   UNL     1      47.791   2.922   5.244  0.00  0.00    +0.000 N 
ATOM     27  C   UNL     1      47.771   2.283   6.450  0.00  0.00    +0.000 C 
ATOM     28  O   UNL     1      48.632   1.460   6.732  0.00  0.00    +0.000 OA
ATOM     29  H   UNL     1      48.529   2.684   4.597  0.00  0.00    +0.000 HD
ATOM     30  H   UNL     1      47.099   3.606   4.967  0.00  0.00    +0.000 HD
ENDBRANCH  19  27
ENDBRANCH  17  22
ENDBRANCH   1  17
TORSDOF 6
ENDMDL
MODEL 3
REMARK VINA RESULT:    -8.353      1.587      2.126
REMARK INTER + INTRA:         -12.005
REMARK INTER:                 -11.098
REMARK INTRA:                  -0.907
REMARK UNBOUND:                -0.722
REMARK  Name = 
REMARK  6 active torsions:
REMARK  status: ('A' for Active; 'I' for Inactive)
REMARK    1  A    between atoms: C_2  and  C_4
REMARK    2  A    between atoms: C_7  and  N_8
REMARK    3  A    between atoms: N_8  and  C_9
REMARK    4  A    between atoms: C_9  and  C_10
REMARK    5  A    between atoms: C_10  and  C_13
REMARK    6  A    between atoms: N_18  and  C_19
REMARK                            x       y       z     vdW  Elec       q    Type
REMARK                         _______ _______ _______ _____ _____    ______ ____
ROOT
ATOM      1  C   UNL     1      43.381   3.923  11.096  0.00  0.00    +0.000 C 
ENDROOT
BRANCH   1   2
ATOM      2  C   UNL     1      43.982   4.306  12.473  0.00  0.00    +0.000 C 
ATOM      3  F   UNL     1      42.971   4.282  13.395  0.00  0.00    +0.000 F 
ATOM      4  F   UNL     1      44.821   3.288  12.845  0.00  0.00    +0.000 F 
BRANCH   2   5
ATOM      5  C   UNL     1      44.700   5.636  12.444  0.00  0.00    +0.000 A 
ATOM      6  C   UNL     1      44.305   6.666  11.595  0.00  0.00    +0.000 A 
ATOM      7  C   UNL     1      45.058   7.831  11.581  0.00  0.00    +0.000 A 
ATOM      8  N   UNL     1      46.158   8.035  12.345  0.00  0.00    +0.000 NA
ATOM      9  C   UNL     1      46.519   7.051  13.188  0.00  0.00    +0.000 A 
ATOM     10  N   UNL     1      47.655   7.178  14.010  0.00  0.00    +0.000 N 
ATOM     11  C   UNL     1      45.816   5.849  13.260  0.00  0.00    +0.000 A 
ATOM     12  H   UNL     1      47.378   7.033  14.978  0.00  0.00    +0.000 HD
BRANCH  10  13
ATOM     13  C   UNL     1      48.668   8.186  13.846  0.00  0.00    +0.000 C 
ATOM     14  C   UNL     1      49.642   7.832  12.710  0.00  0.00    +0.000 C 
ATOM     15  O   UNL     1      50.783   7.930  13.596  0.00  0.00    +0.000 OA
ATOM     16  C   UNL     1      49.904   8.091  14.743  0.00  0.00    +0.000 C 
ENDBRANCH  10  13
ENDBRANCH   2   5
ENDBRANCH   1   2
BRANCH   1  17
ATOM     17  N   UNL     1      43.872   2.634  10.574  0.00  0.00    +0.000 N 
ATOM     18  H   UNL     1      44.181   1.990  11.302  0.00  0.00    +0.000 HD
BRANCH  17  22
ATOM     19  C   UNL     1      46.500   2.668   7.265  0.00  0.00    +0.000 A 
ATOM     20  C   UNL     1      45.904   3.844   7.733  0.00  0.00    +0.000 A 
ATOM     21  C   UNL     1      45.011   3.800   8.813  0.00  0.00    +0.000 A 
ATOM     22  C   UNL     1      44.683   2.589   9.441  0.00  0.00    +0.000 A 
ATOM     23  C   UNL     1      45.300   1.429   8.974  0.00  0.00    +0.000 A 
ATOM     24  C   UNL     1      46.182   1.467   7.893  0.00  0.00    +0.000 A 
ATOM     25  F   UNL     1      46.720   0.305   7.487  0.00  0.00    +0.000 F 
BRANCH  19  27
ATOM     26  N   UNL     1      48.783   2.557   6.391  0.00  0.00    +0.000 N 
ATOM     27  C   UNL     1      47.459   2.757   6.133  0.00  0.00    +0.000 C 
ATOM     28  O   UNL     1      47.077   3.006   4.997  0.00  0.00    +0.000 OA
ATOM     29  H   UNL     1      49.431   2.633   5.620  0.00  0.00    +0.000 HD
ATOM     30  H   UNL     1      49.144   2.353   7.314  0.00  0.00    +0.000 HD
ENDBRANCH  19  27
ENDBRANCH  17  22
ENDBRANCH   1  17
TORSDOF 6
ENDMDL
MODEL 4
REMARK VINA RESULT:    -8.044      1.957      2.129
REMARK INTER + INTRA:         -11.589
REMARK INTER:                 -11.113
REMARK INTRA:                  -0.475
REMARK UNBOUND:                -0.722
REMARK  Name = 
REMARK  6 active torsions:
REMARK  status: ('A' for Active; 'I' for Inactive)
REMARK    1  A    between atoms: C_2  and  C_4
REMARK    2  A    between atoms: C_7  and  N_8
REMARK    3  A    between atoms: N_8  and  C_9
REMARK    4  A    between atoms: C_9  and  C_10
REMARK    5  A    between atoms: C_10  and  C_13
REMARK    6  A    between atoms: N_18  and  C_19
REMARK                            x       y       z     vdW  Elec       q    Type
REMARK                         _______ _______ _______ _____ _____    ______ ____
ROOT
ATOM      1  C   UNL     1      44.263   4.862  11.451  0.00  0.00    +0.000 C 
ENDROOT
BRANCH   1   2
ATOM      2  C   UNL     1      45.074   6.108  11.891  0.00  0.00    +0.000 C 
ATOM      3  F   UNL     1      45.631   6.664  10.772  0.00  0.00    +0.000 F 
ATOM      4  F   UNL     1      44.173   7.040  12.336  0.00  0.00    +0.000 F 
BRANCH   2   5
ATOM      5  C   UNL     1      46.108   5.786  12.946  0.00  0.00    +0.000 A 
ATOM      6  C   UNL     1      46.076   4.596  13.667  0.00  0.00    +0.000 A 
ATOM      7  C   UNL     1      47.022   4.406  14.664  0.00  0.00    +0.000 A 
ATOM      8  N   UNL     1      47.980   5.308  14.985  0.00  0.00    +0.000 NA
ATOM      9  C   UNL     1      48.028   6.444  14.267  0.00  0.00    +0.000 A 
ATOM     10  N   UNL     1      48.987   7.438  14.541  0.00  0.00    +0.000 N 
ATOM     11  C   UNL     1      47.113   6.711  13.249  0.00  0.00    +0.000 A 
ATOM     12  H   UNL     1      49.510   7.634  13.691  0.00  0.00    +0.000 HD
BRANCH  10  13
ATOM     13  C   UNL     1      49.788   7.486  15.735  0.00  0.00    +0.000 C 
ATOM     14  C   UNL     1      50.148   8.930  16.120  0.00  0.00    +0.000 C 
ATOM     15  O   UNL     1      51.564   8.629  16.111  0.00  0.00    +0.000 OA
ATOM     16  C   UNL     1      51.299   7.304  15.574  0.00  0.00    +0.000 C 
ENDBRANCH  10  13
ENDBRANCH   2   5
ENDBRANCH   1   2
BRANCH   1  17
ATOM     17  N   UNL     1      43.997   4.810  10.002  0.00  0.00    +0.000 N 
ATOM     18  H   UNL     1      43.007   4.733   9.772  0.00  0.00    +0.000 HD
BRANCH  17  22
ATOM     19  C   UNL     1      46.653   2.606   7.565  0.00  0.00    +0.000 A 
ATOM     20  C   UNL     1      46.652   4.004   7.559  0.00  0.00    +0.000 A 
ATOM     21  C   UNL     1      45.739   4.711   8.355  0.00  0.00    +0.000 A 
ATOM     22  C   UNL     1      44.802   4.045   9.159  0.00  0.00    +0.000 A 
ATOM     23  C   UNL     1      44.829   2.651   9.166  0.00  0.00    +0.000 A 
ATOM     24  C   UNL     1      45.730   1.944   8.369  0.00  0.00    +0.000 A 
ATOM     25  F   UNL     1      45.681   0.602   8.414  0.00  0.00    +0.000 F 
BRANCH  19  27
ATOM     26  N   UNL     1      48.247   2.574   5.708  0.00  0.00    +0.000 N 
ATOM     27  C   UNL     1      47.651   1.890   6.726  0.00  0.00    +0.000 C 
ATOM     28  O   UNL     1      47.930   0.717   6.935  0.00  0.00    +0.000 OA
ATOM     29  H   UNL     1      48.913   2.078   5.133  0.00  0.00    +0.000 HD
ATOM     30  H   UNL     1      48.045   3.543   5.496  0.00  0.00    +0.000 HD
ENDBRANCH  19  27
ENDBRANCH  17  22
ENDBRANCH   1  17
TORSDOF 6
ENDMDL
MODEL 5
REMARK VINA RESULT:    -7.624      3.229      7.603
REMARK INTER + INTRA:         -11.021
REMARK INTER:                 -10.503
REMARK INTRA:                  -0.518
REMARK UNBOUND:                -0.722
REMARK  Name = 
REMARK  6 active torsions:
REMARK  status: ('A' for Active; 'I' for Inactive)
REMARK    1  A    between atoms: C_2  and  C_4
REMARK    2  A    between atoms: C_7  and  N_8
REMARK    3  A    between atoms: N_8  and  C_9
REMARK    4  A    between atoms: C_9  and  C_10
REMARK    5  A    between atoms: C_10  and  C_13
REMARK    6  A    between atoms: N_18  and  C_19
REMARK                            x       y       z     vdW  Elec       q    Type
REMARK                         _______ _______ _______ _____ _____    ______ ____
ROOT
ATOM      1  C   UNL     1      45.585   5.699  12.907  0.00  0.00    +0.000 C 
ENDROOT
BRANCH   1   2
ATOM      2  C   UNL     1      45.287   6.108  11.442  0.00  0.00    +0.000 C 
ATOM      3  F   UNL     1      44.210   6.952  11.450  0.00  0.00    +0.000 F 
ATOM      4  F   UNL     1      46.336   6.881  11.017  0.00  0.00    +0.000 F 
BRANCH   2   5
ATOM      5  C   UNL     1      45.073   4.915  10.536  0.00  0.00    +0.000 A 
ATOM      6  C   UNL     1      44.298   3.827  10.927  0.00  0.00    +0.000 A 
ATOM      7  C   UNL     1      44.206   2.744  10.066  0.00  0.00    +0.000 A 
ATOM      8  N   UNL     1      44.824   2.674   8.862  0.00  0.00    +0.000 NA
ATOM      9  C   UNL     1      45.546   3.740   8.473  0.00  0.00    +0.000 A 
ATOM     10  N   UNL     1      46.227   3.747   7.241  0.00  0.00    +0.000 N 
ATOM     11  C   UNL     1      45.689   4.867   9.282  0.00  0.00    +0.000 A 
ATOM     12  H   UNL     1      45.930   4.558   6.705  0.00  0.00    +0.000 HD
BRANCH  10  13
ATOM     13  C   UNL     1      46.460   2.578   6.435  0.00  0.00    +0.000 C 
ATOM     14  C   UNL     1      47.462   1.619   7.099  0.00  0.00    +0.000 C 
ATOM     15  O   UNL     1      48.325   1.643   5.938  0.00  0.00    +0.000 OA
ATOM     16  C   UNL     1      47.513   2.685   5.330  0.00  0.00    +0.000 C 
ENDBRANCH  10  13
ENDBRANCH   2   5
ENDBRANCH   1   2
BRANCH   1  17
ATOM     17  N   UNL     1      47.022   5.559  13.202  0.00  0.00    +0.000 N 
ATOM     18  H   UNL     1      47.535   5.033  12.495  0.00  0.00    +0.000 HD
BRANCH  17  22
ATOM     19  C   UNL     1      48.248   4.952  17.200  0.00  0.00    +0.000 A 
ATOM     20  C   UNL     1      48.734   6.024  16.446  0.00  0.00    +0.000 A 
ATOM     21  C   UNL     1      48.335   6.185  15.111  0.00  0.00    +0.000 A 
ATOM     22  C   UNL     1      47.458   5.279  14.497  0.00  0.00    +0.000 A 
ATOM     23  C   UNL     1      46.968   4.226  15.269  0.00  0.00    +0.000 A 
ATOM     24  C   UNL     1      47.371   4.057  16.595  0.00  0.00    +0.000 A 
ATOM     25  F   UNL     1      46.872   3.006  17.267  0.00  0.00    +0.000 F 
BRANCH  19  27
ATOM     26  N   UNL     1      49.636   3.907  18.925  0.00  0.00    +0.000 N 
ATOM     27  C   UNL     1      48.675   4.826  18.619  0.00  0.00    +0.000 C 
ATOM     28  O   UNL     1      48.178   5.522  19.495  0.00  0.00    +0.000 OA
ATOM     29  H   UNL     1      49.911   3.817  19.892  0.00  0.00    +0.000 HD
ATOM     30  H   UNL     1      50.071   3.308  18.235  0.00  0.00    +0.000 HD
ENDBRANCH  19  27
ENDBRANCH  17  22
ENDBRANCH   1  17
TORSDOF 6
ENDMDL
MODEL 6
REMARK VINA RESULT:    -7.478      3.351      7.668
REMARK INTER + INTRA:         -10.823
REMARK INTER:                 -10.218
REMARK INTRA:                  -0.605
REMARK UNBOUND:                -0.722
REMARK  Name = 
REMARK  6 active torsions:
REMARK  status: ('A' for Active; 'I' for Inactive)
REMARK    1  A    between atoms: C_2  and  C_4
REMARK    2  A    between atoms: C_7  and  N_8
REMARK    3  A    between atoms: N_8  and  C_9
REMARK    4  A    between atoms: C_9  and  C_10
REMARK    5  A    between atoms: C_10  and  C_13
REMARK    6  A    between atoms: N_18  and  C_19
REMARK                            x       y       z     vdW  Elec       q    Type
REMARK                         _______ _______ _______ _____ _____    ______ ____
ROOT
ATOM      1  C   UNL     1      45.523   5.791  12.887  0.00  0.00    +0.000 C 
ENDROOT
BRANCH   1   2
ATOM      2  C   UNL     1      45.265   6.170  11.407  0.00  0.00    +0.000 C 
ATOM      3  F   UNL     1      44.198   7.025  11.371  0.00  0.00    +0.000 F 
ATOM      4  F   UNL     1      46.332   6.922  10.990  0.00  0.00    +0.000 F 
BRANCH   2   5
ATOM      5  C   UNL     1      45.059   4.960  10.524  0.00  0.00    +0.000 A 
ATOM      6  C   UNL     1      44.259   3.891  10.918  0.00  0.00    +0.000 A 
ATOM      7  C   UNL     1      44.175   2.789  10.079  0.00  0.00    +0.000 A 
ATOM      8  N   UNL     1      44.823   2.684   8.894  0.00  0.00    +0.000 NA
ATOM      9  C   UNL     1      45.570   3.731   8.501  0.00  0.00    +0.000 A 
ATOM     10  N   UNL     1      46.284   3.700   7.288  0.00  0.00    +0.000 N 
ATOM     11  C   UNL     1      45.707   4.875   9.288  0.00  0.00    +0.000 A 
ATOM     12  H   UNL     1      46.012   4.504   6.726  0.00  0.00    +0.000 HD
BRANCH  10  13
ATOM     13  C   UNL     1      46.522   2.510   6.515  0.00  0.00    +0.000 C 
ATOM     14  C   UNL     1      47.695   1.692   7.078  0.00  0.00    +0.000 C 
ATOM     15  O   UNL     1      48.388   1.724   5.807  0.00  0.00    +0.000 OA
ATOM     16  C   UNL     1      47.400   2.646   5.270  0.00  0.00    +0.000 C 
ENDBRANCH  10  13
ENDBRANCH   2   5
ENDBRANCH   1   2
BRANCH   1  17
ATOM     17  N   UNL     1      46.924   5.426  13.169  0.00  0.00    +0.000 N 
ATOM     18  H   UNL     1      47.294   4.713  12.541  0.00  0.00    +0.000 HD
BRANCH  17  22
ATOM     19  C   UNL     1      48.380   4.699  17.069  0.00  0.00    +0.000 A 
ATOM     20  C   UNL     1      47.538   3.787  16.425  0.00  0.00    +0.000 A 
ATOM     21  C   UNL     1      47.044   4.067  15.144  0.00  0.00    +0.000 A 
ATOM     22  C   UNL     1      47.365   5.262  14.482  0.00  0.00    +0.000 A 
ATOM     23  C   UNL     1      48.220   6.151  15.130  0.00  0.00    +0.000 A 
ATOM     24  C   UNL     1      48.707   5.881  16.410  0.00  0.00    +0.000 A 
ATOM     25  F   UNL     1      49.509   6.796  16.978  0.00  0.00    +0.000 F 
BRANCH  19  27
ATOM     26  N   UNL     1      49.773   3.312  18.528  0.00  0.00    +0.000 N 
ATOM     27  C   UNL     1      48.903   4.357  18.418  0.00  0.00    +0.000 C 
ATOM     28  O   UNL     1      48.562   4.990  19.409  0.00  0.00    +0.000 OA
ATOM     29  H   UNL     1      50.113   3.076  19.449  0.00  0.00    +0.000 HD
ATOM     30  H   UNL     1      50.079   2.759  17.737  0.00  0.00    +0.000 HD
ENDBRANCH  19  27
ENDBRANCH  17  22
ENDBRANCH   1  17
TORSDOF 6
ENDMDL
MODEL 7
REMARK VINA RESULT:    -7.011      2.443      7.061
REMARK INTER + INTRA:         -10.192
REMARK INTER:                  -9.508
REMARK INTRA:                  -0.684
REMARK UNBOUND:                -0.722
REMARK  Name = 
REMARK  6 active torsions:
REMARK  status: ('A' for Active; 'I' for Inactive)
REMARK    1  A    between atoms: C_2  and  C_4
REMARK    2  A    between atoms: C_7  and  N_8
REMARK    3  A    between atoms: N_8  and  C_9
REMARK    4  A    between atoms: C_9  and  C_10
REMARK    5  A    between atoms: C_10  and  C_13
REMARK    6  A    between atoms: N_18  and  C_19
REMARK                            x       y       z     vdW  Elec       q    Type
REMARK                         _______ _______ _______ _____ _____    ______ ____
ROOT
ATOM      1  C   UNL     1      46.117   5.573  12.778  0.00  0.00    +0.000 C 
ENDROOT
BRANCH   1   2
ATOM      2  C   UNL     1      45.092   5.869  11.654  0.00  0.00    +0.000 C 
ATOM      3  F   UNL     1      43.914   6.238  12.243  0.00  0.00    +0.000 F 
ATOM      4  F   UNL     1      45.525   6.993  10.998  0.00  0.00    +0.000 F 
BRANCH   2   5
ATOM      5  C   UNL     1      44.917   4.705  10.704  0.00  0.00    +0.000 A 
ATOM      6  C   UNL     1      44.174   3.581  11.051  0.00  0.00    +0.000 A 
ATOM      7  C   UNL     1      44.117   2.528  10.150  0.00  0.00    +0.000 A 
ATOM      8  N   UNL     1      44.741   2.521   8.947  0.00  0.00    +0.000 NA
ATOM      9  C   UNL     1      45.432   3.622   8.601  0.00  0.00    +0.000 A 
ATOM     10  N   UNL     1      46.116   3.694   7.373  0.00  0.00    +0.000 N 
ATOM     11  C   UNL     1      45.539   4.722   9.451  0.00  0.00    +0.000 A 
ATOM     12  H   UNL     1      45.797   4.516   6.866  0.00  0.00    +0.000 HD
BRANCH  10  13
ATOM     13  C   UNL     1      46.387   2.564   6.525  0.00  0.00    +0.000 C 
ATOM     14  C   UNL     1      47.486   1.663   7.112  0.00  0.00    +0.000 C 
ATOM     15  O   UNL     1      48.284   1.774   5.909  0.00  0.00    +0.000 OA
ATOM     16  C   UNL     1      47.371   2.770   5.372  0.00  0.00    +0.000 C 
ENDBRANCH  10  13
ENDBRANCH   2   5
ENDBRANCH   1   2
BRANCH   1  17
ATOM     17  N   UNL     1      46.537   6.771  13.528  0.00  0.00    +0.000 N 
ATOM     18  H   UNL     1      45.829   7.505  13.553  0.00  0.00    +0.000 HD
BRANCH  17  22
ATOM     19  C   UNL     1      50.533   8.125  13.288  0.00  0.00    +0.000 A 
ATOM     20  C   UNL     1      49.835   8.129  14.500  0.00  0.00    +0.000 A 
ATOM     21  C   UNL     1      48.500   7.703  14.546  0.00  0.00    +0.000 A 
ATOM     22  C   UNL     1      47.828   7.279  13.390  0.00  0.00    +0.000 A 
ATOM     23  C   UNL     1      48.544   7.264  12.193  0.00  0.00    +0.000 A 
ATOM     24  C   UNL     1      49.870   7.696  12.142  0.00  0.00    +0.000 A 
ATOM     25  F   UNL     1      50.487   7.672  10.948  0.00  0.00    +0.000 F 
BRANCH  19  27
ATOM     26  N   UNL     1      52.887   7.728  13.827  0.00  0.00    +0.000 N 
ATOM     27  C   UNL     1      51.954   8.561  13.282  0.00  0.00    +0.000 C 
ATOM     28  O   UNL     1      52.284   9.640  12.808  0.00  0.00    +0.000 OA
ATOM     29  H   UNL     1      53.849   8.037  13.832  0.00  0.00    +0.000 HD
ATOM     30  H   UNL     1      52.660   6.830  14.233  0.00  0.00    +0.000 HD
ENDBRANCH  19  27
ENDBRANCH  17  22
ENDBRANCH   1  17
TORSDOF 6
ENDMDL
MODEL 8
REMARK VINA RESULT:    -6.935      5.299      6.807
REMARK INTER + INTRA:         -10.090
REMARK INTER:                  -9.770
REMARK INTRA:                  -0.320
REMARK UNBOUND:                -0.722
REMARK  Name = 
REMARK  6 active torsions:
REMARK  status: ('A' for Active; 'I' for Inactive)
REMARK    1  A    between atoms: C_2  and  C_4
REMARK    2  A    between atoms: C_7  and  N_8
REMARK    3  A    between atoms: N_8  and  C_9
REMARK    4  A    between atoms: C_9  and  C_10
REMARK    5  A    between atoms: C_10  and  C_13
REMARK    6  A    between atoms: N_18  and  C_19
REMARK                            x       y       z     vdW  Elec       q    Type
REMARK                         _______ _______ _______ _____ _____    ______ ____
ROOT
ATOM      1  C   UNL     1      47.170   3.650  15.402  0.00  0.00    +0.000 C 
ENDROOT
BRANCH   1   2
ATOM      2  C   UNL     1      47.450   3.810  16.917  0.00  0.00    +0.000 C 
ATOM      3  F   UNL     1      46.776   4.916  17.357  0.00  0.00    +0.000 F 
ATOM      4  F   UNL     1      46.848   2.755  17.553  0.00  0.00    +0.000 F 
BRANCH   2   5
ATOM      5  C   UNL     1      48.928   3.878  17.232  0.00  0.00    +0.000 A 
ATOM      6  C   UNL     1      49.604   5.091  17.319  0.00  0.00    +0.000 A 
ATOM      7  C   UNL     1      50.973   5.065  17.545  0.00  0.00    +0.000 A 
ATOM      8  N   UNL     1      51.699   3.930  17.688  0.00  0.00    +0.000 NA
ATOM      9  C   UNL     1      51.038   2.760  17.634  0.00  0.00    +0.000 A 
ATOM     10  N   UNL     1      51.718   1.534  17.764  0.00  0.00    +0.000 N 
ATOM     11  C   UNL     1      49.663   2.701  17.409  0.00  0.00    +0.000 A 
ATOM     12  H   UNL     1      51.297   1.004  18.522  0.00  0.00    +0.000 HD
BRANCH  10  13
ATOM     13  C   UNL     1      53.146   1.385  17.678  0.00  0.00    +0.000 C 
ATOM     14  C   UNL     1      53.598  -0.018  18.117  0.00  0.00    +0.000 C 
ATOM     15  O   UNL     1      54.492   0.531  19.114  0.00  0.00    +0.000 OA
ATOM     16  C   UNL     1      53.975   1.868  18.870  0.00  0.00    +0.000 C 
ENDBRANCH  10  13
ENDBRANCH   2   5
ENDBRANCH   1   2
BRANCH   1  17
ATOM     17  N   UNL     1      46.593   4.855  14.777  0.00  0.00    +0.000 N 
ATOM     18  H   UNL     1      45.958   5.367  15.387  0.00  0.00    +0.000 HD
BRANCH  17  22
ATOM     19  C   UNL     1      45.522   4.828  10.689  0.00  0.00    +0.000 A 
ATOM     20  C   UNL     1      46.081   5.961  11.286  0.00  0.00    +0.000 A 
ATOM     21  C   UNL     1      46.399   5.954  12.652  0.00  0.00    +0.000 A 
ATOM     22  C   UNL     1      46.156   4.828  13.453  0.00  0.00    +0.000 A 
ATOM     23  C   UNL     1      45.615   3.700  12.837  0.00  0.00    +0.000 A 
ATOM     24  C   UNL     1      45.289   3.707  11.480  0.00  0.00    +0.000 A 
ATOM     25  F   UNL     1      44.751   2.589  10.964  0.00  0.00    +0.000 F 
BRANCH  19  27
ATOM     26  N   UNL     1      43.966   4.513   8.826  0.00  0.00    +0.000 N 
ATOM     27  C   UNL     1      45.219   4.864   9.234  0.00  0.00    +0.000 C 
ATOM     28  O   UNL     1      46.070   5.194   8.417  0.00  0.00    +0.000 OA
ATOM     29  H   UNL     1      43.771   4.526   7.835  0.00  0.00    +0.000 HD
ATOM     30  H   UNL     1      43.233   4.230   9.464  0.00  0.00    +0.000 HD
ENDBRANCH  19  27
ENDBRANCH  17  22
ENDBRANCH   1  17
TORSDOF 6
ENDMDL
MODEL 9
REMARK VINA RESULT:    -6.357      3.905      5.825
REMARK INTER + INTRA:          -9.309
REMARK INTER:                  -8.414
REMARK INTRA:                  -0.895
REMARK UNBOUND:                -0.722
REMARK  Name = 
REMARK  6 active torsions:
REMARK  status: ('A' for Active; 'I' for Inactive)
REMARK    1  A    between atoms: C_2  and  C_4
REMARK    2  A    between atoms: C_7  and  N_8
REMARK    3  A    between atoms: N_8  and  C_9
REMARK    4  A    between atoms: C_9  and  C_10
REMARK    5  A    between atoms: C_10  and  C_13
REMARK    6  A    between atoms: N_18  and  C_19
REMARK                            x       y       z     vdW  Elec       q    Type
REMARK                         _______ _______ _______ _____ _____    ______ ____
ROOT
ATOM      1  C   UNL     1      46.556   8.885  13.173  0.00  0.00    +0.000 C 
ENDROOT
BRANCH   1   2
ATOM      2  C   UNL     1      48.090   9.034  13.007  0.00  0.00    +0.000 C 
ATOM      3  F   UNL     1      48.409   8.700  11.719  0.00  0.00    +0.000 F 
ATOM      4  F   UNL     1      48.380  10.370  13.107  0.00  0.00    +0.000 F 
BRANCH   2   5
ATOM      5  C   UNL     1      48.866   8.220  14.019  0.00  0.00    +0.000 A 
ATOM      6  C   UNL     1      50.242   8.359  14.172  0.00  0.00    +0.000 A 
ATOM      7  C   UNL     1      50.890   7.528  15.074  0.00  0.00    +0.000 A 
ATOM      8  N   UNL     1      50.268   6.584  15.820  0.00  0.00    +0.000 NA
ATOM      9  C   UNL     1      48.934   6.472  15.693  0.00  0.00    +0.000 A 
ATOM     10  N   UNL     1      48.212   5.511  16.425  0.00  0.00    +0.000 N 
ATOM     11  C   UNL     1      48.210   7.269  14.807  0.00  0.00    +0.000 A 
ATOM     12  H   UNL     1      47.479   5.981  16.951  0.00  0.00    +0.000 HD
BRANCH  10  13
ATOM     13  C   UNL     1      48.810   4.408  17.129  0.00  0.00    +0.000 C 
ATOM     14  C   UNL     1      48.093   3.082  16.822  0.00  0.00    +0.000 C 
ATOM     15  O   UNL     1      47.844   2.838  18.227  0.00  0.00    +0.000 OA
ATOM     16  C   UNL     1      48.348   4.159  18.566  0.00  0.00    +0.000 C 
ENDBRANCH  10  13
ENDBRANCH   2   5
ENDBRANCH   1   2
BRANCH   1  17
ATOM     17  N   UNL     1      45.870   8.425  11.952  0.00  0.00    +0.000 N 
ATOM     18  H   UNL     1      45.146   9.063  11.626  0.00  0.00    +0.000 HD
BRANCH  17  22
ATOM     19  C   UNL     1      44.521   4.442  11.533  0.00  0.00    +0.000 A 
ATOM     20  C   UNL     1      44.293   5.167  12.707  0.00  0.00    +0.000 A 
ATOM     21  C   UNL     1      44.779   6.477  12.831  0.00  0.00    +0.000 A 
ATOM     22  C   UNL     1      45.510   7.086  11.801  0.00  0.00    +0.000 A 
ATOM     23  C   UNL     1      45.713   6.355  10.631  0.00  0.00    +0.000 A 
ATOM     24  C   UNL     1      45.239   5.048  10.507  0.00  0.00    +0.000 A 
ATOM     25  F   UNL     1      45.492   4.401   9.357  0.00  0.00    +0.000 F 
BRANCH  19  27
ATOM     26  N   UNL     1      43.761   2.364  12.580  0.00  0.00    +0.000 N 
ATOM     27  C   UNL     1      43.972   3.065  11.428  0.00  0.00    +0.000 C 
ATOM     28  O   UNL     1      43.718   2.564  10.340  0.00  0.00    +0.000 OA
ATOM     29  H   UNL     1      43.401   1.424  12.501  0.00  0.00    +0.000 HD
ATOM     30  H   UNL     1      43.960   2.736  13.500  0.00  0.00    +0.000 HD
ENDBRANCH  19  27
ENDBRANCH  17  22
ENDBRANCH   1  17
TORSDOF 6
ENDMDL
