MODEL 1
REMARK VINA RESULT:    -7.052      0.000      0.000
REMARK INTER + INTRA:         -12.172
REMARK INTER:                 -10.350
REMARK INTRA:                  -1.822
REMARK UNBOUND:                -1.822
REMARK  Name = 
REMARK  8 active torsions:
REMARK  status: ('A' for Active; 'I' for Inactive)
REMARK    1  A    between atoms: C_2  and  C_3
REMARK    2  A    between atoms: C_3  and  N_4
REMARK    3  A    between atoms: C_5  and  C_7
REMARK    4  A    between atoms: N_17  and  C_18
REMARK    5  A    between atoms: C_18  and  C_19
REMARK    6  A    between atoms: C_22  and  C_23
REMARK    7  A    between atoms: C_23  and  N_24
REMARK    8  A    between atoms: C_25  and  C_27
REMARK                            x       y       z     vdW  Elec       q    Type
REMARK                         _______ _______ _______ _____ _____    ______ ____
ROOT
ATOM      1  O   UNL     1      46.766   3.110  17.774  0.00  0.00    +0.000 OA
ATOM      2  C   UNL     1      47.167   4.231  17.468  0.00  0.00    +0.000 C 
ATOM      3  N   UNL     1      47.584   4.571  16.201  0.00  0.00    +0.000 N 
ATOM      4  H   UNL     1      48.029   5.473  16.061  0.00  0.00    +0.000 HD
ENDROOT
BRANCH   2   5
ATOM      5  C   UNL     1      47.318   5.348  18.501  0.00  0.00    +0.000 C 
BRANCH   5   6
ATOM      6  N   UNL     1      47.636   6.610  17.864  0.00  0.00    +0.000 N 
ATOM      7  C   UNL     1      48.713   7.360  18.264  0.00  0.00    +0.000 C 
ATOM      8  O   UNL     1      49.456   6.987  19.169  0.00  0.00    +0.000 OA
ATOM      9  H   UNL     1      46.901   7.044  17.310  0.00  0.00    +0.000 HD
BRANCH   7  10
ATOM     10  C   UNL     1      48.969   8.597  17.519  0.00  0.00    +0.000 A 
ATOM     11  C   UNL     1      48.867   9.823  18.160  0.00  0.00    +0.000 A 
ATOM     12  S   UNL     1      49.212  11.156  17.153  0.00  0.00    +0.000 S 
ATOM     13  C   UNL     1      49.466  10.141  15.810  0.00  0.00    +0.000 A 
ATOM     14  N   UNL     1      49.767  10.658  14.588  0.00  0.00    +0.000 NA
ATOM     15  C   UNL     1      49.891   9.775  13.654  0.00  0.00    +0.000 A 
ATOM     16  N   UNL     1      49.753   8.421  13.830  0.00  0.00    +0.000 N 
ATOM     17  C   UNL     1      49.506   7.853  15.058  0.00  0.00    +0.000 A 
ATOM     18  O   UNL     1      49.483   6.637  15.212  0.00  0.00    +0.000 OA
ATOM     19  C   UNL     1      49.319   8.803  16.136  0.00  0.00    +0.000 A 
ATOM     20  H   UNL     1      49.885   7.783  13.062  0.00  0.00    +0.000 HD
ENDBRANCH   7  10
ENDBRANCH   5   6
ENDBRANCH   2   5
BRANCH   3  21
ATOM     21  C   UNL     1      47.551   3.641  15.095  0.00  0.00    +0.000 C 
BRANCH  21  22
ATOM     22  C   UNL     1      46.668   4.144  13.980  0.00  0.00    +0.000 A 
ATOM     23  C   UNL     1      46.026   3.250  13.112  0.00  0.00    +0.000 A 
ATOM     24  C   UNL     1      45.215   3.721  12.073  0.00  0.00    +0.000 A 
ATOM     25  C   UNL     1      45.040   5.098  11.868  0.00  0.00    +0.000 A 
ATOM     26  C   UNL     1      45.676   5.991  12.741  0.00  0.00    +0.000 A 
ATOM     27  C   UNL     1      46.489   5.520  13.779  0.00  0.00    +0.000 A 
BRANCH  25  28
ATOM     28  C   UNL     1      44.201   5.608  10.723  0.00  0.00    +0.000 C 
BRANCH  28  29
ATOM     29  N   UNL     1      44.097   4.652   9.644  0.00  0.00    +0.000 N 
ATOM     30  C   UNL     1      45.101   4.553   8.709  0.00  0.00    +0.000 C 
ATOM     31  O   UNL     1      46.081   5.297   8.709  0.00  0.00    +0.000 OA
ATOM     32  H   UNL     1      43.481   3.856   9.777  0.00  0.00    +0.000 HD
BRANCH  30  33
ATOM     33  C   UNL     1      44.933   3.484   7.634  0.00  0.00    +0.000 C 
ATOM     34  C   UNL     1      44.729   2.094   8.194  0.00  0.00    +0.000 C 
ATOM     35  C   UNL     1      46.132   1.529   8.288  0.00  0.00    +0.000 C 
ATOM     36  O   UNL     1      46.980   2.325   7.444  0.00  0.00    +0.000 OA
ATOM     37  C   UNL     1      46.178   3.325   6.794  0.00  0.00    +0.000 C 
ENDBRANCH  30  33
ENDBRANCH  28  29
ENDBRANCH  25  28
ENDBRANCH  21  22
ENDBRANCH   3  21
TORSDOF 8
ENDMDL
MODEL 2
REMARK VINA RESULT:    -6.768      5.794      9.785
REMARK INTER + INTRA:         -11.755
REMARK INTER:                 -10.416
REMARK INTRA:                  -1.339
REMARK UNBOUND:                -1.822
REMARK  Name = 
REMARK  8 active torsions:
REMARK  status: ('A' for Active; 'I' for Inactive)
REMARK    1  A    between atoms: C_2  and  C_3
REMARK    2  A    between atoms: C_3  and  N_4
REMARK    3  A    between atoms: C_5  and  C_7
REMARK    4  A    between atoms: N_17  and  C_18
REMARK    5  A    between atoms: C_18  and  C_19
REMARK    6  A    between atoms: C_22  and  C_23
REMARK    7  A    between atoms: C_23  and  N_24
REMARK    8  A    between atoms: C_25  and  C_27
REMARK                            x       y       z     vdW  Elec       q    Type
REMARK                         _______ _______ _______ _____ _____    ______ ____
ROOT
ATOM      1  O   UNL     1      48.376   6.238  17.878  0.00  0.00    +0.000 OA
ATOM      2  C   UNL     1      48.663   5.817  16.759  0.00  0.00    +0.000 C 
ATOM      3  N   UNL     1      49.011   4.511  16.503  0.00  0.00    +0.000 N 
ATOM      4  H   UNL     1      49.366   4.273  15.581  0.00  0.00    +0.000 HD
ENDROOT
BRANCH   2   5
ATOM      5  C   UNL     1      48.736   6.739  15.541  0.00  0.00    +0.000 C 
BRANCH   5   6
ATOM      6  N   UNL     1      47.549   6.614  14.719  0.00  0.00    +0.000 N 
ATOM      7  C   UNL     1      47.621   6.164  13.426  0.00  0.00    +0.000 C 
ATOM      8  O   UNL     1      48.691   5.837  12.916  0.00  0.00    +0.000 OA
ATOM      9  H   UNL     1      46.719   7.114  15.031  0.00  0.00    +0.000 HD
BRANCH   7  10
ATOM     10  C   UNL     1      46.353   6.033  12.701  0.00  0.00    +0.000 A 
ATOM     11  C   UNL     1      45.758   7.154  12.141  0.00  0.00    +0.000 A 
ATOM     12  S   UNL     1      44.299   6.822  11.322  0.00  0.00    +0.000 S 
ATOM     13  C   UNL     1      44.388   5.170  11.727  0.00  0.00    +0.000 A 
ATOM     14  N   UNL     1      43.408   4.304  11.355  0.00  0.00    +0.000 NA
ATOM     15  C   UNL     1      43.586   3.093  11.767  0.00  0.00    +0.000 A 
ATOM     16  N   UNL     1      44.659   2.664  12.506  0.00  0.00    +0.000 N 
ATOM     17  C   UNL     1      45.700   3.494  12.854  0.00  0.00    +0.000 A 
ATOM     18  O   UNL     1      46.695   3.070  13.430  0.00  0.00    +0.000 OA
ATOM     19  C   UNL     1      45.531   4.875  12.451  0.00  0.00    +0.000 A 
ATOM     20  H   UNL     1      44.749   1.698  12.777  0.00  0.00    +0.000 HD
ENDBRANCH   7  10
ENDBRANCH   5   6
ENDBRANCH   2   5
BRANCH   3  21
ATOM     21  C   UNL     1      49.036   3.496  17.532  0.00  0.00    +0.000 C 
BRANCH  21  22
ATOM     22  C   UNL     1      50.432   2.965  17.747  0.00  0.00    +0.000 A 
ATOM     23  C   UNL     1      51.433   3.775  18.299  0.00  0.00    +0.000 A 
ATOM     24  C   UNL     1      52.729   3.281  18.488  0.00  0.00    +0.000 A 
ATOM     25  C   UNL     1      53.058   1.971  18.115  0.00  0.00    +0.000 A 
ATOM     26  C   UNL     1      52.055   1.158  17.570  0.00  0.00    +0.000 A 
ATOM     27  C   UNL     1      50.758   1.652  17.379  0.00  0.00    +0.000 A 
BRANCH  25  28
ATOM     28  C   UNL     1      54.464   1.450  18.278  0.00  0.00    +0.000 C 
BRANCH  28  29
ATOM     29  N   UNL     1      54.505   0.163  18.936  0.00  0.00    +0.000 N 
ATOM     30  C   UNL     1      55.062  -0.921  18.298  0.00  0.00    +0.000 C 
ATOM     31  O   UNL     1      55.485  -0.865  17.145  0.00  0.00    +0.000 OA
ATOM     32  H   UNL     1      54.445   0.149  19.949  0.00  0.00    +0.000 HD
BRANCH  30  33
ATOM     33  C   UNL     1      55.110  -2.227  19.084  0.00  0.00    +0.000 C 
ATOM     34  C   UNL     1      54.009  -3.195  18.711  0.00  0.00    +0.000 C 
ATOM     35  C   UNL     1      52.888  -2.862  19.674  0.00  0.00    +0.000 C 
ATOM     36  O   UNL     1      53.457  -2.119  20.764  0.00  0.00    +0.000 OA
ATOM     37  C   UNL     1      54.875  -2.009  20.560  0.00  0.00    +0.000 C 
ENDBRANCH  30  33
ENDBRANCH  28  29
ENDBRANCH  25  28
ENDBRANCH  21  22
ENDBRANCH   3  21
TORSDOF 8
ENDMDL
MODEL 3
REMARK VINA RESULT:    -6.689      2.552      4.689
REMARK INTER + INTRA:         -11.639
REMARK INTER:                  -9.889
REMARK INTRA:                  -1.750
REMARK UNBOUND:                -1.822
REMARK  Name = 
REMARK  8 active torsions:
REMARK  status: ('A' for Active; 'I' for Inactive)
REMARK    1  A    between atoms: C_2  and  C_3
REMARK    2  A    between atoms: C_3  and  N_4
REMARK    3  A    between atoms: C_5  and  C_7
REMARK    4  A    between atoms: N_17  and  C_18
REMARK    5  A    between atoms: C_18  and  C_19
REMARK    6  A    between atoms: C_22  and  C_23
REMARK    7  A    between atoms: C_23  and  N_24
REMARK    8  A    between atoms: C_25  and  C_27
REMARK                            x       y       z     vdW  Elec       q    Type
REMARK                         _______ _______ _______ _____ _____    ______ ____
ROOT
ATOM      1  O   UNL     1      51.428   9.357  11.863  0.00  0.00    +0.000 OA
ATOM      2  C   UNL     1      51.053   9.111  13.007  0.00  0.00    +0.000 C 
ATOM      3  N   UNL     1      49.762   9.306  13.443  0.00  0.00    +0.000 N 
ATOM      4  H   UNL     1      49.564   9.209  14.435  0.00  0.00    +0.000 HD
ENDROOT
BRANCH   2   5
ATOM      5  C   UNL     1      52.018   8.631  14.091  0.00  0.00    +0.000 C 
BRANCH   5   6
ATOM      6  N   UNL     1      51.490   7.473  14.786  0.00  0.00    +0.000 N 
ATOM      7  C   UNL     1      51.568   7.363  16.150  0.00  0.00    +0.000 C 
ATOM      8  O   UNL     1      52.077   8.245  16.840  0.00  0.00    +0.000 OA
ATOM      9  H   UNL     1      51.310   6.643  14.225  0.00  0.00    +0.000 HD
BRANCH   7  10
ATOM     10  C   UNL     1      50.961   6.172  16.752  0.00  0.00    +0.000 A 
ATOM     11  C   UNL     1      51.719   5.351  17.576  0.00  0.00    +0.000 A 
ATOM     12  S   UNL     1      50.855   4.020  18.203  0.00  0.00    +0.000 S 
ATOM     13  C   UNL     1      49.447   4.470  17.357  0.00  0.00    +0.000 A 
ATOM     14  N   UNL     1      48.317   3.716  17.427  0.00  0.00    +0.000 NA
ATOM     15  C   UNL     1      47.342   4.153  16.701  0.00  0.00    +0.000 A 
ATOM     16  N   UNL     1      47.387   5.280  15.920  0.00  0.00    +0.000 N 
ATOM     17  C   UNL     1      48.490   6.101  15.866  0.00  0.00    +0.000 A 
ATOM     18  O   UNL     1      48.477   7.154  15.239  0.00  0.00    +0.000 OA
ATOM     19  C   UNL     1      49.628   5.635  16.631  0.00  0.00    +0.000 A 
ATOM     20  H   UNL     1      46.582   5.579  15.395  0.00  0.00    +0.000 HD
ENDBRANCH   7  10
ENDBRANCH   5   6
ENDBRANCH   2   5
BRANCH   3  21
ATOM     21  C   UNL     1      48.712   9.788  12.576  0.00  0.00    +0.000 C 
BRANCH  21  22
ATOM     22  C   UNL     1      47.623   8.757  12.404  0.00  0.00    +0.000 A 
ATOM     23  C   UNL     1      46.334   8.982  12.906  0.00  0.00    +0.000 A 
ATOM     24  C   UNL     1      45.329   8.019  12.752  0.00  0.00    +0.000 A 
ATOM     25  C   UNL     1      45.596   6.801  12.109  0.00  0.00    +0.000 A 
ATOM     26  C   UNL     1      46.883   6.580  11.601  0.00  0.00    +0.000 A 
ATOM     27  C   UNL     1      47.888   7.543  11.756  0.00  0.00    +0.000 A 
BRANCH  25  28
ATOM     28  C   UNL     1      44.527   5.745  11.981  0.00  0.00    +0.000 C 
BRANCH  28  29
ATOM     29  N   UNL     1      44.404   5.243  10.631  0.00  0.00    +0.000 N 
ATOM     30  C   UNL     1      44.678   3.924  10.357  0.00  0.00    +0.000 C 
ATOM     31  O   UNL     1      45.090   3.142  11.212  0.00  0.00    +0.000 OA
ATOM     32  H   UNL     1      43.806   5.756   9.990  0.00  0.00    +0.000 HD
BRANCH  30  33
ATOM     33  C   UNL     1      44.473   3.467   8.916  0.00  0.00    +0.000 C 
ATOM     34  C   UNL     1      44.544   1.966   8.744  0.00  0.00    +0.000 C 
ATOM     35  C   UNL     1      46.003   1.704   8.433  0.00  0.00    +0.000 C 
ATOM     36  O   UNL     1      46.591   2.946   8.016  0.00  0.00    +0.000 OA
ATOM     37  C   UNL     1      45.571   3.959   8.004  0.00  0.00    +0.000 C 
ENDBRANCH  30  33
ENDBRANCH  28  29
ENDBRANCH  25  28
ENDBRANCH  21  22
ENDBRANCH   3  21
TORSDOF 8
ENDMDL
MODEL 4
REMARK VINA RESULT:    -6.658      3.539      7.132
REMARK INTER + INTRA:         -11.594
REMARK INTER:                  -9.924
REMARK INTRA:                  -1.670
REMARK UNBOUND:                -1.822
REMARK  Name = 
REMARK  8 active torsions:
REMARK  status: ('A' for Active; 'I' for Inactive)
REMARK    1  A    between atoms: C_2  and  C_3
REMARK    2  A    between atoms: C_3  and  N_4
REMARK    3  A    between atoms: C_5  and  C_7
REMARK    4  A    between atoms: N_17  and  C_18
REMARK    5  A    between atoms: C_18  and  C_19
REMARK    6  A    between atoms: C_22  and  C_23
REMARK    7  A    between atoms: C_23  and  N_24
REMARK    8  A    between atoms: C_25  and  C_27
REMARK                            x       y       z     vdW  Elec       q    Type
REMARK                         _______ _______ _______ _____ _____    ______ ____
ROOT
ATOM      1  O   UNL     1      49.435   2.480  16.564  0.00  0.00    +0.000 OA
ATOM      2  C   UNL     1      48.715   3.366  17.019  0.00  0.00    +0.000 C 
ATOM      3  N   UNL     1      49.183   4.407  17.788  0.00  0.00    +0.000 N 
ATOM      4  H   UNL     1      48.509   5.020  18.239  0.00  0.00    +0.000 HD
ENDROOT
BRANCH   2   5
ATOM      5  C   UNL     1      47.197   3.351  16.836  0.00  0.00    +0.000 C 
BRANCH   5   6
ATOM      6  N   UNL     1      46.775   4.365  15.888  0.00  0.00    +0.000 N 
ATOM      7  C   UNL     1      46.807   4.135  14.537  0.00  0.00    +0.000 C 
ATOM      8  O   UNL     1      47.182   3.060  14.075  0.00  0.00    +0.000 OA
ATOM      9  H   UNL     1      46.714   5.320  16.234  0.00  0.00    +0.000 HD
BRANCH   7  10
ATOM     10  C   UNL     1      46.314   5.212  13.673  0.00  0.00    +0.000 A 
ATOM     11  C   UNL     1      47.062   6.371  13.518  0.00  0.00    +0.000 A 
ATOM     12  S   UNL     1      46.351   7.513  12.468  0.00  0.00    +0.000 S 
ATOM     13  C   UNL     1      44.994   6.515  12.219  0.00  0.00    +0.000 A 
ATOM     14  N   UNL     1      43.961   6.921  11.432  0.00  0.00    +0.000 NA
ATOM     15  C   UNL     1      42.981   6.082  11.368  0.00  0.00    +0.000 A 
ATOM     16  N   UNL     1      42.942   4.869  12.008  0.00  0.00    +0.000 N 
ATOM     17  C   UNL     1      43.988   4.396  12.767  0.00  0.00    +0.000 A 
ATOM     18  O   UNL     1      43.974   3.270  13.251  0.00  0.00    +0.000 OA
ATOM     19  C   UNL     1      45.098   5.317  12.904  0.00  0.00    +0.000 A 
ATOM     20  H   UNL     1      42.155   4.250  11.898  0.00  0.00    +0.000 HD
ENDBRANCH   7  10
ENDBRANCH   5   6
ENDBRANCH   2   5
BRANCH   3  21
ATOM     21  C   UNL     1      50.583   4.575  18.102  0.00  0.00    +0.000 C 
BRANCH  21  22
ATOM     22  C   UNL     1      51.222   5.622  17.223  0.00  0.00    +0.000 A 
ATOM     23  C   UNL     1      50.441   6.577  16.558  0.00  0.00    +0.000 A 
ATOM     24  C   UNL     1      51.037   7.542  15.737  0.00  0.00    +0.000 A 
ATOM     25  C   UNL     1      52.427   7.563  15.549  0.00  0.00    +0.000 A 
ATOM     26  C   UNL     1      53.208   6.613  16.221  0.00  0.00    +0.000 A 
ATOM     27  C   UNL     1      52.612   5.647  17.041  0.00  0.00    +0.000 A 
BRANCH  25  28
ATOM     28  C   UNL     1      53.067   8.574  14.631  0.00  0.00    +0.000 C 
BRANCH  28  29
ATOM     29  N   UNL     1      52.454   8.599  13.321  0.00  0.00    +0.000 N 
ATOM     30  C   UNL     1      51.748   9.705  12.911  0.00  0.00    +0.000 C 
ATOM     31  O   UNL     1      51.554  10.676  13.641  0.00  0.00    +0.000 OA
ATOM     32  H   UNL     1      52.829   7.974  12.614  0.00  0.00    +0.000 HD
BRANCH  30  33
ATOM     33  C   UNL     1      51.179   9.667  11.496  0.00  0.00    +0.000 C 
ATOM     34  C   UNL     1      49.725   9.253  11.442  0.00  0.00    +0.000 C 
ATOM     35  C   UNL     1      49.781   7.748  11.271  0.00  0.00    +0.000 C 
ATOM     36  O   UNL     1      51.100   7.410  10.811  0.00  0.00    +0.000 OA
ATOM     37  C   UNL     1      51.855   8.621  10.641  0.00  0.00    +0.000 C 
ENDBRANCH  30  33
ENDBRANCH  28  29
ENDBRANCH  25  28
ENDBRANCH  21  22
ENDBRANCH   3  21
TORSDOF 8
ENDMDL
MODEL 5
REMARK VINA RESULT:    -6.347      3.580      8.363
REMARK INTER + INTRA:         -11.138
REMARK INTER:                  -9.155
REMARK INTRA:                  -1.983
REMARK UNBOUND:                -1.822
REMARK  Name = 
REMARK  8 active torsions:
REMARK  status: ('A' for Active; 'I' for Inactive)
REMARK    1  A    between atoms: C_2  and  C_3
REMARK    2  A    between atoms: C_3  and  N_4
REMARK    3  A    between atoms: C_5  and  C_7
REMARK    4  A    between atoms: N_17  and  C_18
REMARK    5  A    between atoms: C_18  and  C_19
REMARK    6  A    between atoms: C_22  and  C_23
REMARK    7  A    between atoms: C_23  and  N_24
REMARK    8  A    between atoms: C_25  and  C_27
REMARK                            x       y       z     vdW  Elec       q    Type
REMARK                         _______ _______ _______ _____ _____    ______ ____
ROOT
ATOM      1  O   UNL     1      50.993   9.214  11.022  0.00  0.00    +0.000 OA
ATOM      2  C   UNL     1      50.235   9.514  11.942  0.00  0.00    +0.000 C 
ATOM      3  N   UNL     1      50.617   9.549  13.263  0.00  0.00    +0.000 N 
ATOM      4  H   UNL     1      49.902   9.672  13.974  0.00  0.00    +0.000 HD
ENDROOT
BRANCH   2   5
ATOM      5  C   UNL     1      48.753   9.807  11.707  0.00  0.00    +0.000 C 
BRANCH   5   6
ATOM      6  N   UNL     1      47.963   8.593  11.771  0.00  0.00    +0.000 N 
ATOM      7  C   UNL     1      47.455   8.134  12.959  0.00  0.00    +0.000 C 
ATOM      8  O   UNL     1      47.638   8.738  14.014  0.00  0.00    +0.000 OA
ATOM      9  H   UNL     1      48.024   7.963  10.975  0.00  0.00    +0.000 HD
BRANCH   7  10
ATOM     10  C   UNL     1      46.632   6.922  12.900  0.00  0.00    +0.000 A 
ATOM     11  C   UNL     1      47.097   5.743  13.466  0.00  0.00    +0.000 A 
ATOM     12  S   UNL     1      46.010   4.436  13.322  0.00  0.00    +0.000 S 
ATOM     13  C   UNL     1      44.896   5.391  12.457  0.00  0.00    +0.000 A 
ATOM     14  N   UNL     1      43.734   4.861  11.991  0.00  0.00    +0.000 NA
ATOM     15  C   UNL     1      43.007   5.688  11.317  0.00  0.00    +0.000 A 
ATOM     16  N   UNL     1      43.328   7.001  11.075  0.00  0.00    +0.000 N 
ATOM     17  C   UNL     1      44.465   7.591  11.577  0.00  0.00    +0.000 A 
ATOM     18  O   UNL     1      44.685   8.788  11.432  0.00  0.00    +0.000 OA
ATOM     19  C   UNL     1      45.337   6.695  12.308  0.00  0.00    +0.000 A 
ATOM     20  H   UNL     1      42.704   7.600  10.559  0.00  0.00    +0.000 HD
ENDBRANCH   7  10
ENDBRANCH   5   6
ENDBRANCH   2   5
BRANCH   3  21
ATOM     21  C   UNL     1      51.969   9.267  13.690  0.00  0.00    +0.000 C 
BRANCH  21  22
ATOM     22  C   UNL     1      52.003   8.152  14.706  0.00  0.00    +0.000 A 
ATOM     23  C   UNL     1      50.819   7.647  15.261  0.00  0.00    +0.000 A 
ATOM     24  C   UNL     1      50.856   6.618  16.209  0.00  0.00    +0.000 A 
ATOM     25  C   UNL     1      52.079   6.082  16.638  0.00  0.00    +0.000 A 
ATOM     26  C   UNL     1      53.262   6.581  16.077  0.00  0.00    +0.000 A 
ATOM     27  C   UNL     1      53.226   7.611  15.128  0.00  0.00    +0.000 A 
BRANCH  25  28
ATOM     28  C   UNL     1      52.124   5.004  17.691  0.00  0.00    +0.000 C 
BRANCH  28  29
ATOM     29  N   UNL     1      50.809   4.656  18.183  0.00  0.00    +0.000 N 
ATOM     30  C   UNL     1      50.193   3.504  17.751  0.00  0.00    +0.000 C 
ATOM     31  O   UNL     1      50.689   2.767  16.901  0.00  0.00    +0.000 OA
ATOM     32  H   UNL     1      50.514   5.059  19.066  0.00  0.00    +0.000 HD
BRANCH  30  33
ATOM     33  C   UNL     1      48.831   3.188  18.359  0.00  0.00    +0.000 C 
ATOM     34  C   UNL     1      47.769   2.878  17.328  0.00  0.00    +0.000 C 
ATOM     35  C   UNL     1      47.132   4.223  17.044  0.00  0.00    +0.000 C 
ATOM     36  O   UNL     1      47.474   5.104  18.126  0.00  0.00    +0.000 OA
ATOM     37  C   UNL     1      48.248   4.373  19.091  0.00  0.00    +0.000 C 
ENDBRANCH  30  33
ENDBRANCH  28  29
ENDBRANCH  25  28
ENDBRANCH  21  22
ENDBRANCH   3  21
TORSDOF 8
ENDMDL
MODEL 6
REMARK VINA RESULT:    -6.328      2.975      5.085
REMARK INTER + INTRA:         -11.110
REMARK INTER:                  -9.170
REMARK INTRA:                  -1.940
REMARK UNBOUND:                -1.822
REMARK  Name = 
REMARK  8 active torsions:
REMARK  status: ('A' for Active; 'I' for Inactive)
REMARK    1  A    between atoms: C_2  and  C_3
REMARK    2  A    between atoms: C_3  and  N_4
REMARK    3  A    between atoms: C_5  and  C_7
REMARK    4  A    between atoms: N_17  and  C_18
REMARK    5  A    between atoms: C_18  and  C_19
REMARK    6  A    between atoms: C_22  and  C_23
REMARK    7  A    between atoms: C_23  and  N_24
REMARK    8  A    between atoms: C_25  and  C_27
REMARK                            x       y       z     vdW  Elec       q    Type
REMARK                         _______ _______ _______ _____ _____    ______ ____
ROOT
ATOM      1  O   UNL     1      53.256   9.127  12.620  0.00  0.00    +0.000 OA
ATOM      2  C   UNL     1      52.526   8.508  13.391  0.00  0.00    +0.000 C 
ATOM      3  N   UNL     1      51.239   8.131  13.083  0.00  0.00    +0.000 N 
ATOM      4  H   UNL     1      50.655   7.745  13.819  0.00  0.00    +0.000 HD
ENDROOT
BRANCH   2   5
ATOM      5  C   UNL     1      52.960   8.162  14.815  0.00  0.00    +0.000 C 
BRANCH   5   6
ATOM      6  N   UNL     1      52.156   7.085  15.359  0.00  0.00    +0.000 N 
ATOM      7  C   UNL     1      51.752   7.088  16.670  0.00  0.00    +0.000 C 
ATOM      8  O   UNL     1      52.044   8.008  17.432  0.00  0.00    +0.000 OA
ATOM      9  H   UNL     1      52.131   6.217  14.829  0.00  0.00    +0.000 HD
BRANCH   7  10
ATOM     10  C   UNL     1      50.905   5.973  17.102  0.00  0.00    +0.000 A 
ATOM     11  C   UNL     1      51.374   5.074  18.050  0.00  0.00    +0.000 A 
ATOM     12  S   UNL     1      50.256   3.849  18.448  0.00  0.00    +0.000 S 
ATOM     13  C   UNL     1      49.120   4.451  17.332  0.00  0.00    +0.000 A 
ATOM     14  N   UNL     1      47.926   3.827  17.143  0.00  0.00    +0.000 NA
ATOM     15  C   UNL     1      47.182   4.369  16.237  0.00  0.00    +0.000 A 
ATOM     16  N   UNL     1      47.516   5.483  15.509  0.00  0.00    +0.000 N 
ATOM     17  C   UNL     1      48.688   6.176  15.709  0.00  0.00    +0.000 A 
ATOM     18  O   UNL     1      48.924   7.224  15.117  0.00  0.00    +0.000 OA
ATOM     19  C   UNL     1      49.578   5.588  16.688  0.00  0.00    +0.000 A 
ATOM     20  H   UNL     1      46.879   5.869  14.831  0.00  0.00    +0.000 HD
ENDBRANCH   7  10
ENDBRANCH   5   6
ENDBRANCH   2   5
BRANCH   3  21
ATOM     21  C   UNL     1      50.636   8.400  11.797  0.00  0.00    +0.000 C 
BRANCH  21  22
ATOM     22  C   UNL     1      49.131   8.314  11.868  0.00  0.00    +0.000 A 
ATOM     23  C   UNL     1      48.473   7.082  11.745  0.00  0.00    +0.000 A 
ATOM     24  C   UNL     1      47.076   7.009  11.802  0.00  0.00    +0.000 A 
ATOM     25  C   UNL     1      46.304   8.167  11.966  0.00  0.00    +0.000 A 
ATOM     26  C   UNL     1      46.962   9.398  12.097  0.00  0.00    +0.000 A 
ATOM     27  C   UNL     1      48.359   9.472  12.039  0.00  0.00    +0.000 A 
BRANCH  25  28
ATOM     28  C   UNL     1      44.798   8.096  11.985  0.00  0.00    +0.000 C 
BRANCH  28  29
ATOM     29  N   UNL     1      44.289   6.945  11.271  0.00  0.00    +0.000 N 
ATOM     30  C   UNL     1      43.793   5.867  11.965  0.00  0.00    +0.000 C 
ATOM     31  O   UNL     1      43.814   5.803  13.193  0.00  0.00    +0.000 OA
ATOM     32  H   UNL     1      43.991   7.080  10.311  0.00  0.00    +0.000 HD
BRANCH  30  33
ATOM     33  C   UNL     1      43.230   4.718  11.134  0.00  0.00    +0.000 C 
ATOM     34  C   UNL     1      43.383   3.366  11.793  0.00  0.00    +0.000 C 
ATOM     35  C   UNL     1      44.713   2.856  11.275  0.00  0.00    +0.000 C 
ATOM     36  O   UNL     1      45.045   3.618  10.103  0.00  0.00    +0.000 OA
ATOM     37  C   UNL     1      43.977   4.541   9.833  0.00  0.00    +0.000 C 
ENDBRANCH  30  33
ENDBRANCH  28  29
ENDBRANCH  25  28
ENDBRANCH  21  22
ENDBRANCH   3  21
TORSDOF 8
ENDMDL
MODEL 7
REMARK VINA RESULT:    -6.029      3.355      7.026
REMARK INTER + INTRA:         -10.671
REMARK INTER:                  -8.211
REMARK INTRA:                  -2.461
REMARK UNBOUND:                -1.822
REMARK  Name = 
REMARK  8 active torsions:
REMARK  status: ('A' for Active; 'I' for Inactive)
REMARK    1  A    between atoms: C_2  and  C_3
REMARK    2  A    between atoms: C_3  and  N_4
REMARK    3  A    between atoms: C_5  and  C_7
REMARK    4  A    between atoms: N_17  and  C_18
REMARK    5  A    between atoms: C_18  and  C_19
REMARK    6  A    between atoms: C_22  and  C_23
REMARK    7  A    between atoms: C_23  and  N_24
REMARK    8  A    between atoms: C_25  and  C_27
REMARK                            x       y       z     vdW  Elec       q    Type
REMARK                         _______ _______ _______ _____ _____    ______ ____
ROOT
ATOM      1  O   UNL     1      49.327   4.010  17.975  0.00  0.00    +0.000 OA
ATOM      2  C   UNL     1      48.294   4.411  17.443  0.00  0.00    +0.000 C 
ATOM      3  N   UNL     1      47.698   5.614  17.745  0.00  0.00    +0.000 N 
ATOM      4  H   UNL     1      46.777   5.810  17.365  0.00  0.00    +0.000 HD
ENDROOT
BRANCH   2   5
ATOM      5  C   UNL     1      47.520   3.561  16.434  0.00  0.00    +0.000 C 
BRANCH   5   6
ATOM      6  N   UNL     1      46.763   4.394  15.520  0.00  0.00    +0.000 N 
ATOM      7  C   UNL     1      46.816   4.196  14.165  0.00  0.00    +0.000 C 
ATOM      8  O   UNL     1      47.496   3.299  13.670  0.00  0.00    +0.000 OA
ATOM      9  H   UNL     1      46.415   5.278  15.885  0.00  0.00    +0.000 HD
BRANCH   7  10
ATOM     10  C   UNL     1      45.975   5.067  13.337  0.00  0.00    +0.000 A 
ATOM     11  C   UNL     1      44.884   4.537  12.662  0.00  0.00    +0.000 A 
ATOM     12  S   UNL     1      44.007   5.689  11.761  0.00  0.00    +0.000 S 
ATOM     13  C   UNL     1      45.083   6.931  12.205  0.00  0.00    +0.000 A 
ATOM     14  N   UNL     1      44.923   8.197  11.734  0.00  0.00    +0.000 NA
ATOM     15  C   UNL     1      45.836   9.026  12.119  0.00  0.00    +0.000 A 
ATOM     16  N   UNL     1      46.888   8.709  12.942  0.00  0.00    +0.000 N 
ATOM     17  C   UNL     1      47.054   7.456  13.485  0.00  0.00    +0.000 A 
ATOM     18  O   UNL     1      47.945   7.219  14.294  0.00  0.00    +0.000 OA
ATOM     19  C   UNL     1      46.078   6.477  13.053  0.00  0.00    +0.000 A 
ATOM     20  H   UNL     1      47.555   9.410  13.223  0.00  0.00    +0.000 HD
ENDBRANCH   7  10
ENDBRANCH   5   6
ENDBRANCH   2   5
BRANCH   3  21
ATOM     21  C   UNL     1      48.260   6.541  18.701  0.00  0.00    +0.000 C 
BRANCH  21  22
ATOM     22  C   UNL     1      48.696   7.822  18.032  0.00  0.00    +0.000 A 
ATOM     23  C   UNL     1      47.820   8.910  17.920  0.00  0.00    +0.000 A 
ATOM     24  C   UNL     1      48.226  10.093  17.291  0.00  0.00    +0.000 A 
ATOM     25  C   UNL     1      49.512  10.209  16.745  0.00  0.00    +0.000 A 
ATOM     26  C   UNL     1      50.391   9.124  16.865  0.00  0.00    +0.000 A 
ATOM     27  C   UNL     1      49.984   7.940  17.493  0.00  0.00    +0.000 A 
BRANCH  25  28
ATOM     28  C   UNL     1      49.937  11.466  16.030  0.00  0.00    +0.000 C 
BRANCH  28  29
ATOM     29  N   UNL     1      50.601  11.192  14.775  0.00  0.00    +0.000 N 
ATOM     30  C   UNL     1      49.861  10.989  13.633  0.00  0.00    +0.000 C 
ATOM     31  O   UNL     1      48.632  10.969  13.636  0.00  0.00    +0.000 OA
ATOM     32  H   UNL     1      51.567  11.486  14.678  0.00  0.00    +0.000 HD
BRANCH  30  33
ATOM     33  C   UNL     1      50.643  10.756  12.344  0.00  0.00    +0.000 C 
ATOM     34  C   UNL     1      49.874   9.967  11.308  0.00  0.00    +0.000 C 
ATOM     35  C   UNL     1      50.255   8.528  11.590  0.00  0.00    +0.000 C 
ATOM     36  O   UNL     1      51.454   8.541  12.382  0.00  0.00    +0.000 OA
ATOM     37  C   UNL     1      51.869   9.904  12.570  0.00  0.00    +0.000 C 
ENDBRANCH  30  33
ENDBRANCH  28  29
ENDBRANCH  25  28
ENDBRANCH  21  22
ENDBRANCH   3  21
TORSDOF 8
ENDMDL
MODEL 8
REMARK VINA RESULT:    -5.947      3.502      8.510
REMARK INTER + INTRA:         -10.551
REMARK INTER:                  -8.324
REMARK INTRA:                  -2.227
REMARK UNBOUND:                -1.822
REMARK  Name = 
REMARK  8 active torsions:
REMARK  status: ('A' for Active; 'I' for Inactive)
REMARK    1  A    between atoms: C_2  and  C_3
REMARK    2  A    between atoms: C_3  and  N_4
REMARK    3  A    between atoms: C_5  and  C_7
REMARK    4  A    between atoms: N_17  and  C_18
REMARK    5  A    between atoms: C_18  and  C_19
REMARK    6  A    between atoms: C_22  and  C_23
REMARK    7  A    between atoms: C_23  and  N_24
REMARK    8  A    between atoms: C_25  and  C_27
REMARK                            x       y       z     vdW  Elec       q    Type
REMARK                         _______ _______ _______ _____ _____    ______ ____
ROOT
ATOM      1  O   UNL     1      46.946  11.401  11.226  0.00  0.00    +0.000 OA
ATOM      2  C   UNL     1      46.486  10.659  12.090  0.00  0.00    +0.000 C 
ATOM      3  N   UNL     1      47.254  10.042  13.051  0.00  0.00    +0.000 N 
ATOM      4  H   UNL     1      46.820   9.338  13.642  0.00  0.00    +0.000 HD
ENDROOT
BRANCH   2   5
ATOM      5  C   UNL     1      45.004  10.284  12.131  0.00  0.00    +0.000 C 
BRANCH   5   6
ATOM      6  N   UNL     1      44.830   8.861  12.341  0.00  0.00    +0.000 N 
ATOM      7  C   UNL     1      44.289   8.057  11.371  0.00  0.00    +0.000 C 
ATOM      8  O   UNL     1      43.941   8.508  10.282  0.00  0.00    +0.000 OA
ATOM      9  H   UNL     1      44.868   8.530  13.303  0.00  0.00    +0.000 HD
BRANCH   7  10
ATOM     10  C   UNL     1      44.202   6.625  11.673  0.00  0.00    +0.000 A 
ATOM     11  C   UNL     1      43.025   5.935  11.419  0.00  0.00    +0.000 A 
ATOM     12  S   UNL     1      43.101   4.277  11.813  0.00  0.00    +0.000 S 
ATOM     13  C   UNL     1      44.699   4.433  12.381  0.00  0.00    +0.000 A 
ATOM     14  N   UNL     1      45.362   3.368  12.905  0.00  0.00    +0.000 NA
ATOM     15  C   UNL     1      46.549   3.641  13.335  0.00  0.00    +0.000 A 
ATOM     16  N   UNL     1      47.140   4.879  13.278  0.00  0.00    +0.000 N 
ATOM     17  C   UNL     1      46.526   5.968  12.705  0.00  0.00    +0.000 A 
ATOM     18  O   UNL     1      47.107   7.040  12.578  0.00  0.00    +0.000 OA
ATOM     19  C   UNL     1      45.175   5.726  12.243  0.00  0.00    +0.000 A 
ATOM     20  H   UNL     1      48.079   5.020  13.612  0.00  0.00    +0.000 HD
ENDBRANCH   7  10
ENDBRANCH   5   6
ENDBRANCH   2   5
BRANCH   3  21
ATOM     21  C   UNL     1      48.681  10.242  13.154  0.00  0.00    +0.000 C 
BRANCH  21  22
ATOM     22  C   UNL     1      49.257   9.497  14.332  0.00  0.00    +0.000 A 
ATOM     23  C   UNL     1      50.639   9.480  14.568  0.00  0.00    +0.000 A 
ATOM     24  C   UNL     1      51.170   8.780  15.657  0.00  0.00    +0.000 A 
ATOM     25  C   UNL     1      50.334   8.067  16.527  0.00  0.00    +0.000 A 
ATOM     26  C   UNL     1      48.952   8.090  16.297  0.00  0.00    +0.000 A 
ATOM     27  C   UNL     1      48.420   8.789  15.206  0.00  0.00    +0.000 A 
BRANCH  25  28
ATOM     28  C   UNL     1      50.907   7.277  17.677  0.00  0.00    +0.000 C 
BRANCH  28  29
ATOM     29  N   UNL     1      50.050   6.185  18.081  0.00  0.00    +0.000 N 
ATOM     30  C   UNL     1      50.355   4.895  17.713  0.00  0.00    +0.000 C 
ATOM     31  O   UNL     1      51.311   4.621  16.990  0.00  0.00    +0.000 OA
ATOM     32  H   UNL     1      49.453   6.329  18.889  0.00  0.00    +0.000 HD
BRANCH  30  33
ATOM     33  C   UNL     1      49.425   3.800  18.225  0.00  0.00    +0.000 C 
ATOM     34  C   UNL     1      48.672   3.086  17.125  0.00  0.00    +0.000 C 
ATOM     35  C   UNL     1      47.384   3.873  16.994  0.00  0.00    +0.000 C 
ATOM     36  O   UNL     1      47.224   4.649  18.193  0.00  0.00    +0.000 OA
ATOM     37  C   UNL     1      48.313   4.355  19.083  0.00  0.00    +0.000 C 
ENDBRANCH  30  33
ENDBRANCH  28  29
ENDBRANCH  25  28
ENDBRANCH  21  22
ENDBRANCH   3  21
TORSDOF 8
ENDMDL
MODEL 9
REMARK VINA RESULT:    -5.834      3.980      7.918
REMARK INTER + INTRA:         -10.385
REMARK INTER:                  -9.135
REMARK INTRA:                  -1.250
REMARK UNBOUND:                -1.822
REMARK  Name = 
REMARK  8 active torsions:
REMARK  status: ('A' for Active; 'I' for Inactive)
REMARK    1  A    between atoms: C_2  and  C_3
REMARK    2  A    between atoms: C_3  and  N_4
REMARK    3  A    between atoms: C_5  and  C_7
REMARK    4  A    between atoms: N_17  and  C_18
REMARK    5  A    between atoms: C_18  and  C_19
REMARK    6  A    between atoms: C_22  and  C_23
REMARK    7  A    between atoms: C_23  and  N_24
REMARK    8  A    between atoms: C_25  and  C_27
REMARK                            x       y       z     vdW  Elec       q    Type
REMARK                         _______ _______ _______ _____ _____    ______ ____
ROOT
ATOM      1  O   UNL     1      48.691   4.015  18.668  0.00  0.00    +0.000 OA
ATOM      2  C   UNL     1      48.384   4.451  17.561  0.00  0.00    +0.000 C 
ATOM      3  N   UNL     1      48.865   5.635  17.049  0.00  0.00    +0.000 N 
ATOM      4  H   UNL     1      48.460   5.994  16.190  0.00  0.00    +0.000 HD
ENDROOT
BRANCH   2   5
ATOM      5  C   UNL     1      47.364   3.748  16.666  0.00  0.00    +0.000 C 
BRANCH   5   6
ATOM      6  N   UNL     1      46.810   4.661  15.686  0.00  0.00    +0.000 N 
ATOM      7  C   UNL     1      46.784   4.345  14.352  0.00  0.00    +0.000 C 
ATOM      8  O   UNL     1      47.217   3.272  13.935  0.00  0.00    +0.000 OA
ATOM      9  H   UNL     1      46.693   5.629  15.974  0.00  0.00    +0.000 HD
BRANCH   7  10
ATOM     10  C   UNL     1      46.160   5.322  13.454  0.00  0.00    +0.000 A 
ATOM     11  C   UNL     1      46.842   6.481  13.112  0.00  0.00    +0.000 A 
ATOM     12  S   UNL     1      45.978   7.498  12.049  0.00  0.00    +0.000 S 
ATOM     13  C   UNL     1      44.640   6.445  12.045  0.00  0.00    +0.000 A 
ATOM     14  N   UNL     1      43.514   6.746  11.345  0.00  0.00    +0.000 NA
ATOM     15  C   UNL     1      42.565   5.878  11.468  0.00  0.00    +0.000 A 
ATOM     16  N   UNL     1      42.642   4.730  12.216  0.00  0.00    +0.000 N 
ATOM     17  C   UNL     1      43.781   4.360  12.892  0.00  0.00    +0.000 A 
ATOM     18  O   UNL     1      43.862   3.285  13.475  0.00  0.00    +0.000 OA
ATOM     19  C   UNL     1      44.864   5.320  12.820  0.00  0.00    +0.000 A 
ATOM     20  H   UNL     1      41.871   4.083  12.251  0.00  0.00    +0.000 HD
ENDBRANCH   7  10
ENDBRANCH   5   6
ENDBRANCH   2   5
BRANCH   3  21
ATOM     21  C   UNL     1      49.813   6.462  17.761  0.00  0.00    +0.000 C 
BRANCH  21  22
ATOM     22  C   UNL     1      51.165   6.449  17.091  0.00  0.00    +0.000 A 
ATOM     23  C   UNL     1      51.454   7.325  16.036  0.00  0.00    +0.000 A 
ATOM     24  C   UNL     1      52.707   7.304  15.412  0.00  0.00    +0.000 A 
ATOM     25  C   UNL     1      53.694   6.394  15.817  0.00  0.00    +0.000 A 
ATOM     26  C   UNL     1      53.407   5.524  16.878  0.00  0.00    +0.000 A 
ATOM     27  C   UNL     1      52.154   5.544  17.501  0.00  0.00    +0.000 A 
BRANCH  25  28
ATOM     28  C   UNL     1      55.029   6.340  15.118  0.00  0.00    +0.000 C 
BRANCH  28  29
ATOM     29  N   UNL     1      55.031   7.071  13.870  0.00  0.00    +0.000 N 
ATOM     30  C   UNL     1      55.209   6.405  12.680  0.00  0.00    +0.000 C 
ATOM     31  O   UNL     1      55.432   5.197  12.625  0.00  0.00    +0.000 OA
ATOM     32  H   UNL     1      54.571   7.976  13.853  0.00  0.00    +0.000 HD
BRANCH  30  33
ATOM     33  C   UNL     1      55.146   7.245  11.410  0.00  0.00    +0.000 C 
ATOM     34  C   UNL     1      54.433   8.566  11.595  0.00  0.00    +0.000 C 
ATOM     35  C   UNL     1      52.991   8.254  11.249  0.00  0.00    +0.000 C 
ATOM     36  O   UNL     1      52.978   7.025  10.505  0.00  0.00    +0.000 OA
ATOM     37  C   UNL     1      54.332   6.577  10.327  0.00  0.00    +0.000 C 
ENDBRANCH  30  33
ENDBRANCH  28  29
ENDBRANCH  25  28
ENDBRANCH  21  22
ENDBRANCH   3  21
TORSDOF 8
ENDMDL
