MODEL 1
REMARK VINA RESULT:    -7.841      0.000      0.000
REMARK INTER + INTRA:         -12.454
REMARK INTER:                 -11.049
REMARK INTRA:                  -1.405
REMARK UNBOUND:                -1.405
REMARK  Name = 
REMARK  8 active torsions:
REMARK  status: ('A' for Active; 'I' for Inactive)
REMARK    1  A    between atoms: C_1  and  O_2
REMARK    2  A    between atoms: O_2  and  C_3
REMARK    3  A    between atoms: C_10  and  C_11
REMARK    4  A    between atoms: N_13  and  C_14
REMARK    5  A    between atoms: C_14  and  C_15
REMARK    6  A    between atoms: C_18  and  N_19
REMARK    7  A    between atoms: N_19  and  C_20
REMARK    8  A    between atoms: C_20  and  C_21
REMARK                            x       y       z     vdW  Elec       q    Type
REMARK                         _______ _______ _______ _____ _____    ______ ____
ROOT
ATOM      1  C   UNL     1      46.639   8.058  13.095  0.00  0.00    +0.000 C 
ENDROOT
BRANCH   1   2
ATOM      2  C   UNL     1      45.974   7.090  12.144  0.00  0.00    +0.000 A 
ATOM      3  C   UNL     1      44.686   6.595  12.393  0.00  0.00    +0.000 A 
ATOM      4  C   UNL     1      44.057   5.723  11.483  0.00  0.00    +0.000 A 
ATOM      5  C   UNL     1      44.697   5.332  10.304  0.00  0.00    +0.000 A 
ATOM      6  C   UNL     1      46.015   5.761  10.109  0.00  0.00    +0.000 A 
ATOM      7  C   UNL     1      46.641   6.642  11.000  0.00  0.00    +0.000 A 
BRANCH   5   8
ATOM      8  N   UNL     1      44.156   4.461   9.353  0.00  0.00    +0.000 N 
ATOM      9  H   UNL     1      44.292   4.834   8.413  0.00  0.00    +0.000 HD
BRANCH   8  10
ATOM     10  C   UNL     1      44.509   3.040   9.399  0.00  0.00    +0.000 C 
BRANCH  10  11
ATOM     11  C   UNL     1      45.485   2.697   8.289  0.00  0.00    +0.000 A 
ATOM     12  C   UNL     1      46.151   1.472   8.290  0.00  0.00    +0.000 A 
ATOM     13  N   UNL     1      47.062   1.122   7.348  0.00  0.00    +0.000 NA
ATOM     14  C   UNL     1      47.287   2.046   6.391  0.00  0.00    +0.000 A 
ATOM     15  C   UNL     1      46.632   3.267   6.377  0.00  0.00    +0.000 A 
ATOM     16  N   UNL     1      45.723   3.620   7.317  0.00  0.00    +0.000 NA
ENDBRANCH  10  11
ENDBRANCH   8  10
ENDBRANCH   5   8
ENDBRANCH   1   2
BRANCH   1  19
ATOM     17  C   UNL     1      48.461   7.010  14.392  0.00  0.00    +0.000 C 
ATOM     18  O   UNL     1      49.275   7.233  13.501  0.00  0.00    +0.000 OA
ATOM     19  N   UNL     1      47.150   7.394  14.268  0.00  0.00    +0.000 N 
ATOM     20  H   UNL     1      46.485   7.166  14.996  0.00  0.00    +0.000 HD
BRANCH  17  28
ATOM     21  C   UNL     1      47.208   4.271  16.054  0.00  0.00    +0.000 A 
ATOM     22  N   UNL     1      46.950   3.225  16.864  0.00  0.00    +0.000 NA
ATOM     23  C   UNL     1      47.743   3.044  17.924  0.00  0.00    +0.000 A 
ATOM     24  N   UNL     1      48.775   3.798  18.290  0.00  0.00    +0.000 NA
ATOM     25  C   UNL     1      49.003   4.823  17.450  0.00  0.00    +0.000 A 
ATOM     26  S   UNL     1      50.278   5.898  17.763  0.00  0.00    +0.000 S 
ATOM     27  C   UNL     1      49.928   6.800  16.364  0.00  0.00    +0.000 A 
ATOM     28  C   UNL     1      48.850   6.311  15.634  0.00  0.00    +0.000 A 
ATOM     29  C   UNL     1      48.288   5.137  16.298  0.00  0.00    +0.000 A 
BRANCH  21  31
ATOM     30  C   UNL     1      46.867   3.732  13.803  0.00  0.00    +0.000 C 
ATOM     31  O   UNL     1      46.406   4.443  14.948  0.00  0.00    +0.000 OA
ENDBRANCH  21  31
ENDBRANCH  17  28
ENDBRANCH   1  19
TORSDOF 7
ENDMDL
MODEL 2
REMARK VINA RESULT:    -7.146      1.762      2.191
REMARK INTER + INTRA:         -11.475
REMARK INTER:                 -10.503
REMARK INTRA:                  -0.972
REMARK UNBOUND:                -1.405
REMARK  Name = 
REMARK  8 active torsions:
REMARK  status: ('A' for Active; 'I' for Inactive)
REMARK    1  A    between atoms: C_1  and  O_2
REMARK    2  A    between atoms: O_2  and  C_3
REMARK    3  A    between atoms: C_10  and  C_11
REMARK    4  A    between atoms: N_13  and  C_14
REMARK    5  A    between atoms: C_14  and  C_15
REMARK    6  A    between atoms: C_18  and  N_19
REMARK    7  A    between atoms: N_19  and  C_20
REMARK    8  A    between atoms: C_20  and  C_21
REMARK                            x       y       z     vdW  Elec       q    Type
REMARK                         _______ _______ _______ _____ _____    ______ ____
ROOT
ATOM      1  C   UNL     1      48.294   7.336  13.563  0.00  0.00    +0.000 C 
ENDROOT
BRANCH   1   2
ATOM      2  C   UNL     1      47.253   6.490  12.867  0.00  0.00    +0.000 A 
ATOM      3  C   UNL     1      46.865   6.754  11.546  0.00  0.00    +0.000 A 
ATOM      4  C   UNL     1      45.923   5.938  10.890  0.00  0.00    +0.000 A 
ATOM      5  C   UNL     1      45.353   4.839  11.538  0.00  0.00    +0.000 A 
ATOM      6  C   UNL     1      45.680   4.636  12.884  0.00  0.00    +0.000 A 
ATOM      7  C   UNL     1      46.629   5.433  13.537  0.00  0.00    +0.000 A 
BRANCH   5   8
ATOM      8  N   UNL     1      44.400   3.985  10.972  0.00  0.00    +0.000 N 
ATOM      9  H   UNL     1      43.547   3.985  11.531  0.00  0.00    +0.000 HD
BRANCH   8  10
ATOM     10  C   UNL     1      44.083   4.109   9.546  0.00  0.00    +0.000 C 
BRANCH  10  11
ATOM     11  C   UNL     1      45.084   3.338   8.708  0.00  0.00    +0.000 A 
ATOM     12  C   UNL     1      45.312   1.984   8.951  0.00  0.00    +0.000 A 
ATOM     13  N   UNL     1      46.221   1.249   8.262  0.00  0.00    +0.000 NA
ATOM     14  C   UNL     1      46.901   1.918   7.308  0.00  0.00    +0.000 A 
ATOM     15  C   UNL     1      46.683   3.263   7.055  0.00  0.00    +0.000 A 
ATOM     16  N   UNL     1      45.778   4.000   7.742  0.00  0.00    +0.000 NA
ENDBRANCH  10  11
ENDBRANCH   8  10
ENDBRANCH   5   8
ENDBRANCH   1   2
BRANCH   1  19
ATOM     17  C   UNL     1      49.147   6.948  15.847  0.00  0.00    +0.000 C 
ATOM     18  O   UNL     1      50.256   6.636  15.422  0.00  0.00    +0.000 OA
ATOM     19  N   UNL     1      48.137   7.312  14.995  0.00  0.00    +0.000 N 
ATOM     20  H   UNL     1      47.219   7.528  15.362  0.00  0.00    +0.000 HD
BRANCH  17  28
ATOM     21  C   UNL     1      48.849   4.438  18.180  0.00  0.00    +0.000 A 
ATOM     22  N   UNL     1      48.720   3.669  19.279  0.00  0.00    +0.000 NA
ATOM     23  C   UNL     1      48.466   4.276  20.442  0.00  0.00    +0.000 A 
ATOM     24  N   UNL     1      48.310   5.580  20.647  0.00  0.00    +0.000 NA
ATOM     25  C   UNL     1      48.456   6.310  19.527  0.00  0.00    +0.000 A 
ATOM     26  S   UNL     1      48.284   7.997  19.596  0.00  0.00    +0.000 S 
ATOM     27  C   UNL     1      48.603   8.148  17.933  0.00  0.00    +0.000 A 
ATOM     28  C   UNL     1      48.847   6.938  17.294  0.00  0.00    +0.000 A 
ATOM     29  C   UNL     1      48.741   5.838  18.250  0.00  0.00    +0.000 A 
BRANCH  21  31
ATOM     30  C   UNL     1      47.979   3.311  16.323  0.00  0.00    +0.000 C 
ATOM     31  O   UNL     1      49.135   3.814  16.986  0.00  0.00    +0.000 OA
ENDBRANCH  21  31
ENDBRANCH  17  28
ENDBRANCH   1  19
TORSDOF 7
ENDMDL
MODEL 3
REMARK VINA RESULT:    -7.030      2.127      3.548
REMARK INTER + INTRA:         -11.312
REMARK INTER:                 -10.248
REMARK INTRA:                  -1.065
REMARK UNBOUND:                -1.405
REMARK  Name = 
REMARK  8 active torsions:
REMARK  status: ('A' for Active; 'I' for Inactive)
REMARK    1  A    between atoms: C_1  and  O_2
REMARK    2  A    between atoms: O_2  and  C_3
REMARK    3  A    between atoms: C_10  and  C_11
REMARK    4  A    between atoms: N_13  and  C_14
REMARK    5  A    between atoms: C_14  and  C_15
REMARK    6  A    between atoms: C_18  and  N_19
REMARK    7  A    between atoms: N_19  and  C_20
REMARK    8  A    between atoms: C_20  and  C_21
REMARK                            x       y       z     vdW  Elec       q    Type
REMARK                         _______ _______ _______ _____ _____    ______ ____
ROOT
ATOM      1  C   UNL     1      47.160   4.052  14.991  0.00  0.00    +0.000 C 
ENDROOT
BRANCH   1   2
ATOM      2  C   UNL     1      46.546   4.424  13.661  0.00  0.00    +0.000 A 
ATOM      3  C   UNL     1      46.904   5.607  13.000  0.00  0.00    +0.000 A 
ATOM      4  C   UNL     1      46.357   5.928  11.743  0.00  0.00    +0.000 A 
ATOM      5  C   UNL     1      45.445   5.073  11.118  0.00  0.00    +0.000 A 
ATOM      6  C   UNL     1      45.028   3.939  11.825  0.00  0.00    +0.000 A 
ATOM      7  C   UNL     1      45.581   3.604  13.068  0.00  0.00    +0.000 A 
BRANCH   5   8
ATOM      8  N   UNL     1      44.841   5.317   9.880  0.00  0.00    +0.000 N 
ATOM      9  H   UNL     1      45.476   5.835   9.271  0.00  0.00    +0.000 HD
BRANCH   8  10
ATOM     10  C   UNL     1      44.223   4.205   9.152  0.00  0.00    +0.000 C 
BRANCH  10  11
ATOM     11  C   UNL     1      45.280   3.379   8.444  0.00  0.00    +0.000 A 
ATOM     12  C   UNL     1      45.437   2.027   8.748  0.00  0.00    +0.000 A 
ATOM     13  N   UNL     1      46.387   1.244   8.179  0.00  0.00    +0.000 NA
ATOM     14  C   UNL     1      47.182   1.861   7.281  0.00  0.00    +0.000 A 
ATOM     15  C   UNL     1      47.036   3.203   6.967  0.00  0.00    +0.000 A 
ATOM     16  N   UNL     1      46.090   3.989   7.536  0.00  0.00    +0.000 NA
ENDBRANCH  10  11
ENDBRANCH   8  10
ENDBRANCH   5   8
ENDBRANCH   1   2
BRANCH   1  19
ATOM     17  C   UNL     1      48.493   5.309  16.648  0.00  0.00    +0.000 C 
ATOM     18  O   UNL     1      49.318   4.403  16.729  0.00  0.00    +0.000 OA
ATOM     19  N   UNL     1      47.412   5.212  15.810  0.00  0.00    +0.000 N 
ATOM     20  H   UNL     1      46.722   5.951  15.786  0.00  0.00    +0.000 HD
BRANCH  17  28
ATOM     21  C   UNL     1      48.716   8.646  15.844  0.00  0.00    +0.000 A 
ATOM     22  N   UNL     1      48.776   9.992  15.808  0.00  0.00    +0.000 NA
ATOM     23  C   UNL     1      48.842  10.646  16.970  0.00  0.00    +0.000 A 
ATOM     24  N   UNL     1      48.867  10.115  18.189  0.00  0.00    +0.000 NA
ATOM     25  C   UNL     1      48.795   8.772  18.179  0.00  0.00    +0.000 A 
ATOM     26  S   UNL     1      48.822   7.918  19.645  0.00  0.00    +0.000 S 
ATOM     27  C   UNL     1      48.689   6.427  18.838  0.00  0.00    +0.000 A 
ATOM     28  C   UNL     1      48.620   6.540  17.454  0.00  0.00    +0.000 A 
ATOM     29  C   UNL     1      48.702   7.946  17.063  0.00  0.00    +0.000 A 
BRANCH  21  31
ATOM     30  C   UNL     1      49.891   7.680  14.065  0.00  0.00    +0.000 C 
ATOM     31  O   UNL     1      48.623   7.972  14.646  0.00  0.00    +0.000 OA
ENDBRANCH  21  31
ENDBRANCH  17  28
ENDBRANCH   1  19
TORSDOF 7
ENDMDL
MODEL 4
REMARK VINA RESULT:    -6.982      2.601      3.414
REMARK INTER + INTRA:         -11.244
REMARK INTER:                 -10.118
REMARK INTRA:                  -1.126
REMARK UNBOUND:                -1.405
REMARK  Name = 
REMARK  8 active torsions:
REMARK  status: ('A' for Active; 'I' for Inactive)
REMARK    1  A    between atoms: C_1  and  O_2
REMARK    2  A    between atoms: O_2  and  C_3
REMARK    3  A    between atoms: C_10  and  C_11
REMARK    4  A    between atoms: N_13  and  C_14
REMARK    5  A    between atoms: C_14  and  C_15
REMARK    6  A    between atoms: C_18  and  N_19
REMARK    7  A    between atoms: N_19  and  C_20
REMARK    8  A    between atoms: C_20  and  C_21
REMARK                            x       y       z     vdW  Elec       q    Type
REMARK                         _______ _______ _______ _____ _____    ______ ____
ROOT
ATOM      1  C   UNL     1      48.485   6.728  14.000  0.00  0.00    +0.000 C 
ENDROOT
BRANCH   1   2
ATOM      2  C   UNL     1      47.367   6.065  13.229  0.00  0.00    +0.000 A 
ATOM      3  C   UNL     1      46.855   6.635  12.054  0.00  0.00    +0.000 A 
ATOM      4  C   UNL     1      45.840   5.992  11.320  0.00  0.00    +0.000 A 
ATOM      5  C   UNL     1      45.318   4.766  11.740  0.00  0.00    +0.000 A 
ATOM      6  C   UNL     1      45.773   4.249  12.958  0.00  0.00    +0.000 A 
ATOM      7  C   UNL     1      46.795   4.873  13.685  0.00  0.00    +0.000 A 
BRANCH   5   8
ATOM      8  N   UNL     1      44.301   4.065  11.083  0.00  0.00    +0.000 N 
ATOM      9  H   UNL     1      43.423   4.151  11.595  0.00  0.00    +0.000 HD
BRANCH   8  10
ATOM     10  C   UNL     1      44.086   4.287   9.651  0.00  0.00    +0.000 C 
BRANCH  10  11
ATOM     11  C   UNL     1      45.068   3.471   8.831  0.00  0.00    +0.000 A 
ATOM     12  C   UNL     1      45.216   2.105   9.065  0.00  0.00    +0.000 A 
ATOM     13  N   UNL     1      46.102   1.328   8.393  0.00  0.00    +0.000 NA
ATOM     14  C   UNL     1      46.843   1.969   7.465  0.00  0.00    +0.000 A 
ATOM     15  C   UNL     1      46.705   3.326   7.221  0.00  0.00    +0.000 A 
ATOM     16  N   UNL     1      45.823   4.105   7.892  0.00  0.00    +0.000 NA
ENDBRANCH  10  11
ENDBRANCH   8  10
ENDBRANCH   5   8
ENDBRANCH   1   2
BRANCH   1  19
ATOM     17  C   UNL     1      49.216   6.395  16.335  0.00  0.00    +0.000 C 
ATOM     18  O   UNL     1      50.360   6.127  15.980  0.00  0.00    +0.000 OA
ATOM     19  N   UNL     1      48.244   6.709  15.421  0.00  0.00    +0.000 N 
ATOM     20  H   UNL     1      47.297   6.888  15.730  0.00  0.00    +0.000 HD
BRANCH  17  28
ATOM     21  C   UNL     1      47.825   8.749  18.423  0.00  0.00    +0.000 A 
ATOM     22  N   UNL     1      47.261   9.455  19.423  0.00  0.00    +0.000 NA
ATOM     23  C   UNL     1      47.113   8.855  20.607  0.00  0.00    +0.000 A 
ATOM     24  N   UNL     1      47.475   7.616  20.927  0.00  0.00    +0.000 NA
ATOM     25  C   UNL     1      48.024   6.945  19.900  0.00  0.00    +0.000 A 
ATOM     26  S   UNL     1      48.554   5.349  20.126  0.00  0.00    +0.000 S 
ATOM     27  C   UNL     1      49.054   5.232  18.504  0.00  0.00    +0.000 A 
ATOM     28  C   UNL     1      48.831   6.385  17.761  0.00  0.00    +0.000 A 
ATOM     29  C   UNL     1      48.230   7.416  18.606  0.00  0.00    +0.000 A 
BRANCH  21  31
ATOM     30  C   UNL     1      49.166  10.098  17.060  0.00  0.00    +0.000 C 
ATOM     31  O   UNL     1      47.955   9.360  17.195  0.00  0.00    +0.000 OA
ENDBRANCH  21  31
ENDBRANCH  17  28
ENDBRANCH   1  19
TORSDOF 7
ENDMDL
MODEL 5
REMARK VINA RESULT:    -6.622      4.130      9.000
REMARK INTER + INTRA:         -10.737
REMARK INTER:                  -9.884
REMARK INTRA:                  -0.853
REMARK UNBOUND:                -1.405
REMARK  Name = 
REMARK  8 active torsions:
REMARK  status: ('A' for Active; 'I' for Inactive)
REMARK    1  A    between atoms: C_1  and  O_2
REMARK    2  A    between atoms: O_2  and  C_3
REMARK    3  A    between atoms: C_10  and  C_11
REMARK    4  A    between atoms: N_13  and  C_14
REMARK    5  A    between atoms: C_14  and  C_15
REMARK    6  A    between atoms: C_18  and  N_19
REMARK    7  A    between atoms: N_19  and  C_20
REMARK    8  A    between atoms: C_20  and  C_21
REMARK                            x       y       z     vdW  Elec       q    Type
REMARK                         _______ _______ _______ _____ _____    ______ ____
ROOT
ATOM      1  C   UNL     1      47.244   3.450  16.804  0.00  0.00    +0.000 C 
ENDROOT
BRANCH   1   2
ATOM      2  C   UNL     1      48.732   3.499  17.062  0.00  0.00    +0.000 A 
ATOM      3  C   UNL     1      49.391   4.715  17.288  0.00  0.00    +0.000 A 
ATOM      4  C   UNL     1      50.771   4.751  17.566  0.00  0.00    +0.000 A 
ATOM      5  C   UNL     1      51.520   3.573  17.631  0.00  0.00    +0.000 A 
ATOM      6  C   UNL     1      50.871   2.373  17.318  0.00  0.00    +0.000 A 
ATOM      7  C   UNL     1      49.496   2.328  17.057  0.00  0.00    +0.000 A 
BRANCH   5   8
ATOM      8  N   UNL     1      52.894   3.514  17.886  0.00  0.00    +0.000 N 
ATOM      9  H   UNL     1      53.280   4.455  17.970  0.00  0.00    +0.000 HD
BRANCH   8  10
ATOM     10  C   UNL     1      53.386   2.658  18.969  0.00  0.00    +0.000 C 
BRANCH  10  11
ATOM     11  C   UNL     1      54.151   1.475  18.407  0.00  0.00    +0.000 A 
ATOM     12  C   UNL     1      54.614   1.496  17.092  0.00  0.00    +0.000 A 
ATOM     13  N   UNL     1      55.271   0.456  16.519  0.00  0.00    +0.000 NA
ATOM     14  C   UNL     1      55.455  -0.619  17.315  0.00  0.00    +0.000 A 
ATOM     15  C   UNL     1      55.001  -0.653  18.624  0.00  0.00    +0.000 A 
ATOM     16  N   UNL     1      54.344   0.383  19.198  0.00  0.00    +0.000 NA
ENDBRANCH  10  11
ENDBRANCH   8  10
ENDBRANCH   5   8
ENDBRANCH   1   2
BRANCH   1  19
ATOM     17  C   UNL     1      46.858   4.235  14.494  0.00  0.00    +0.000 C 
ATOM     18  O   UNL     1      47.227   3.161  14.026  0.00  0.00    +0.000 OA
ATOM     19  N   UNL     1      46.831   4.447  15.848  0.00  0.00    +0.000 N 
ATOM     20  H   UNL     1      46.561   5.351  16.214  0.00  0.00    +0.000 HD
BRANCH  17  28
ATOM     21  C   UNL     1      44.000   4.866  12.688  0.00  0.00    +0.000 A 
ATOM     22  N   UNL     1      42.997   5.368  11.940  0.00  0.00    +0.000 NA
ATOM     23  C   UNL     1      43.180   6.560  11.367  0.00  0.00    +0.000 A 
ATOM     24  N   UNL     1      44.266   7.325  11.438  0.00  0.00    +0.000 NA
ATOM     25  C   UNL     1      45.237   6.791  12.200  0.00  0.00    +0.000 A 
ATOM     26  S   UNL     1      46.702   7.624  12.399  0.00  0.00    +0.000 S 
ATOM     27  C   UNL     1      47.316   6.404  13.412  0.00  0.00    +0.000 A 
ATOM     28  C   UNL     1      46.435   5.349  13.622  0.00  0.00    +0.000 A 
ATOM     29  C   UNL     1      45.197   5.577  12.879  0.00  0.00    +0.000 A 
BRANCH  21  31
ATOM     30  C   UNL     1      43.583   2.585  12.378  0.00  0.00    +0.000 C 
ATOM     31  O   UNL     1      43.801   3.648  13.300  0.00  0.00    +0.000 OA
ENDBRANCH  21  31
ENDBRANCH  17  28
ENDBRANCH   1  19
TORSDOF 7
ENDMDL
MODEL 6
REMARK VINA RESULT:    -6.605      2.565      3.473
REMARK INTER + INTRA:         -10.713
REMARK INTER:                 -10.039
REMARK INTRA:                  -0.674
REMARK UNBOUND:                -1.405
REMARK  Name = 
REMARK  8 active torsions:
REMARK  status: ('A' for Active; 'I' for Inactive)
REMARK    1  A    between atoms: C_1  and  O_2
REMARK    2  A    between atoms: O_2  and  C_3
REMARK    3  A    between atoms: C_10  and  C_11
REMARK    4  A    between atoms: N_13  and  C_14
REMARK    5  A    between atoms: C_14  and  C_15
REMARK    6  A    between atoms: C_18  and  N_19
REMARK    7  A    between atoms: N_19  and  C_20
REMARK    8  A    between atoms: C_20  and  C_21
REMARK                            x       y       z     vdW  Elec       q    Type
REMARK                         _______ _______ _______ _____ _____    ______ ____
ROOT
ATOM      1  C   UNL     1      47.069   4.252  14.724  0.00  0.00    +0.000 C 
ENDROOT
BRANCH   1   2
ATOM      2  C   UNL     1      46.470   4.523  13.363  0.00  0.00    +0.000 A 
ATOM      3  C   UNL     1      46.721   5.724  12.684  0.00  0.00    +0.000 A 
ATOM      4  C   UNL     1      46.191   5.954  11.400  0.00  0.00    +0.000 A 
ATOM      5  C   UNL     1      45.406   4.989  10.764  0.00  0.00    +0.000 A 
ATOM      6  C   UNL     1      45.089   3.832  11.485  0.00  0.00    +0.000 A 
ATOM      7  C   UNL     1      45.626   3.588  12.756  0.00  0.00    +0.000 A 
BRANCH   5   8
ATOM      8  N   UNL     1      44.828   5.137   9.499  0.00  0.00    +0.000 N 
ATOM      9  H   UNL     1      45.439   5.683   8.891  0.00  0.00    +0.000 HD
BRANCH   8  10
ATOM     10  C   UNL     1      44.329   3.952   8.796  0.00  0.00    +0.000 C 
BRANCH  10  11
ATOM     11  C   UNL     1      45.480   3.143   8.231  0.00  0.00    +0.000 A 
ATOM     12  C   UNL     1      46.457   3.758   7.449  0.00  0.00    +0.000 A 
ATOM     13  N   UNL     1      47.489   3.083   6.884  0.00  0.00    +0.000 NA
ATOM     14  C   UNL     1      47.517   1.757   7.133  0.00  0.00    +0.000 A 
ATOM     15  C   UNL     1      46.555   1.133   7.911  0.00  0.00    +0.000 A 
ATOM     16  N   UNL     1      45.521   1.804   8.474  0.00  0.00    +0.000 NA
ENDBRANCH  10  11
ENDBRANCH   8  10
ENDBRANCH   5   8
ENDBRANCH   1   2
BRANCH   1  19
ATOM     17  C   UNL     1      48.410   5.522  16.363  0.00  0.00    +0.000 C 
ATOM     18  O   UNL     1      49.043   4.519  16.680  0.00  0.00    +0.000 OA
ATOM     19  N   UNL     1      47.432   5.470  15.404  0.00  0.00    +0.000 N 
ATOM     20  H   UNL     1      46.894   6.298  15.184  0.00  0.00    +0.000 HD
BRANCH  17  28
ATOM     21  C   UNL     1      48.251   6.627  19.617  0.00  0.00    +0.000 A 
ATOM     22  N   UNL     1      48.308   7.294  20.786  0.00  0.00    +0.000 NA
ATOM     23  C   UNL     1      48.684   8.576  20.758  0.00  0.00    +0.000 A 
ATOM     24  N   UNL     1      49.005   9.292  19.685  0.00  0.00    +0.000 NA
ATOM     25  C   UNL     1      48.944   8.586  18.542  0.00  0.00    +0.000 A 
ATOM     26  S   UNL     1      49.314   9.341  17.068  0.00  0.00    +0.000 S 
ATOM     27  C   UNL     1      49.038   7.902  16.205  0.00  0.00    +0.000 A 
ATOM     28  C   UNL     1      48.666   6.828  17.004  0.00  0.00    +0.000 A 
ATOM     29  C   UNL     1      48.594   7.247  18.403  0.00  0.00    +0.000 A 
BRANCH  21  31
ATOM     30  C   UNL     1      48.731   4.505  20.478  0.00  0.00    +0.000 C 
ATOM     31  O   UNL     1      47.887   5.299  19.649  0.00  0.00    +0.000 OA
ENDBRANCH  21  31
ENDBRANCH  17  28
ENDBRANCH   1  19
TORSDOF 7
ENDMDL
MODEL 7
REMARK VINA RESULT:    -6.506      1.664      2.163
REMARK INTER + INTRA:         -10.573
REMARK INTER:                  -9.620
REMARK INTRA:                  -0.953
REMARK UNBOUND:                -1.405
REMARK  Name = 
REMARK  8 active torsions:
REMARK  status: ('A' for Active; 'I' for Inactive)
REMARK    1  A    between atoms: C_1  and  O_2
REMARK    2  A    between atoms: O_2  and  C_3
REMARK    3  A    between atoms: C_10  and  C_11
REMARK    4  A    between atoms: N_13  and  C_14
REMARK    5  A    between atoms: C_14  and  C_15
REMARK    6  A    between atoms: C_18  and  N_19
REMARK    7  A    between atoms: N_19  and  C_20
REMARK    8  A    between atoms: C_20  and  C_21
REMARK                            x       y       z     vdW  Elec       q    Type
REMARK                         _______ _______ _______ _____ _____    ______ ____
ROOT
ATOM      1  C   UNL     1      47.839   8.549  14.279  0.00  0.00    +0.000 C 
ENDROOT
BRANCH   1   2
ATOM      2  C   UNL     1      46.939   7.872  13.271  0.00  0.00    +0.000 A 
ATOM      3  C   UNL     1      47.159   6.545  12.874  0.00  0.00    +0.000 A 
ATOM      4  C   UNL     1      46.295   5.909  11.963  0.00  0.00    +0.000 A 
ATOM      5  C   UNL     1      45.190   6.580  11.433  0.00  0.00    +0.000 A 
ATOM      6  C   UNL     1      45.030   7.930  11.767  0.00  0.00    +0.000 A 
ATOM      7  C   UNL     1      45.875   8.566  12.685  0.00  0.00    +0.000 A 
BRANCH   5   8
ATOM      8  N   UNL     1      44.289   6.034  10.514  0.00  0.00    +0.000 N 
ATOM      9  H   UNL     1      44.550   6.294   9.563  0.00  0.00    +0.000 HD
BRANCH   8  10
ATOM     10  C   UNL     1      43.967   4.606  10.587  0.00  0.00    +0.000 C 
BRANCH  10  11
ATOM     11  C   UNL     1      44.744   3.831   9.539  0.00  0.00    +0.000 A 
ATOM     12  C   UNL     1      44.848   2.443   9.623  0.00  0.00    +0.000 A 
ATOM     13  N   UNL     1      45.558   1.697   8.740  0.00  0.00    +0.000 NA
ATOM     14  C   UNL     1      46.165   2.391   7.756  0.00  0.00    +0.000 A 
ATOM     15  C   UNL     1      46.069   3.770   7.659  0.00  0.00    +0.000 A 
ATOM     16  N   UNL     1      45.362   4.518   8.540  0.00  0.00    +0.000 NA
ENDBRANCH  10  11
ENDBRANCH   8  10
ENDBRANCH   5   8
ENDBRANCH   1   2
BRANCH   1  19
ATOM     17  C   UNL     1      49.044   7.564  16.197  0.00  0.00    +0.000 C 
ATOM     18  O   UNL     1      48.447   8.285  16.992  0.00  0.00    +0.000 OA
ATOM     19  N   UNL     1      48.791   7.630  14.851  0.00  0.00    +0.000 N 
ATOM     20  H   UNL     1      49.321   7.056  14.208  0.00  0.00    +0.000 HD
BRANCH  17  28
ATOM     21  C   UNL     1      48.928   4.237  17.062  0.00  0.00    +0.000 A 
ATOM     22  N   UNL     1      49.165   2.955  17.405  0.00  0.00    +0.000 NA
ATOM     23  C   UNL     1      50.420   2.610  17.705  0.00  0.00    +0.000 A 
ATOM     24  N   UNL     1      51.488   3.402  17.717  0.00  0.00    +0.000 NA
ATOM     25  C   UNL     1      51.209   4.668  17.359  0.00  0.00    +0.000 A 
ATOM     26  S   UNL     1      52.450   5.824  17.324  0.00  0.00    +0.000 S 
ATOM     27  C   UNL     1      51.374   7.037  16.809  0.00  0.00    +0.000 A 
ATOM     28  C   UNL     1      50.065   6.598  16.651  0.00  0.00    +0.000 A 
ATOM     29  C   UNL     1      49.967   5.182  16.999  0.00  0.00    +0.000 A 
BRANCH  21  31
ATOM     30  C   UNL     1      47.218   4.057  15.475  0.00  0.00    +0.000 C 
ATOM     31  O   UNL     1      47.639   4.588  16.728  0.00  0.00    +0.000 OA
ENDBRANCH  21  31
ENDBRANCH  17  28
ENDBRANCH   1  19
TORSDOF 7
ENDMDL
MODEL 8
REMARK VINA RESULT:    -6.273      2.054      3.103
REMARK INTER + INTRA:         -10.245
REMARK INTER:                  -9.284
REMARK INTRA:                  -0.961
REMARK UNBOUND:                -1.405
REMARK  Name = 
REMARK  8 active torsions:
REMARK  status: ('A' for Active; 'I' for Inactive)
REMARK    1  A    between atoms: C_1  and  O_2
REMARK    2  A    between atoms: O_2  and  C_3
REMARK    3  A    between atoms: C_10  and  C_11
REMARK    4  A    between atoms: N_13  and  C_14
REMARK    5  A    between atoms: C_14  and  C_15
REMARK    6  A    between atoms: C_18  and  N_19
REMARK    7  A    between atoms: N_19  and  C_20
REMARK    8  A    between atoms: C_20  and  C_21
REMARK                            x       y       z     vdW  Elec       q    Type
REMARK                         _______ _______ _______ _____ _____    ______ ____
ROOT
ATOM      1  C   UNL     1      48.841   7.343  12.421  0.00  0.00    +0.000 C 
ENDROOT
BRANCH   1   2
ATOM      2  C   UNL     1      47.415   6.866  12.563  0.00  0.00    +0.000 A 
ATOM      3  C   UNL     1      47.121   5.591  13.068  0.00  0.00    +0.000 A 
ATOM      4  C   UNL     1      45.789   5.167  13.235  0.00  0.00    +0.000 A 
ATOM      5  C   UNL     1      44.722   6.007  12.905  0.00  0.00    +0.000 A 
ATOM      6  C   UNL     1      45.025   7.242  12.320  0.00  0.00    +0.000 A 
ATOM      7  C   UNL     1      46.348   7.678  12.167  0.00  0.00    +0.000 A 
BRANCH   5   8
ATOM      8  N   UNL     1      43.371   5.666  13.023  0.00  0.00    +0.000 N 
ATOM      9  H   UNL     1      42.884   6.343  13.610  0.00  0.00    +0.000 HD
BRANCH   8  10
ATOM     10  C   UNL     1      42.594   5.382  11.813  0.00  0.00    +0.000 C 
BRANCH  10  11
ATOM     11  C   UNL     1      43.317   4.374  10.940  0.00  0.00    +0.000 A 
ATOM     12  C   UNL     1      43.914   4.775   9.746  0.00  0.00    +0.000 A 
ATOM     13  N   UNL     1      44.542   3.916   8.904  0.00  0.00    +0.000 NA
ATOM     14  C   UNL     1      44.557   2.627   9.301  0.00  0.00    +0.000 A 
ATOM     15  C   UNL     1      43.970   2.214  10.486  0.00  0.00    +0.000 A 
ATOM     16  N   UNL     1      43.341   3.069  11.328  0.00  0.00    +0.000 NA
ENDBRANCH  10  11
ENDBRANCH   8  10
ENDBRANCH   5   8
ENDBRANCH   1   2
BRANCH   1  19
ATOM     17  C   UNL     1      49.655   7.712  14.723  0.00  0.00    +0.000 C 
ATOM     18  O   UNL     1      48.955   8.713  14.851  0.00  0.00    +0.000 OA
ATOM     19  N   UNL     1      49.645   6.983  13.562  0.00  0.00    +0.000 N 
ATOM     20  H   UNL     1      50.258   6.184  13.461  0.00  0.00    +0.000 HD
BRANCH  17  28
ATOM     21  C   UNL     1      49.504   5.093  16.949  0.00  0.00    +0.000 A 
ATOM     22  N   UNL     1      49.709   4.147  17.886  0.00  0.00    +0.000 NA
ATOM     23  C   UNL     1      50.825   4.220  18.616  0.00  0.00    +0.000 A 
ATOM     24  N   UNL     1      51.777   5.145  18.534  0.00  0.00    +0.000 NA
ATOM     25  C   UNL     1      51.537   6.064  17.581  0.00  0.00    +0.000 A 
ATOM     26  S   UNL     1      52.642   7.329  17.337  0.00  0.00    +0.000 S 
ATOM     27  C   UNL     1      51.703   7.972  16.073  0.00  0.00    +0.000 A 
ATOM     28  C   UNL     1      50.545   7.251  15.808  0.00  0.00    +0.000 A 
ATOM     29  C   UNL     1      50.440   6.118  16.726  0.00  0.00    +0.000 A 
BRANCH  21  31
ATOM     30  C   UNL     1      47.347   4.204  16.773  0.00  0.00    +0.000 C 
ATOM     31  O   UNL     1      48.365   5.004  16.179  0.00  0.00    +0.000 OA
ENDBRANCH  21  31
ENDBRANCH  17  28
ENDBRANCH   1  19
TORSDOF 7
ENDMDL
MODEL 9
REMARK VINA RESULT:    -6.211      2.448      3.590
REMARK INTER + INTRA:         -10.158
REMARK INTER:                  -9.115
REMARK INTRA:                  -1.042
REMARK UNBOUND:                -1.405
REMARK  Name = 
REMARK  8 active torsions:
REMARK  status: ('A' for Active; 'I' for Inactive)
REMARK    1  A    between atoms: C_1  and  O_2
REMARK    2  A    between atoms: O_2  and  C_3
REMARK    3  A    between atoms: C_10  and  C_11
REMARK    4  A    between atoms: N_13  and  C_14
REMARK    5  A    between atoms: C_14  and  C_15
REMARK    6  A    between atoms: C_18  and  N_19
REMARK    7  A    between atoms: N_19  and  C_20
REMARK    8  A    between atoms: C_20  and  C_21
REMARK                            x       y       z     vdW  Elec       q    Type
REMARK                         _______ _______ _______ _____ _____    ______ ____
ROOT
ATOM      1  C   UNL     1      45.839   7.456  13.153  0.00  0.00    +0.000 C 
ENDROOT
BRANCH   1   2
ATOM      2  C   UNL     1      45.386   6.483  12.089  0.00  0.00    +0.000 A 
ATOM      3  C   UNL     1      46.083   6.353  10.879  0.00  0.00    +0.000 A 
ATOM      4  C   UNL     1      45.679   5.417   9.907  0.00  0.00    +0.000 A 
ATOM      5  C   UNL     1      44.575   4.589  10.125  0.00  0.00    +0.000 A 
ATOM      6  C   UNL     1      43.836   4.787  11.297  0.00  0.00    +0.000 A 
ATOM      7  C   UNL     1      44.241   5.703  12.275  0.00  0.00    +0.000 A 
BRANCH   5   8
ATOM      8  N   UNL     1      44.094   3.643   9.213  0.00  0.00    +0.000 N 
ATOM      9  H   UNL     1      44.045   4.047   8.277  0.00  0.00    +0.000 HD
BRANCH   8  10
ATOM     10  C   UNL     1      44.708   2.313   9.168  0.00  0.00    +0.000 C 
BRANCH  10  11
ATOM     11  C   UNL     1      45.708   2.226   8.031  0.00  0.00    +0.000 A 
ATOM     12  C   UNL     1      46.568   1.133   7.932  0.00  0.00    +0.000 A 
ATOM     13  N   UNL     1      47.510   1.014   6.963  0.00  0.00    +0.000 NA
ATOM     14  C   UNL     1      47.562   2.034   6.082  0.00  0.00    +0.000 A 
ATOM     15  C   UNL     1      46.713   3.126   6.167  0.00  0.00    +0.000 A 
ATOM     16  N   UNL     1      45.774   3.248   7.135  0.00  0.00    +0.000 NA
ENDBRANCH  10  11
ENDBRANCH   8  10
ENDBRANCH   5   8
ENDBRANCH   1   2
BRANCH   1  19
ATOM     17  C   UNL     1      47.934   8.730  12.863  0.00  0.00    +0.000 C 
ATOM     18  O   UNL     1      47.320   9.737  12.521  0.00  0.00    +0.000 OA
ATOM     19  N   UNL     1      47.275   7.575  13.197  0.00  0.00    +0.000 N 
ATOM     20  H   UNL     1      47.800   6.744  13.437  0.00  0.00    +0.000 HD
BRANCH  17  28
ATOM     21  C   UNL     1      50.190   7.660  15.229  0.00  0.00    +0.000 A 
ATOM     22  N   UNL     1      51.264   7.289  15.953  0.00  0.00    +0.000 NA
ATOM     23  C   UNL     1      52.475   7.502  15.430  0.00  0.00    +0.000 A 
ATOM     24  N   UNL     1      52.753   8.060  14.255  0.00  0.00    +0.000 NA
ATOM     25  C   UNL     1      51.653   8.405  13.563  0.00  0.00    +0.000 A 
ATOM     26  S   UNL     1      51.815   9.140  12.041  0.00  0.00    +0.000 S 
ATOM     27  C   UNL     1      50.127   9.232  11.851  0.00  0.00    +0.000 A 
ATOM     28  C   UNL     1      49.410   8.713  12.922  0.00  0.00    +0.000 A 
ATOM     29  C   UNL     1      50.328   8.234  13.954  0.00  0.00    +0.000 A 
BRANCH  21  31
ATOM     30  C   UNL     1      48.755   6.065  16.164  0.00  0.00    +0.000 C 
ATOM     31  O   UNL     1      48.941   7.418  15.758  0.00  0.00    +0.000 OA
ENDBRANCH  21  31
ENDBRANCH  17  28
ENDBRANCH   1  19
TORSDOF 7
ENDMDL
