MODEL 1
REMARK VINA RESULT:    -7.881      0.000      0.000
REMARK INTER + INTRA:         -11.325
REMARK INTER:                 -10.645
REMARK INTRA:                  -0.679
REMARK UNBOUND:                -0.679
REMARK  Name = 
REMARK  7 active torsions:
REMARK  status: ('A' for Active; 'I' for Inactive)
REMARK    1  A    between atoms: N_1  and  C_2
REMARK    2  A    between atoms: C_2  and  C_3
REMARK    3  A    between atoms: C_6  and  O_7
REMARK    4  A    between atoms: O_7  and  C_8
REMARK    5  A    between atoms: C_8  and  C_9
REMARK    6  A    between atoms: C_13  and  C_14
REMARK    7  A    between atoms: C_14  and  O_16
REMARK                            x       y       z     vdW  Elec       q    Type
REMARK                         _______ _______ _______ _____ _____    ______ ____
ROOT
ATOM      1  O   UNL     1      43.560   4.419   9.678  0.00  0.00    +0.000 OA
ENDROOT
BRANCH   1   5
ATOM      2  C   UNL     1      46.557   2.296   7.692  0.00  0.00    +0.000 A 
ATOM      3  C   UNL     1      46.414   3.684   7.556  0.00  0.00    +0.000 A 
ATOM      4  C   UNL     1      45.412   4.365   8.249  0.00  0.00    +0.000 A 
ATOM      5  C   UNL     1      44.532   3.667   9.076  0.00  0.00    +0.000 A 
ATOM      6  C   UNL     1      44.690   2.292   9.245  0.00  0.00    +0.000 A 
ATOM      7  C   UNL     1      45.690   1.609   8.549  0.00  0.00    +0.000 A 
BRANCH   2   8
ATOM      8  C   UNL     1      47.622   1.549   6.931  0.00  0.00    +0.000 C 
BRANCH   8   9
ATOM      9  N   UNL     1      48.599   2.460   6.350  0.00  0.00    +0.000 NA
ATOM     10  H   UNL     1      49.084   1.987   5.590  0.00  0.00    +0.000 HD
ATOM     11  H   UNL     1      49.305   2.676   7.053  0.00  0.00    +0.000 HD
ENDBRANCH   8   9
ENDBRANCH   2   8
ENDBRANCH   1   5
BRANCH   1  12
ATOM     12  C   UNL     1      43.356   4.141  11.066  0.00  0.00    +0.000 C 
BRANCH  12  13
ATOM     13  C   UNL     1      44.381   4.870  11.891  0.00  0.00    +0.000 A 
ATOM     14  C   UNL     1      44.631   6.220  11.659  0.00  0.00    +0.000 A 
ATOM     15  N   UNL     1      45.576   6.936  12.305  0.00  0.00    +0.000 NA
ATOM     16  C   UNL     1      46.319   6.276  13.230  0.00  0.00    +0.000 A 
ATOM     17  C   UNL     1      46.147   4.935  13.541  0.00  0.00    +0.000 A 
ATOM     18  C   UNL     1      45.180   4.217  12.838  0.00  0.00    +0.000 A 
BRANCH  17  19
ATOM     19  C   UNL     1      47.025   4.326  14.557  0.00  0.00    +0.000 C 
ATOM     20  O   UNL     1      47.413   3.172  14.481  0.00  0.00    +0.000 OA
BRANCH  19  21
ATOM     21  O   UNL     1      47.389   5.161  15.552  0.00  0.00    +0.000 OA
ATOM     22  H   UNL     1      47.026   6.065  15.507  0.00  0.00    +0.000 HD
ENDBRANCH  19  21
ENDBRANCH  17  19
ENDBRANCH  12  13
ENDBRANCH   1  12
TORSDOF 7
ENDMDL
MODEL 2
REMARK VINA RESULT:    -7.327      1.690      2.360
REMARK INTER + INTRA:         -10.576
REMARK INTER:                  -9.934
REMARK INTRA:                  -0.642
REMARK UNBOUND:                -0.679
REMARK  Name = 
REMARK  7 active torsions:
REMARK  status: ('A' for Active; 'I' for Inactive)
REMARK    1  A    between atoms: N_1  and  C_2
REMARK    2  A    between atoms: C_2  and  C_3
REMARK    3  A    between atoms: C_6  and  O_7
REMARK    4  A    between atoms: O_7  and  C_8
REMARK    5  A    between atoms: C_8  and  C_9
REMARK    6  A    between atoms: C_13  and  C_14
REMARK    7  A    between atoms: C_14  and  O_16
REMARK                            x       y       z     vdW  Elec       q    Type
REMARK                         _______ _______ _______ _____ _____    ______ ____
ROOT
ATOM      1  O   UNL     1      43.708   3.788  10.186  0.00  0.00    +0.000 OA
ENDROOT
BRANCH   1   5
ATOM      2  C   UNL     1      46.578   2.360   7.510  0.00  0.00    +0.000 A 
ATOM      3  C   UNL     1      45.914   1.514   8.409  0.00  0.00    +0.000 A 
ATOM      4  C   UNL     1      44.945   2.022   9.278  0.00  0.00    +0.000 A 
ATOM      5  C   UNL     1      44.639   3.382   9.269  0.00  0.00    +0.000 A 
ATOM      6  C   UNL     1      45.269   4.224   8.353  0.00  0.00    +0.000 A 
ATOM      7  C   UNL     1      46.240   3.718   7.486  0.00  0.00    +0.000 A 
BRANCH   2   8
ATOM      8  C   UNL     1      47.639   1.825   6.584  0.00  0.00    +0.000 C 
BRANCH   8   9
ATOM      9  N   UNL     1      48.250   2.890   5.802  0.00  0.00    +0.000 NA
ATOM     10  H   UNL     1      47.807   3.775   6.041  0.00  0.00    +0.000 HD
ATOM     11  H   UNL     1      48.054   2.728   4.815  0.00  0.00    +0.000 HD
ENDBRANCH   8   9
ENDBRANCH   2   8
ENDBRANCH   1   5
BRANCH   1  12
ATOM     12  C   UNL     1      43.876   5.125  10.664  0.00  0.00    +0.000 C 
BRANCH  12  13
ATOM     13  C   UNL     1      44.984   5.171  11.680  0.00  0.00    +0.000 A 
ATOM     14  C   UNL     1      44.903   4.397  12.835  0.00  0.00    +0.000 A 
ATOM     15  N   UNL     1      45.818   4.424  13.828  0.00  0.00    +0.000 NA
ATOM     16  C   UNL     1      46.868   5.269  13.672  0.00  0.00    +0.000 A 
ATOM     17  C   UNL     1      47.045   6.078  12.559  0.00  0.00    +0.000 A 
ATOM     18  C   UNL     1      46.070   6.046  11.562  0.00  0.00    +0.000 A 
BRANCH  17  19
ATOM     19  C   UNL     1      48.222   6.965  12.510  0.00  0.00    +0.000 C 
ATOM     20  O   UNL     1      48.159   8.116  12.109  0.00  0.00    +0.000 OA
BRANCH  19  21
ATOM     21  O   UNL     1      49.359   6.409  12.975  0.00  0.00    +0.000 OA
ATOM     22  H   UNL     1      50.060   6.251  12.316  0.00  0.00    +0.000 HD
ENDBRANCH  19  21
ENDBRANCH  17  19
ENDBRANCH  12  13
ENDBRANCH   1  12
TORSDOF 7
ENDMDL
MODEL 3
REMARK VINA RESULT:    -7.287      2.497      6.307
REMARK INTER + INTRA:         -10.522
REMARK INTER:                 -10.162
REMARK INTRA:                  -0.360
REMARK UNBOUND:                -0.679
REMARK  Name = 
REMARK  7 active torsions:
REMARK  status: ('A' for Active; 'I' for Inactive)
REMARK    1  A    between atoms: N_1  and  C_2
REMARK    2  A    between atoms: C_2  and  C_3
REMARK    3  A    between atoms: C_6  and  O_7
REMARK    4  A    between atoms: O_7  and  C_8
REMARK    5  A    between atoms: C_8  and  C_9
REMARK    6  A    between atoms: C_13  and  C_14
REMARK    7  A    between atoms: C_14  and  O_16
REMARK                            x       y       z     vdW  Elec       q    Type
REMARK                         _______ _______ _______ _____ _____    ______ ____
ROOT
ATOM      1  O   UNL     1      44.643   3.245  11.896  0.00  0.00    +0.000 OA
ENDROOT
BRANCH   1   5
ATOM      2  C   UNL     1      45.647   7.194  12.809  0.00  0.00    +0.000 A 
ATOM      3  C   UNL     1      44.406   6.852  12.252  0.00  0.00    +0.000 A 
ATOM      4  C   UNL     1      44.096   5.519  11.976  0.00  0.00    +0.000 A 
ATOM      5  C   UNL     1      45.026   4.513  12.240  0.00  0.00    +0.000 A 
ATOM      6  C   UNL     1      46.248   4.841  12.827  0.00  0.00    +0.000 A 
ATOM      7  C   UNL     1      46.559   6.175  13.100  0.00  0.00    +0.000 A 
BRANCH   2   8
ATOM      8  C   UNL     1      45.998   8.632  13.090  0.00  0.00    +0.000 C 
BRANCH   8   9
ATOM      9  N   UNL     1      46.858   8.752  14.259  0.00  0.00    +0.000 NA
ATOM     10  H   UNL     1      47.333   7.865  14.414  0.00  0.00    +0.000 HD
ATOM     11  H   UNL     1      46.276   8.914  15.080  0.00  0.00    +0.000 HD
ENDBRANCH   8   9
ENDBRANCH   2   8
ENDBRANCH   1   5
BRANCH   1  12
ATOM     12  C   UNL     1      43.918   3.147  10.667  0.00  0.00    +0.000 C 
BRANCH  12  13
ATOM     13  C   UNL     1      44.873   3.174   9.505  0.00  0.00    +0.000 A 
ATOM     14  C   UNL     1      45.081   4.358   8.802  0.00  0.00    +0.000 A 
ATOM     15  N   UNL     1      45.868   4.459   7.709  0.00  0.00    +0.000 NA
ATOM     16  C   UNL     1      46.478   3.323   7.285  0.00  0.00    +0.000 A 
ATOM     17  C   UNL     1      46.341   2.095   7.916  0.00  0.00    +0.000 A 
ATOM     18  C   UNL     1      45.501   2.018   9.028  0.00  0.00    +0.000 A 
BRANCH  17  19
ATOM     19  C   UNL     1      47.045   0.928   7.353  0.00  0.00    +0.000 C 
ATOM     20  O   UNL     1      47.910   1.035   6.499  0.00  0.00    +0.000 OA
BRANCH  19  21
ATOM     21  O   UNL     1      46.677  -0.255   7.885  0.00  0.00    +0.000 OA
ATOM     22  H   UNL     1      47.145  -1.041   7.547  0.00  0.00    +0.000 HD
ENDBRANCH  19  21
ENDBRANCH  17  19
ENDBRANCH  12  13
ENDBRANCH   1  12
TORSDOF 7
ENDMDL
MODEL 4
REMARK VINA RESULT:    -7.280      1.709      2.116
REMARK INTER + INTRA:         -10.513
REMARK INTER:                  -9.864
REMARK INTRA:                  -0.649
REMARK UNBOUND:                -0.679
REMARK  Name = 
REMARK  7 active torsions:
REMARK  status: ('A' for Active; 'I' for Inactive)
REMARK    1  A    between atoms: N_1  and  C_2
REMARK    2  A    between atoms: C_2  and  C_3
REMARK    3  A    between atoms: C_6  and  O_7
REMARK    4  A    between atoms: O_7  and  C_8
REMARK    5  A    between atoms: C_8  and  C_9
REMARK    6  A    between atoms: C_13  and  C_14
REMARK    7  A    between atoms: C_14  and  O_16
REMARK                            x       y       z     vdW  Elec       q    Type
REMARK                         _______ _______ _______ _____ _____    ______ ____
ROOT
ATOM      1  O   UNL     1      43.707   4.407   9.829  0.00  0.00    +0.000 OA
ENDROOT
BRANCH   1   5
ATOM      2  C   UNL     1      46.583   2.311   7.645  0.00  0.00    +0.000 A 
ATOM      3  C   UNL     1      46.470   3.707   7.578  0.00  0.00    +0.000 A 
ATOM      4  C   UNL     1      45.509   4.378   8.336  0.00  0.00    +0.000 A 
ATOM      5  C   UNL     1      44.640   3.662   9.160  0.00  0.00    +0.000 A 
ATOM      6  C   UNL     1      44.769   2.277   9.259  0.00  0.00    +0.000 A 
ATOM      7  C   UNL     1      45.728   1.605   8.498  0.00  0.00    +0.000 A 
BRANCH   2   8
ATOM      8  C   UNL     1      47.604   1.577   6.814  0.00  0.00    +0.000 C 
BRANCH   8   9
ATOM      9  N   UNL     1      48.644   2.476   6.332  0.00  0.00    +0.000 NA
ATOM     10  H   UNL     1      49.349   2.589   7.057  0.00  0.00    +0.000 HD
ATOM     11  H   UNL     1      48.237   3.398   6.179  0.00  0.00    +0.000 HD
ENDBRANCH   8   9
ENDBRANCH   2   8
ENDBRANCH   1   5
BRANCH   1  12
ATOM     12  C   UNL     1      43.538   4.064  11.207  0.00  0.00    +0.000 C 
BRANCH  12  13
ATOM     13  C   UNL     1      44.737   4.515  11.998  0.00  0.00    +0.000 A 
ATOM     14  C   UNL     1      45.375   3.629  12.861  0.00  0.00    +0.000 A 
ATOM     15  N   UNL     1      46.414   3.965  13.656  0.00  0.00    +0.000 NA
ATOM     16  C   UNL     1      46.842   5.252  13.595  0.00  0.00    +0.000 A 
ATOM     17  C   UNL     1      46.279   6.211  12.765  0.00  0.00    +0.000 A 
ATOM     18  C   UNL     1      45.191   5.839  11.975  0.00  0.00    +0.000 A 
BRANCH  17  19
ATOM     19  C   UNL     1      46.823   7.581  12.797  0.00  0.00    +0.000 C 
ATOM     20  O   UNL     1      47.457   8.056  11.869  0.00  0.00    +0.000 OA
BRANCH  19  21
ATOM     21  O   UNL     1      46.533   8.271  13.919  0.00  0.00    +0.000 OA
ATOM     22  H   UNL     1      46.625   9.239  13.862  0.00  0.00    +0.000 HD
ENDBRANCH  19  21
ENDBRANCH  17  19
ENDBRANCH  12  13
ENDBRANCH   1  12
TORSDOF 7
ENDMDL
MODEL 5
REMARK VINA RESULT:    -7.041      2.626      6.404
REMARK INTER + INTRA:         -10.190
REMARK INTER:                  -9.614
REMARK INTRA:                  -0.576
REMARK UNBOUND:                -0.679
REMARK  Name = 
REMARK  7 active torsions:
REMARK  status: ('A' for Active; 'I' for Inactive)
REMARK    1  A    between atoms: N_1  and  C_2
REMARK    2  A    between atoms: C_2  and  C_3
REMARK    3  A    between atoms: C_6  and  O_7
REMARK    4  A    between atoms: O_7  and  C_8
REMARK    5  A    between atoms: C_8  and  C_9
REMARK    6  A    between atoms: C_13  and  C_14
REMARK    7  A    between atoms: C_14  and  O_16
REMARK                            x       y       z     vdW  Elec       q    Type
REMARK                         _______ _______ _______ _____ _____    ______ ____
ROOT
ATOM      1  O   UNL     1      44.083   4.255  10.648  0.00  0.00    +0.000 OA
ENDROOT
BRANCH   1   5
ATOM      2  C   UNL     1      47.094   5.984  12.969  0.00  0.00    +0.000 A 
ATOM      3  C   UNL     1      46.453   4.796  13.348  0.00  0.00    +0.000 A 
ATOM      4  C   UNL     1      45.463   4.235  12.539  0.00  0.00    +0.000 A 
ATOM      5  C   UNL     1      45.091   4.861  11.348  0.00  0.00    +0.000 A 
ATOM      6  C   UNL     1      45.750   6.023  10.947  0.00  0.00    +0.000 A 
ATOM      7  C   UNL     1      46.738   6.586  11.757  0.00  0.00    +0.000 A 
BRANCH   2   8
ATOM      8  C   UNL     1      48.149   6.608  13.846  0.00  0.00    +0.000 C 
BRANCH   8   9
ATOM      9  N   UNL     1      49.424   6.717  13.150  0.00  0.00    +0.000 NA
ATOM     10  H   UNL     1      49.842   5.791  13.075  0.00  0.00    +0.000 HD
ATOM     11  H   UNL     1      50.060   7.276  13.717  0.00  0.00    +0.000 HD
ENDBRANCH   8   9
ENDBRANCH   2   8
ENDBRANCH   1   5
BRANCH   1  12
ATOM     12  C   UNL     1      44.150   4.423   9.229  0.00  0.00    +0.000 C 
BRANCH  12  13
ATOM     13  C   UNL     1      44.975   3.321   8.622  0.00  0.00    +0.000 A 
ATOM     14  C   UNL     1      44.913   2.033   9.147  0.00  0.00    +0.000 A 
ATOM     15  N   UNL     1      45.665   1.001   8.708  0.00  0.00    +0.000 NA
ATOM     16  C   UNL     1      46.530   1.259   7.695  0.00  0.00    +0.000 A 
ATOM     17  C   UNL     1      46.664   2.504   7.097  0.00  0.00    +0.000 A 
ATOM     18  C   UNL     1      45.893   3.557   7.591  0.00  0.00    +0.000 A 
BRANCH  17  19
ATOM     19  C   UNL     1      47.649   2.665   6.012  0.00  0.00    +0.000 C 
ATOM     20  O   UNL     1      47.321   2.889   4.858  0.00  0.00    +0.000 OA
BRANCH  19  21
ATOM     21  O   UNL     1      48.935   2.577   6.408  0.00  0.00    +0.000 OA
ATOM     22  H   UNL     1      49.462   3.394   6.337  0.00  0.00    +0.000 HD
ENDBRANCH  19  21
ENDBRANCH  17  19
ENDBRANCH  12  13
ENDBRANCH   1  12
TORSDOF 7
ENDMDL
MODEL 6
REMARK VINA RESULT:    -6.312      2.855      6.564
REMARK INTER + INTRA:          -9.205
REMARK INTER:                  -8.698
REMARK INTRA:                  -0.507
REMARK UNBOUND:                -0.679
REMARK  Name = 
REMARK  7 active torsions:
REMARK  status: ('A' for Active; 'I' for Inactive)
REMARK    1  A    between atoms: N_1  and  C_2
REMARK    2  A    between atoms: C_2  and  C_3
REMARK    3  A    between atoms: C_6  and  O_7
REMARK    4  A    between atoms: O_7  and  C_8
REMARK    5  A    between atoms: C_8  and  C_9
REMARK    6  A    between atoms: C_13  and  C_14
REMARK    7  A    between atoms: C_14  and  O_16
REMARK                            x       y       z     vdW  Elec       q    Type
REMARK                         _______ _______ _______ _____ _____    ______ ____
ROOT
ATOM      1  O   UNL     1      44.887   5.218  11.007  0.00  0.00    +0.000 OA
ENDROOT
BRANCH   1   5
ATOM      2  C   UNL     1      47.902   6.500  13.595  0.00  0.00    +0.000 A 
ATOM      3  C   UNL     1      47.636   7.153  12.383  0.00  0.00    +0.000 A 
ATOM      4  C   UNL     1      46.607   6.708  11.550  0.00  0.00    +0.000 A 
ATOM      5  C   UNL     1      45.842   5.599  11.910  0.00  0.00    +0.000 A 
ATOM      6  C   UNL     1      46.077   4.967  13.131  0.00  0.00    +0.000 A 
ATOM      7  C   UNL     1      47.108   5.409  13.963  0.00  0.00    +0.000 A 
BRANCH   2   8
ATOM      8  C   UNL     1      49.024   6.960  14.490  0.00  0.00    +0.000 C 
BRANCH   8   9
ATOM      9  N   UNL     1      50.232   7.245  13.727  0.00  0.00    +0.000 NA
ATOM     10  H   UNL     1      51.029   6.820  14.195  0.00  0.00    +0.000 HD
ATOM     11  H   UNL     1      50.395   8.251  13.734  0.00  0.00    +0.000 HD
ENDBRANCH   8   9
ENDBRANCH   2   8
ENDBRANCH   1   5
BRANCH   1  12
ATOM     12  C   UNL     1      45.247   5.402   9.635  0.00  0.00    +0.000 C 
BRANCH  12  13
ATOM     13  C   UNL     1      45.536   4.070   8.998  0.00  0.00    +0.000 A 
ATOM     14  C   UNL     1      45.105   2.896   9.611  0.00  0.00    +0.000 A 
ATOM     15  N   UNL     1      45.376   1.658   9.145  0.00  0.00    +0.000 NA
ATOM     16  C   UNL     1      46.118   1.577   8.012  0.00  0.00    +0.000 A 
ATOM     17  C   UNL     1      46.591   2.684   7.321  0.00  0.00    +0.000 A 
ATOM     18  C   UNL     1      46.317   3.949   7.842  0.00  0.00    +0.000 A 
BRANCH  17  19
ATOM     19  C   UNL     1      47.399   2.468   6.107  0.00  0.00    +0.000 C 
ATOM     20  O   UNL     1      47.102   2.954   5.028  0.00  0.00    +0.000 OA
BRANCH  19  21
ATOM     21  O   UNL     1      48.506   1.721   6.300  0.00  0.00    +0.000 OA
ATOM     22  H   UNL     1      48.624   0.967   5.693  0.00  0.00    +0.000 HD
ENDBRANCH  19  21
ENDBRANCH  17  19
ENDBRANCH  12  13
ENDBRANCH   1  12
TORSDOF 7
ENDMDL
MODEL 7
REMARK VINA RESULT:    -5.772      3.316      7.740
REMARK INTER + INTRA:          -8.475
REMARK INTER:                  -8.091
REMARK INTRA:                  -0.384
REMARK UNBOUND:                -0.679
REMARK  Name = 
REMARK  7 active torsions:
REMARK  status: ('A' for Active; 'I' for Inactive)
REMARK    1  A    between atoms: N_1  and  C_2
REMARK    2  A    between atoms: C_2  and  C_3
REMARK    3  A    between atoms: C_6  and  O_7
REMARK    4  A    between atoms: O_7  and  C_8
REMARK    5  A    between atoms: C_8  and  C_9
REMARK    6  A    between atoms: C_13  and  C_14
REMARK    7  A    between atoms: C_14  and  O_16
REMARK                            x       y       z     vdW  Elec       q    Type
REMARK                         _______ _______ _______ _____ _____    ______ ____
ROOT
ATOM      1  O   UNL     1      46.955   4.252  14.698  0.00  0.00    +0.000 OA
ENDROOT
BRANCH   1   5
ATOM      2  C   UNL     1      48.662   4.555  18.496  0.00  0.00    +0.000 A 
ATOM      3  C   UNL     1      47.964   3.412  18.084  0.00  0.00    +0.000 A 
ATOM      4  C   UNL     1      47.421   3.336  16.800  0.00  0.00    +0.000 A 
ATOM      5  C   UNL     1      47.557   4.407  15.916  0.00  0.00    +0.000 A 
ATOM      6  C   UNL     1      48.282   5.533  16.306  0.00  0.00    +0.000 A 
ATOM      7  C   UNL     1      48.822   5.611  17.592  0.00  0.00    +0.000 A 
BRANCH   2   8
ATOM      8  C   UNL     1      49.233   4.654  19.888  0.00  0.00    +0.000 C 
BRANCH   8   9
ATOM      9  N   UNL     1      48.485   3.832  20.829  0.00  0.00    +0.000 NA
ATOM     10  H   UNL     1      48.368   2.900  20.438  0.00  0.00    +0.000 HD
ATOM     11  H   UNL     1      47.548   4.221  20.932  0.00  0.00    +0.000 HD
ENDBRANCH   8   9
ENDBRANCH   2   8
ENDBRANCH   1   5
BRANCH   1  12
ATOM     12  C   UNL     1      46.973   5.415  13.865  0.00  0.00    +0.000 C 
BRANCH  12  13
ATOM     13  C   UNL     1      45.839   5.356  12.877  0.00  0.00    +0.000 A 
ATOM     14  C   UNL     1      45.153   6.517  12.534  0.00  0.00    +0.000 A 
ATOM     15  N   UNL     1      44.084   6.548  11.709  0.00  0.00    +0.000 NA
ATOM     16  C   UNL     1      43.669   5.361  11.199  0.00  0.00    +0.000 A 
ATOM     17  C   UNL     1      44.286   4.148  11.473  0.00  0.00    +0.000 A 
ATOM     18  C   UNL     1      45.371   4.147  12.350  0.00  0.00    +0.000 A 
BRANCH  17  19
ATOM     19  C   UNL     1      43.733   2.922  10.869  0.00  0.00    +0.000 C 
ATOM     20  O   UNL     1      43.990   2.582   9.725  0.00  0.00    +0.000 OA
BRANCH  19  21
ATOM     21  O   UNL     1      42.953   2.195  11.695  0.00  0.00    +0.000 OA
ATOM     22  H   UNL     1      43.172   1.248  11.768  0.00  0.00    +0.000 HD
ENDBRANCH  19  21
ENDBRANCH  17  19
ENDBRANCH  12  13
ENDBRANCH   1  12
TORSDOF 7
ENDMDL
MODEL 8
REMARK VINA RESULT:    -5.590      2.740      6.078
REMARK INTER + INTRA:          -8.230
REMARK INTER:                  -7.659
REMARK INTRA:                  -0.571
REMARK UNBOUND:                -0.679
REMARK  Name = 
REMARK  7 active torsions:
REMARK  status: ('A' for Active; 'I' for Inactive)
REMARK    1  A    between atoms: N_1  and  C_2
REMARK    2  A    between atoms: C_2  and  C_3
REMARK    3  A    between atoms: C_6  and  O_7
REMARK    4  A    between atoms: O_7  and  C_8
REMARK    5  A    between atoms: C_8  and  C_9
REMARK    6  A    between atoms: C_13  and  C_14
REMARK    7  A    between atoms: C_14  and  O_16
REMARK                            x       y       z     vdW  Elec       q    Type
REMARK                         _______ _______ _______ _____ _____    ______ ____
ROOT
ATOM      1  O   UNL     1      45.648   5.574  13.528  0.00  0.00    +0.000 OA
ENDROOT
BRANCH   1   5
ATOM      2  C   UNL     1      48.211   8.524  12.056  0.00  0.00    +0.000 A 
ATOM      3  C   UNL     1      46.855   8.776  12.310  0.00  0.00    +0.000 A 
ATOM      4  C   UNL     1      46.030   7.771  12.820  0.00  0.00    +0.000 A 
ATOM      5  C   UNL     1      46.546   6.499  13.070  0.00  0.00    +0.000 A 
ATOM      6  C   UNL     1      47.901   6.251  12.853  0.00  0.00    +0.000 A 
ATOM      7  C   UNL     1      48.725   7.255  12.340  0.00  0.00    +0.000 A 
BRANCH   2   8
ATOM      8  C   UNL     1      49.103   9.596  11.486  0.00  0.00    +0.000 C 
BRANCH   8   9
ATOM      9  N   UNL     1      50.484   9.423  11.915  0.00  0.00    +0.000 NA
ATOM     10  H   UNL     1      50.793   8.484  11.670  0.00  0.00    +0.000 HD
ATOM     11  H   UNL     1      50.523   9.483  12.931  0.00  0.00    +0.000 HD
ENDBRANCH   8   9
ENDBRANCH   2   8
ENDBRANCH   1   5
BRANCH   1  12
ATOM     12  C   UNL     1      44.355   5.636  12.921  0.00  0.00    +0.000 C 
BRANCH  12  13
ATOM     13  C   UNL     1      44.276   4.658  11.780  0.00  0.00    +0.000 A 
ATOM     14  C   UNL     1      43.585   3.460  11.936  0.00  0.00    +0.000 A 
ATOM     15  N   UNL     1      43.518   2.498  10.991  0.00  0.00    +0.000 NA
ATOM     16  C   UNL     1      44.176   2.734   9.828  0.00  0.00    +0.000 A 
ATOM     17  C   UNL     1      44.889   3.896   9.569  0.00  0.00    +0.000 A 
ATOM     18  C   UNL     1      44.961   4.860  10.576  0.00  0.00    +0.000 A 
BRANCH  17  19
ATOM     19  C   UNL     1      45.574   4.031   8.271  0.00  0.00    +0.000 C 
ATOM     20  O   UNL     1      45.408   3.240   7.357  0.00  0.00    +0.000 OA
BRANCH  19  21
ATOM     21  O   UNL     1      46.368   5.117   8.169  0.00  0.00    +0.000 OA
ATOM     22  H   UNL     1      47.159   5.124   8.738  0.00  0.00    +0.000 HD
ENDBRANCH  19  21
ENDBRANCH  17  19
ENDBRANCH  12  13
ENDBRANCH   1  12
TORSDOF 7
ENDMDL
MODEL 9
REMARK VINA RESULT:    -5.443      2.648      4.080
REMARK INTER + INTRA:          -8.031
REMARK INTER:                  -7.511
REMARK INTRA:                  -0.520
REMARK UNBOUND:                -0.679
REMARK  Name = 
REMARK  7 active torsions:
REMARK  status: ('A' for Active; 'I' for Inactive)
REMARK    1  A    between atoms: N_1  and  C_2
REMARK    2  A    between atoms: C_2  and  C_3
REMARK    3  A    between atoms: C_6  and  O_7
REMARK    4  A    between atoms: O_7  and  C_8
REMARK    5  A    between atoms: C_8  and  C_9
REMARK    6  A    between atoms: C_13  and  C_14
REMARK    7  A    between atoms: C_14  and  O_16
REMARK                            x       y       z     vdW  Elec       q    Type
REMARK                         _______ _______ _______ _____ _____    ______ ____
ROOT
ATOM      1  O   UNL     1      45.917   5.901  13.396  0.00  0.00    +0.000 OA
ENDROOT
BRANCH   1   5
ATOM      2  C   UNL     1      44.915   3.461  10.160  0.00  0.00    +0.000 A 
ATOM      3  C   UNL     1      45.253   4.812   9.996  0.00  0.00    +0.000 A 
ATOM      4  C   UNL     1      45.601   5.595  11.098  0.00  0.00    +0.000 A 
ATOM      5  C   UNL     1      45.603   5.042  12.379  0.00  0.00    +0.000 A 
ATOM      6  C   UNL     1      45.304   3.690  12.546  0.00  0.00    +0.000 A 
ATOM      7  C   UNL     1      44.953   2.907  11.444  0.00  0.00    +0.000 A 
BRANCH   2   8
ATOM      8  C   UNL     1      44.518   2.614   8.978  0.00  0.00    +0.000 C 
BRANCH   8   9
ATOM      9  N   UNL     1      45.611   1.751   8.550  0.00  0.00    +0.000 NA
ATOM     10  H   UNL     1      45.424   0.799   8.859  0.00  0.00    +0.000 HD
ATOM     11  H   UNL     1      46.465   2.044   9.022  0.00  0.00    +0.000 HD
ENDBRANCH   8   9
ENDBRANCH   2   8
ENDBRANCH   1   5
BRANCH   1  12
ATOM     12  C   UNL     1      47.284   6.320  13.430  0.00  0.00    +0.000 C 
BRANCH  12  13
ATOM     13  C   UNL     1      47.897   5.964  14.758  0.00  0.00    +0.000 A 
ATOM     14  C   UNL     1      48.996   6.674  15.231  0.00  0.00    +0.000 A 
ATOM     15  N   UNL     1      49.648   6.382  16.378  0.00  0.00    +0.000 NA
ATOM     16  C   UNL     1      49.188   5.325  17.092  0.00  0.00    +0.000 A 
ATOM     17  C   UNL     1      48.097   4.555  16.712  0.00  0.00    +0.000 A 
ATOM     18  C   UNL     1      47.461   4.867  15.510  0.00  0.00    +0.000 A 
BRANCH  17  19
ATOM     19  C   UNL     1      47.699   3.422  17.567  0.00  0.00    +0.000 C 
ATOM     20  O   UNL     1      48.468   2.893  18.353  0.00  0.00    +0.000 OA
BRANCH  19  21
ATOM     21  O   UNL     1      46.411   3.046  17.431  0.00  0.00    +0.000 OA
ATOM     22  H   UNL     1      46.151   2.230  17.898  0.00  0.00    +0.000 HD
ENDBRANCH  19  21
ENDBRANCH  17  19
ENDBRANCH  12  13
ENDBRANCH   1  12
TORSDOF 7
ENDMDL
