MODEL 1
REMARK VINA RESULT:    -7.993      0.000      0.000
REMARK INTER + INTRA:         -10.353
REMARK INTER:                  -9.862
REMARK INTRA:                  -0.491
REMARK UNBOUND:                -0.491
REMARK  Name = 
REMARK  4 active torsions:
REMARK  status: ('A' for Active; 'I' for Inactive)
REMARK    1  A    between atoms: C_2  and  C_4
REMARK    2  A    between atoms: N_8  and  C_9
REMARK    3  A    between atoms: C_9  and  C_10
REMARK    4  A    between atoms: C_10  and  C_11
REMARK                            x       y       z     vdW  Elec       q    Type
REMARK                         _______ _______ _______ _____ _____    ______ ____
ROOT
ATOM      1  C   UNL     1      46.218   2.116   7.980  0.00  0.00    +0.000 A 
ATOM      2  C   UNL     1      46.306   3.463   7.644  0.00  0.00    +0.000 A 
ATOM      3  C   UNL     1      45.469   4.376   8.285  0.00  0.00    +0.000 A 
ATOM      4  C   UNL     1      44.582   3.937   9.268  0.00  0.00    +0.000 A 
ATOM      5  N   UNL     1      43.835   4.909   9.946  0.00  0.00    +0.000 N 
ATOM      6  N   UNL     1      44.476   2.632   9.583  0.00  0.00    +0.000 NA
ATOM      7  C   UNL     1      45.271   1.748   8.924  0.00  0.00    +0.000 A 
ATOM      8  H   UNL     1      43.272   5.431   9.282  0.00  0.00    +0.000 HD
ENDROOT
BRANCH   1  10
ATOM      9  N   UNL     1      46.780  -0.227   7.669  0.00  0.00    +0.000 N 
ATOM     10  C   UNL     1      47.085   1.075   7.383  0.00  0.00    +0.000 C 
ATOM     11  O   UNL     1      48.006   1.366   6.633  0.00  0.00    +0.000 OA
ATOM     12  H   UNL     1      47.304  -0.929   7.160  0.00  0.00    +0.000 HD
ATOM     13  H   UNL     1      45.893  -0.503   8.057  0.00  0.00    +0.000 HD
ENDBRANCH   1  10
BRANCH   5  14
ATOM     14  C   UNL     1      43.088   4.440  11.115  0.00  0.00    +0.000 C 
BRANCH  14  15
ATOM     15  C   UNL     1      43.253   5.444  12.263  0.00  0.00    +0.000 C 
BRANCH  15  16
ATOM     16  C   UNL     1      44.692   5.620  12.680  0.00  0.00    +0.000 A 
ATOM     17  C   UNL     1      45.393   4.547  13.248  0.00  0.00    +0.000 A 
ATOM     18  C   UNL     1      46.722   4.699  13.641  0.00  0.00    +0.000 A 
ATOM     19  C   UNL     1      47.363   5.926  13.475  0.00  0.00    +0.000 A 
ATOM     20  C   UNL     1      46.672   7.002  12.921  0.00  0.00    +0.000 A 
ATOM     21  C   UNL     1      45.340   6.852  12.528  0.00  0.00    +0.000 A 
ENDBRANCH  15  16
ENDBRANCH  14  15
ENDBRANCH   5  14
TORSDOF 4
ENDMDL
MODEL 2
REMARK VINA RESULT:    -7.523      1.332      1.961
REMARK INTER + INTRA:          -9.773
REMARK INTER:                  -9.220
REMARK INTRA:                  -0.553
REMARK UNBOUND:                -0.491
REMARK  Name = 
REMARK  4 active torsions:
REMARK  status: ('A' for Active; 'I' for Inactive)
REMARK    1  A    between atoms: C_2  and  C_4
REMARK    2  A    between atoms: N_8  and  C_9
REMARK    3  A    between atoms: C_9  and  C_10
REMARK    4  A    between atoms: C_10  and  C_11
REMARK                            x       y       z     vdW  Elec       q    Type
REMARK                         _______ _______ _______ _____ _____    ______ ____
ROOT
ATOM      1  C   UNL     1      46.376   2.653   7.599  0.00  0.00    +0.000 A 
ATOM      2  C   UNL     1      45.777   1.644   8.348  0.00  0.00    +0.000 A 
ATOM      3  C   UNL     1      44.921   1.995   9.392  0.00  0.00    +0.000 A 
ATOM      4  C   UNL     1      44.655   3.340   9.653  0.00  0.00    +0.000 A 
ATOM      5  N   UNL     1      43.715   3.631  10.650  0.00  0.00    +0.000 N 
ATOM      6  N   UNL     1      45.249   4.321   8.947  0.00  0.00    +0.000 NA
ATOM      7  C   UNL     1      46.110   3.966   7.957  0.00  0.00    +0.000 A 
ATOM      8  H   UNL     1      44.020   3.236  11.534  0.00  0.00    +0.000 HD
ENDROOT
BRANCH   1  10
ATOM      9  N   UNL     1      47.210   3.256   5.399  0.00  0.00    +0.000 N 
ATOM     10  C   UNL     1      47.271   2.384   6.451  0.00  0.00    +0.000 C 
ATOM     11  O   UNL     1      48.060   1.449   6.462  0.00  0.00    +0.000 OA
ATOM     12  H   UNL     1      47.909   3.130   4.677  0.00  0.00    +0.000 HD
ATOM     13  H   UNL     1      46.775   4.161   5.470  0.00  0.00    +0.000 HD
ENDBRANCH   1  10
BRANCH   5  14
ATOM     14  C   UNL     1      43.295   5.030  10.742  0.00  0.00    +0.000 C 
BRANCH  14  15
ATOM     15  C   UNL     1      43.558   5.550  12.161  0.00  0.00    +0.000 C 
BRANCH  15  16
ATOM     16  C   UNL     1      45.027   5.732  12.451  0.00  0.00    +0.000 A 
ATOM     17  C   UNL     1      45.784   6.640  11.697  0.00  0.00    +0.000 A 
ATOM     18  C   UNL     1      47.143   6.813  11.954  0.00  0.00    +0.000 A 
ATOM     19  C   UNL     1      47.761   6.078  12.965  0.00  0.00    +0.000 A 
ATOM     20  C   UNL     1      47.021   5.166  13.713  0.00  0.00    +0.000 A 
ATOM     21  C   UNL     1      45.660   4.990  13.457  0.00  0.00    +0.000 A 
ENDBRANCH  15  16
ENDBRANCH  14  15
ENDBRANCH   5  14
TORSDOF 4
ENDMDL
MODEL 3
REMARK VINA RESULT:    -7.300      2.870      6.480
REMARK INTER + INTRA:          -9.498
REMARK INTER:                  -9.131
REMARK INTRA:                  -0.368
REMARK UNBOUND:                -0.491
REMARK  Name = 
REMARK  4 active torsions:
REMARK  status: ('A' for Active; 'I' for Inactive)
REMARK    1  A    between atoms: C_2  and  C_4
REMARK    2  A    between atoms: N_8  and  C_9
REMARK    3  A    between atoms: C_9  and  C_10
REMARK    4  A    between atoms: C_10  and  C_11
REMARK                            x       y       z     vdW  Elec       q    Type
REMARK                         _______ _______ _______ _____ _____    ______ ____
ROOT
ATOM      1  C   UNL     1      46.649   6.672  12.916  0.00  0.00    +0.000 A 
ATOM      2  C   UNL     1      46.595   5.509  13.680  0.00  0.00    +0.000 A 
ATOM      3  C   UNL     1      45.871   4.418  13.199  0.00  0.00    +0.000 A 
ATOM      4  C   UNL     1      45.241   4.493  11.956  0.00  0.00    +0.000 A 
ATOM      5  N   UNL     1      44.610   3.335  11.480  0.00  0.00    +0.000 N 
ATOM      6  N   UNL     1      45.271   5.622  11.222  0.00  0.00    +0.000 NA
ATOM      7  C   UNL     1      45.948   6.690  11.719  0.00  0.00    +0.000 A 
ATOM      8  H   UNL     1      43.891   3.045  12.135  0.00  0.00    +0.000 HD
ENDROOT
BRANCH   1  10
ATOM      9  N   UNL     1      46.770   8.787  14.104  0.00  0.00    +0.000 N 
ATOM     10  C   UNL     1      47.417   7.870  13.322  0.00  0.00    +0.000 C 
ATOM     11  O   UNL     1      48.591   8.013  13.009  0.00  0.00    +0.000 OA
ATOM     12  H   UNL     1      47.340   9.538  14.472  0.00  0.00    +0.000 HD
ATOM     13  H   UNL     1      45.912   8.578  14.587  0.00  0.00    +0.000 HD
ENDBRANCH   1  10
BRANCH   5  14
ATOM     14  C   UNL     1      44.159   3.381  10.089  0.00  0.00    +0.000 C 
BRANCH  14  15
ATOM     15  C   UNL     1      44.527   2.066   9.389  0.00  0.00    +0.000 C 
BRANCH  15  16
ATOM     16  C   UNL     1      45.587   2.247   8.332  0.00  0.00    +0.000 A 
ATOM     17  C   UNL     1      46.451   1.189   8.017  0.00  0.00    +0.000 A 
ATOM     18  C   UNL     1      47.438   1.347   7.043  0.00  0.00    +0.000 A 
ATOM     19  C   UNL     1      47.573   2.565   6.379  0.00  0.00    +0.000 A 
ATOM     20  C   UNL     1      46.726   3.626   6.692  0.00  0.00    +0.000 A 
ATOM     21  C   UNL     1      45.739   3.471   7.667  0.00  0.00    +0.000 A 
ENDBRANCH  15  16
ENDBRANCH  14  15
ENDBRANCH   5  14
TORSDOF 4
ENDMDL
MODEL 4
REMARK VINA RESULT:    -7.222      3.208      6.516
REMARK INTER + INTRA:          -9.401
REMARK INTER:                  -9.067
REMARK INTRA:                  -0.335
REMARK UNBOUND:                -0.491
REMARK  Name = 
REMARK  4 active torsions:
REMARK  status: ('A' for Active; 'I' for Inactive)
REMARK    1  A    between atoms: C_2  and  C_4
REMARK    2  A    between atoms: N_8  and  C_9
REMARK    3  A    between atoms: C_9  and  C_10
REMARK    4  A    between atoms: C_10  and  C_11
REMARK                            x       y       z     vdW  Elec       q    Type
REMARK                         _______ _______ _______ _____ _____    ______ ____
ROOT
ATOM      1  C   UNL     1      46.796   4.775  14.251  0.00  0.00    +0.000 A 
ATOM      2  C   UNL     1      46.747   6.017  13.625  0.00  0.00    +0.000 A 
ATOM      3  C   UNL     1      46.214   6.105  12.338  0.00  0.00    +0.000 A 
ATOM      4  C   UNL     1      45.713   4.963  11.712  0.00  0.00    +0.000 A 
ATOM      5  N   UNL     1      45.103   5.127  10.461  0.00  0.00    +0.000 N 
ATOM      6  N   UNL     1      45.777   3.755  12.303  0.00  0.00    +0.000 NA
ATOM      7  C   UNL     1      46.333   3.677  13.541  0.00  0.00    +0.000 A 
ATOM      8  H   UNL     1      45.767   5.530   9.808  0.00  0.00    +0.000 HD
ENDROOT
BRANCH   1  10
ATOM      9  N   UNL     1      48.037   5.608  16.166  0.00  0.00    +0.000 N 
ATOM     10  C   UNL     1      47.310   4.583  15.625  0.00  0.00    +0.000 C 
ATOM     11  O   UNL     1      47.059   3.571  16.265  0.00  0.00    +0.000 OA
ATOM     12  H   UNL     1      48.279   5.514  17.144  0.00  0.00    +0.000 HD
ATOM     13  H   UNL     1      48.037   6.537  15.776  0.00  0.00    +0.000 HD
ENDBRANCH   1  10
BRANCH   5  14
ATOM     14  C   UNL     1      44.394   3.958   9.940  0.00  0.00    +0.000 C 
BRANCH  14  15
ATOM     15  C   UNL     1      44.473   3.955   8.408  0.00  0.00    +0.000 C 
BRANCH  15  16
ATOM     16  C   UNL     1      45.567   3.058   7.884  0.00  0.00    +0.000 A 
ATOM     17  C   UNL     1      46.434   3.521   6.884  0.00  0.00    +0.000 A 
ATOM     18  C   UNL     1      47.446   2.699   6.390  0.00  0.00    +0.000 A 
ATOM     19  C   UNL     1      47.599   1.405   6.886  0.00  0.00    +0.000 A 
ATOM     20  C   UNL     1      46.736   0.932   7.872  0.00  0.00    +0.000 A 
ATOM     21  C   UNL     1      45.721   1.753   8.367  0.00  0.00    +0.000 A 
ENDBRANCH  15  16
ENDBRANCH  14  15
ENDBRANCH   5  14
TORSDOF 4
ENDMDL
MODEL 5
REMARK VINA RESULT:    -6.039      3.142      5.973
REMARK INTER + INTRA:          -7.942
REMARK INTER:                  -7.426
REMARK INTRA:                  -0.516
REMARK UNBOUND:                -0.491
REMARK  Name = 
REMARK  4 active torsions:
REMARK  status: ('A' for Active; 'I' for Inactive)
REMARK    1  A    between atoms: C_2  and  C_4
REMARK    2  A    between atoms: N_8  and  C_9
REMARK    3  A    between atoms: C_9  and  C_10
REMARK    4  A    between atoms: C_10  and  C_11
REMARK                            x       y       z     vdW  Elec       q    Type
REMARK                         _______ _______ _______ _____ _____    ______ ____
ROOT
ATOM      1  C   UNL     1      48.529   6.993  12.485  0.00  0.00    +0.000 A 
ATOM      2  C   UNL     1      48.139   6.108  13.486  0.00  0.00    +0.000 A 
ATOM      3  C   UNL     1      46.833   5.617  13.483  0.00  0.00    +0.000 A 
ATOM      4  C   UNL     1      45.951   5.992  12.470  0.00  0.00    +0.000 A 
ATOM      5  N   UNL     1      44.683   5.393  12.464  0.00  0.00    +0.000 N 
ATOM      6  N   UNL     1      46.314   6.864  11.511  0.00  0.00    +0.000 NA
ATOM      7  C   UNL     1      47.578   7.364  11.546  0.00  0.00    +0.000 A 
ATOM      8  H   UNL     1      44.204   5.598  13.335  0.00  0.00    +0.000 HD
ENDROOT
BRANCH   1  10
ATOM      9  N   UNL     1      50.560   7.792  13.552  0.00  0.00    +0.000 N 
ATOM     10  C   UNL     1      49.899   7.542  12.380  0.00  0.00    +0.000 C 
ATOM     11  O   UNL     1      50.434   7.724  11.295  0.00  0.00    +0.000 OA
ATOM     12  H   UNL     1      51.534   8.053  13.467  0.00  0.00    +0.000 HD
ATOM     13  H   UNL     1      50.257   7.415  14.436  0.00  0.00    +0.000 HD
ENDBRANCH   1  10
BRANCH   5  14
ATOM     14  C   UNL     1      43.870   5.635  11.271  0.00  0.00    +0.000 C 
BRANCH  14  15
ATOM     15  C   UNL     1      43.403   4.293  10.692  0.00  0.00    +0.000 C 
BRANCH  15  16
ATOM     16  C   UNL     1      44.371   3.725   9.684  0.00  0.00    +0.000 A 
ATOM     17  C   UNL     1      44.518   2.337   9.558  0.00  0.00    +0.000 A 
ATOM     18  C   UNL     1      45.414   1.802   8.632  0.00  0.00    +0.000 A 
ATOM     19  C   UNL     1      46.175   2.648   7.828  0.00  0.00    +0.000 A 
ATOM     20  C   UNL     1      46.044   4.030   7.953  0.00  0.00    +0.000 A 
ATOM     21  C   UNL     1      45.149   4.568   8.880  0.00  0.00    +0.000 A 
ENDBRANCH  15  16
ENDBRANCH  14  15
ENDBRANCH   5  14
TORSDOF 4
ENDMDL
MODEL 6
REMARK VINA RESULT:    -5.845      4.828      7.533
REMARK INTER + INTRA:          -7.702
REMARK INTER:                  -7.446
REMARK INTRA:                  -0.256
REMARK UNBOUND:                -0.491
REMARK  Name = 
REMARK  4 active torsions:
REMARK  status: ('A' for Active; 'I' for Inactive)
REMARK    1  A    between atoms: C_2  and  C_4
REMARK    2  A    between atoms: N_8  and  C_9
REMARK    3  A    between atoms: C_9  and  C_10
REMARK    4  A    between atoms: C_10  and  C_11
REMARK                            x       y       z     vdW  Elec       q    Type
REMARK                         _______ _______ _______ _____ _____    ______ ____
ROOT
ATOM      1  C   UNL     1      48.047   4.762  17.206  0.00  0.00    +0.000 A 
ATOM      2  C   UNL     1      48.549   5.808  16.436  0.00  0.00    +0.000 A 
ATOM      3  C   UNL     1      48.143   5.922  15.105  0.00  0.00    +0.000 A 
ATOM      4  C   UNL     1      47.226   5.013  14.577  0.00  0.00    +0.000 A 
ATOM      5  N   UNL     1      46.782   5.233  13.266  0.00  0.00    +0.000 N 
ATOM      6  N   UNL     1      46.754   3.987  15.309  0.00  0.00    +0.000 NA
ATOM      7  C   UNL     1      47.186   3.865  16.593  0.00  0.00    +0.000 A 
ATOM      8  H   UNL     1      47.574   5.225  12.631  0.00  0.00    +0.000 HD
ENDROOT
BRANCH   1  10
ATOM      9  N   UNL     1      48.465   3.288  19.091  0.00  0.00    +0.000 N 
ATOM     10  C   UNL     1      48.389   4.575  18.634  0.00  0.00    +0.000 C 
ATOM     11  O   UNL     1      48.634   5.527  19.362  0.00  0.00    +0.000 OA
ATOM     12  H   UNL     1      48.815   3.171  20.034  0.00  0.00    +0.000 HD
ATOM     13  H   UNL     1      48.528   2.496  18.472  0.00  0.00    +0.000 HD
ENDBRANCH   1  10
BRANCH   5  14
ATOM     14  C   UNL     1      45.661   4.401  12.824  0.00  0.00    +0.000 C 
BRANCH  14  15
ATOM     15  C   UNL     1      44.943   5.090  11.657  0.00  0.00    +0.000 C 
BRANCH  15  16
ATOM     16  C   UNL     1      45.071   4.326  10.363  0.00  0.00    +0.000 A 
ATOM     17  C   UNL     1      44.628   2.998  10.286  0.00  0.00    +0.000 A 
ATOM     18  C   UNL     1      44.746   2.281   9.095  0.00  0.00    +0.000 A 
ATOM     19  C   UNL     1      45.311   2.882   7.972  0.00  0.00    +0.000 A 
ATOM     20  C   UNL     1      45.764   4.198   8.041  0.00  0.00    +0.000 A 
ATOM     21  C   UNL     1      45.649   4.917   9.232  0.00  0.00    +0.000 A 
ENDBRANCH  15  16
ENDBRANCH  14  15
ENDBRANCH   5  14
TORSDOF 4
ENDMDL
MODEL 7
REMARK VINA RESULT:    -5.724      5.489      8.048
REMARK INTER + INTRA:          -7.553
REMARK INTER:                  -7.299
REMARK INTRA:                  -0.254
REMARK UNBOUND:                -0.491
REMARK  Name = 
REMARK  4 active torsions:
REMARK  status: ('A' for Active; 'I' for Inactive)
REMARK    1  A    between atoms: C_2  and  C_4
REMARK    2  A    between atoms: N_8  and  C_9
REMARK    3  A    between atoms: C_9  and  C_10
REMARK    4  A    between atoms: C_10  and  C_11
REMARK                            x       y       z     vdW  Elec       q    Type
REMARK                         _______ _______ _______ _____ _____    ______ ____
ROOT
ATOM      1  C   UNL     1      49.358   4.479  17.794  0.00  0.00    +0.000 A 
ATOM      2  C   UNL     1      48.525   3.365  17.765  0.00  0.00    +0.000 A 
ATOM      3  C   UNL     1      47.561   3.268  16.761  0.00  0.00    +0.000 A 
ATOM      4  C   UNL     1      47.464   4.265  15.790  0.00  0.00    +0.000 A 
ATOM      5  N   UNL     1      46.543   4.069  14.752  0.00  0.00    +0.000 N 
ATOM      6  N   UNL     1      48.252   5.357  15.825  0.00  0.00    +0.000 NA
ATOM      7  C   UNL     1      49.162   5.457  16.830  0.00  0.00    +0.000 A 
ATOM      8  H   UNL     1      45.609   3.970  15.138  0.00  0.00    +0.000 HD
ENDROOT
BRANCH   1  10
ATOM      9  N   UNL     1      51.382   3.675  18.871  0.00  0.00    +0.000 N 
ATOM     10  C   UNL     1      50.433   4.658  18.796  0.00  0.00    +0.000 C 
ATOM     11  O   UNL     1      50.494   5.659  19.496  0.00  0.00    +0.000 OA
ATOM     12  H   UNL     1      52.174   3.867  19.473  0.00  0.00    +0.000 HD
ATOM     13  H   UNL     1      51.507   2.986  18.147  0.00  0.00    +0.000 HD
ENDBRANCH   1  10
BRANCH   5  14
ATOM     14  C   UNL     1      46.626   5.016  13.639  0.00  0.00    +0.000 C 
BRANCH  14  15
ATOM     15  C   UNL     1      45.223   5.257  13.068  0.00  0.00    +0.000 C 
BRANCH  15  16
ATOM     16  C   UNL     1      45.054   4.690  11.681  0.00  0.00    +0.000 A 
ATOM     17  C   UNL     1      45.524   5.403  10.570  0.00  0.00    +0.000 A 
ATOM     18  C   UNL     1      45.370   4.890   9.282  0.00  0.00    +0.000 A 
ATOM     19  C   UNL     1      44.740   3.662   9.092  0.00  0.00    +0.000 A 
ATOM     20  C   UNL     1      44.259   2.949  10.189  0.00  0.00    +0.000 A 
ATOM     21  C   UNL     1      44.411   3.462  11.479  0.00  0.00    +0.000 A 
ENDBRANCH  15  16
ENDBRANCH  14  15
ENDBRANCH   5  14
TORSDOF 4
ENDMDL
MODEL 8
REMARK VINA RESULT:    -5.638      3.664      6.499
REMARK INTER + INTRA:          -7.447
REMARK INTER:                  -7.017
REMARK INTRA:                  -0.430
REMARK UNBOUND:                -0.491
REMARK  Name = 
REMARK  4 active torsions:
REMARK  status: ('A' for Active; 'I' for Inactive)
REMARK    1  A    between atoms: C_2  and  C_4
REMARK    2  A    between atoms: N_8  and  C_9
REMARK    3  A    between atoms: C_9  and  C_10
REMARK    4  A    between atoms: C_10  and  C_11
REMARK                            x       y       z     vdW  Elec       q    Type
REMARK                         _______ _______ _______ _____ _____    ______ ____
ROOT
ATOM      1  C   UNL     1      47.571   4.433  15.410  0.00  0.00    +0.000 A 
ATOM      2  C   UNL     1      48.152   5.685  15.224  0.00  0.00    +0.000 A 
ATOM      3  C   UNL     1      47.774   6.449  14.120  0.00  0.00    +0.000 A 
ATOM      4  C   UNL     1      46.805   5.967  13.239  0.00  0.00    +0.000 A 
ATOM      5  N   UNL     1      46.395   6.817  12.203  0.00  0.00    +0.000 N 
ATOM      6  N   UNL     1      46.255   4.748  13.400  0.00  0.00    +0.000 NA
ATOM      7  C   UNL     1      46.660   3.999  14.459  0.00  0.00    +0.000 A 
ATOM      8  H   UNL     1      47.193   7.062  11.626  0.00  0.00    +0.000 HD
ENDROOT
BRANCH   1  10
ATOM      9  N   UNL     1      46.839   3.233  17.391  0.00  0.00    +0.000 N 
ATOM     10  C   UNL     1      47.880   3.563  16.566  0.00  0.00    +0.000 C 
ATOM     11  O   UNL     1      49.006   3.124  16.753  0.00  0.00    +0.000 OA
ATOM     12  H   UNL     1      47.039   2.544  18.105  0.00  0.00    +0.000 HD
ATOM     13  H   UNL     1      45.876   3.357  17.124  0.00  0.00    +0.000 HD
ENDBRANCH   1  10
BRANCH   5  14
ATOM     14  C   UNL     1      45.227   6.374  11.440  0.00  0.00    +0.000 C 
BRANCH  14  15
ATOM     15  C   UNL     1      45.644   6.079   9.994  0.00  0.00    +0.000 C 
BRANCH  15  16
ATOM     16  C   UNL     1      45.347   4.659   9.581  0.00  0.00    +0.000 A 
ATOM     17  C   UNL     1      45.842   4.163   8.367  0.00  0.00    +0.000 A 
ATOM     18  C   UNL     1      45.570   2.853   7.974  0.00  0.00    +0.000 A 
ATOM     19  C   UNL     1      44.796   2.027   8.787  0.00  0.00    +0.000 A 
ATOM     20  C   UNL     1      44.290   2.513   9.991  0.00  0.00    +0.000 A 
ATOM     21  C   UNL     1      44.560   3.825  10.386  0.00  0.00    +0.000 A 
ENDBRANCH  15  16
ENDBRANCH  14  15
ENDBRANCH   5  14
TORSDOF 4
ENDMDL
MODEL 9
REMARK VINA RESULT:    -5.571      2.562      4.090
REMARK INTER + INTRA:          -7.365
REMARK INTER:                  -6.963
REMARK INTRA:                  -0.401
REMARK UNBOUND:                -0.491
REMARK  Name = 
REMARK  4 active torsions:
REMARK  status: ('A' for Active; 'I' for Inactive)
REMARK    1  A    between atoms: C_2  and  C_4
REMARK    2  A    between atoms: N_8  and  C_9
REMARK    3  A    between atoms: C_9  and  C_10
REMARK    4  A    between atoms: C_10  and  C_11
REMARK                            x       y       z     vdW  Elec       q    Type
REMARK                         _______ _______ _______ _____ _____    ______ ____
ROOT
ATOM      1  C   UNL     1      44.639   4.178   9.867  0.00  0.00    +0.000 A 
ATOM      2  C   UNL     1      43.636   4.226  10.832  0.00  0.00    +0.000 A 
ATOM      3  C   UNL     1      43.618   5.288  11.736  0.00  0.00    +0.000 A 
ATOM      4  C   UNL     1      44.578   6.296  11.645  0.00  0.00    +0.000 A 
ATOM      5  N   UNL     1      44.454   7.387  12.517  0.00  0.00    +0.000 N 
ATOM      6  N   UNL     1      45.563   6.246  10.729  0.00  0.00    +0.000 NA
ATOM      7  C   UNL     1      45.591   5.186   9.878  0.00  0.00    +0.000 A 
ATOM      8  H   UNL     1      44.488   7.061  13.478  0.00  0.00    +0.000 HD
ENDROOT
BRANCH   1  10
ATOM      9  N   UNL     1      44.676   1.820   9.286  0.00  0.00    +0.000 N 
ATOM     10  C   UNL     1      44.724   3.113   8.843  0.00  0.00    +0.000 C 
ATOM     11  O   UNL     1      44.793   3.378   7.651  0.00  0.00    +0.000 OA
ATOM     12  H   UNL     1      44.615   1.107   8.570  0.00  0.00    +0.000 HD
ATOM     13  H   UNL     1      44.362   1.575  10.211  0.00  0.00    +0.000 HD
ENDBRANCH   1  10
BRANCH   5  14
ATOM     14  C   UNL     1      45.335   8.523  12.246  0.00  0.00    +0.000 C 
BRANCH  14  15
ATOM     15  C   UNL     1      46.507   8.508  13.235  0.00  0.00    +0.000 C 
BRANCH  15  16
ATOM     16  C   UNL     1      47.846   8.643  12.553  0.00  0.00    +0.000 A 
ATOM     17  C   UNL     1      48.628   7.506  12.310  0.00  0.00    +0.000 A 
ATOM     18  C   UNL     1      49.868   7.620  11.684  0.00  0.00    +0.000 A 
ATOM     19  C   UNL     1      50.342   8.873  11.299  0.00  0.00    +0.000 A 
ATOM     20  C   UNL     1      49.577  10.012  11.545  0.00  0.00    +0.000 A 
ATOM     21  C   UNL     1      48.335   9.900  12.173  0.00  0.00    +0.000 A 
ENDBRANCH  15  16
ENDBRANCH  14  15
ENDBRANCH   5  14
TORSDOF 4
ENDMDL
