MODEL 1
REMARK VINA RESULT:    -7.773      0.000      0.000
REMARK INTER + INTRA:         -12.009
REMARK INTER:                 -10.953
REMARK INTRA:                  -1.056
REMARK UNBOUND:                -1.056
REMARK  Name = 
REMARK  9 active torsions:
REMARK  status: ('A' for Active; 'I' for Inactive)
REMARK    1  A    between atoms: C_1  and  O_2
REMARK    2  A    between atoms: O_2  and  C_3
REMARK    3  A    between atoms: C_6  and  N_7
REMARK    4  A    between atoms: N_7  and  C_8
REMARK    5  A    between atoms: C_8  and  C_9
REMARK    6  A    between atoms: C_9  and  C_10
REMARK    7  A    between atoms: C_9  and  C_11
REMARK    8  A    between atoms: C_15  and  O_16
REMARK    9  A    between atoms: O_16  and  C_17
REMARK                            x       y       z     vdW  Elec       q    Type
REMARK                         _______ _______ _______ _____ _____    ______ ____
ROOT
ATOM      1  C   UNL     1      44.443   4.685  12.015  0.00  0.00    +0.000 C 
ATOM      2  C   UNL     1      43.469   4.456  13.180  0.00  0.00    +0.000 C 
ENDROOT
BRANCH   1   3
ATOM      3  C   UNL     1      45.783   5.282  12.425  0.00  0.00    +0.000 A 
ATOM      4  C   UNL     1      46.364   6.291  11.644  0.00  0.00    +0.000 A 
ATOM      5  C   UNL     1      47.539   6.926  12.057  0.00  0.00    +0.000 A 
ATOM      6  C   UNL     1      48.151   6.568  13.260  0.00  0.00    +0.000 A 
ATOM      7  C   UNL     1      47.588   5.564  14.042  0.00  0.00    +0.000 A 
ATOM      8  C   UNL     1      46.421   4.922  13.621  0.00  0.00    +0.000 A 
BRANCH   7   9
ATOM      9  O   UNL     1      48.043   5.161  15.269  0.00  0.00    +0.000 OA
BRANCH   9  10
ATOM     10  C   UNL     1      47.228   4.288  16.075  0.00  0.00    +0.000 C 
ATOM     11  C   UNL     1      47.151   4.561  17.593  0.00  0.00    +0.000 C 
ATOM     12  N   UNL     1      47.337   3.115  17.850  0.00  0.00    +0.000 NA
ATOM     13  C   UNL     1      47.934   2.981  16.505  0.00  0.00    +0.000 C 
ATOM     14  H   UNL     1      46.461   2.602  17.954  0.00  0.00    +0.000 HD
ENDBRANCH   9  10
ENDBRANCH   7   9
ENDBRANCH   1   3
BRANCH   1  15
ATOM     15  C   UNL     1      43.787   5.515  10.882  0.00  0.00    +0.000 C 
BRANCH  15  16
ATOM     16  N   UNL     1      43.531   4.702   9.695  0.00  0.00    +0.000 N 
ATOM     17  H   UNL     1      43.078   5.219   8.943  0.00  0.00    +0.000 HD
BRANCH  16  21
ATOM     18  C   UNL     1      46.412   2.206   7.881  0.00  0.00    +0.000 A 
ATOM     19  C   UNL     1      45.468   1.650   8.742  0.00  0.00    +0.000 A 
ATOM     20  C   UNL     1      44.511   2.463   9.366  0.00  0.00    +0.000 A 
ATOM     21  C   UNL     1      44.499   3.847   9.174  0.00  0.00    +0.000 A 
ATOM     22  C   UNL     1      45.453   4.390   8.305  0.00  0.00    +0.000 A 
ATOM     23  C   UNL     1      46.402   3.582   7.669  0.00  0.00    +0.000 A 
BRANCH  18  25
ATOM     24  C   UNL     1      47.886   2.153   6.024  0.00  0.00    +0.000 C 
ATOM     25  O   UNL     1      47.375   1.525   7.192  0.00  0.00    +0.000 OA
ENDBRANCH  18  25
ENDBRANCH  16  21
ENDBRANCH  15  16
ENDBRANCH   1  15
TORSDOF 7
ENDMDL
MODEL 2
REMARK VINA RESULT:    -6.950      2.205      7.653
REMARK INTER + INTRA:         -10.851
REMARK INTER:                  -9.878
REMARK INTRA:                  -0.973
REMARK UNBOUND:                -1.056
REMARK  Name = 
REMARK  9 active torsions:
REMARK  status: ('A' for Active; 'I' for Inactive)
REMARK    1  A    between atoms: C_1  and  O_2
REMARK    2  A    between atoms: O_2  and  C_3
REMARK    3  A    between atoms: C_6  and  N_7
REMARK    4  A    between atoms: N_7  and  C_8
REMARK    5  A    between atoms: C_8  and  C_9
REMARK    6  A    between atoms: C_9  and  C_10
REMARK    7  A    between atoms: C_9  and  C_11
REMARK    8  A    between atoms: C_15  and  O_16
REMARK    9  A    between atoms: O_16  and  C_17
REMARK                            x       y       z     vdW  Elec       q    Type
REMARK                         _______ _______ _______ _____ _____    ______ ____
ROOT
ATOM      1  C   UNL     1      45.532   6.441  10.772  0.00  0.00    +0.000 C 
ATOM      2  C   UNL     1      44.426   6.989  11.687  0.00  0.00    +0.000 C 
ENDROOT
BRANCH   1   3
ATOM      3  C   UNL     1      45.268   5.039  10.239  0.00  0.00    +0.000 A 
ATOM      4  C   UNL     1      44.555   4.119  11.020  0.00  0.00    +0.000 A 
ATOM      5  C   UNL     1      44.212   2.864  10.509  0.00  0.00    +0.000 A 
ATOM      6  C   UNL     1      44.570   2.508   9.207  0.00  0.00    +0.000 A 
ATOM      7  C   UNL     1      45.283   3.410   8.423  0.00  0.00    +0.000 A 
ATOM      8  C   UNL     1      45.636   4.658   8.940  0.00  0.00    +0.000 A 
BRANCH   7   9
ATOM      9  O   UNL     1      45.640   3.219   7.115  0.00  0.00    +0.000 OA
BRANCH   9  10
ATOM     10  C   UNL     1      47.033   3.080   6.773  0.00  0.00    +0.000 C 
ATOM     11  C   UNL     1      47.392   2.750   5.308  0.00  0.00    +0.000 C 
ATOM     12  N   UNL     1      48.354   1.731   5.787  0.00  0.00    +0.000 NA
ATOM     13  C   UNL     1      47.619   1.679   7.068  0.00  0.00    +0.000 C 
ATOM     14  H   UNL     1      49.307   2.083   5.884  0.00  0.00    +0.000 HD
ENDBRANCH   9  10
ENDBRANCH   7   9
ENDBRANCH   1   3
BRANCH   1  15
ATOM     15  C   UNL     1      46.922   6.525  11.453  0.00  0.00    +0.000 C 
BRANCH  15  16
ATOM     16  N   UNL     1      46.819   6.969  12.842  0.00  0.00    +0.000 N 
ATOM     17  H   UNL     1      45.899   7.338  13.079  0.00  0.00    +0.000 HD
BRANCH  16  21
ATOM     18  C   UNL     1      48.072   4.585  16.092  0.00  0.00    +0.000 A 
ATOM     19  C   UNL     1      48.599   5.865  15.938  0.00  0.00    +0.000 A 
ATOM     20  C   UNL     1      48.207   6.669  14.858  0.00  0.00    +0.000 A 
ATOM     21  C   UNL     1      47.313   6.199  13.892  0.00  0.00    +0.000 A 
ATOM     22  C   UNL     1      46.792   4.912  14.061  0.00  0.00    +0.000 A 
ATOM     23  C   UNL     1      47.169   4.110  15.145  0.00  0.00    +0.000 A 
BRANCH  18  25
ATOM     24  C   UNL     1      47.259   2.947  17.603  0.00  0.00    +0.000 C 
ATOM     25  O   UNL     1      48.348   3.716  17.110  0.00  0.00    +0.000 OA
ENDBRANCH  18  25
ENDBRANCH  16  21
ENDBRANCH  15  16
ENDBRANCH   1  15
TORSDOF 7
ENDMDL
MODEL 3
REMARK VINA RESULT:    -6.923      3.080      4.895
REMARK INTER + INTRA:         -10.812
REMARK INTER:                  -9.890
REMARK INTRA:                  -0.922
REMARK UNBOUND:                -1.056
REMARK  Name = 
REMARK  9 active torsions:
REMARK  status: ('A' for Active; 'I' for Inactive)
REMARK    1  A    between atoms: C_1  and  O_2
REMARK    2  A    between atoms: O_2  and  C_3
REMARK    3  A    between atoms: C_6  and  N_7
REMARK    4  A    between atoms: N_7  and  C_8
REMARK    5  A    between atoms: C_8  and  C_9
REMARK    6  A    between atoms: C_9  and  C_10
REMARK    7  A    between atoms: C_9  and  C_11
REMARK    8  A    between atoms: C_15  and  O_16
REMARK    9  A    between atoms: O_16  and  C_17
REMARK                            x       y       z     vdW  Elec       q    Type
REMARK                         _______ _______ _______ _____ _____    ______ ____
ROOT
ATOM      1  C   UNL     1      45.249   4.850  11.453  0.00  0.00    +0.000 C 
ATOM      2  C   UNL     1      45.418   3.741  12.503  0.00  0.00    +0.000 C 
ENDROOT
BRANCH   1   3
ATOM      3  C   UNL     1      45.681   6.233  11.924  0.00  0.00    +0.000 A 
ATOM      4  C   UNL     1      46.967   6.419  12.448  0.00  0.00    +0.000 A 
ATOM      5  C   UNL     1      47.421   7.697  12.789  0.00  0.00    +0.000 A 
ATOM      6  C   UNL     1      46.600   8.811  12.605  0.00  0.00    +0.000 A 
ATOM      7  C   UNL     1      45.318   8.639  12.090  0.00  0.00    +0.000 A 
ATOM      8  C   UNL     1      44.863   7.360  11.763  0.00  0.00    +0.000 A 
BRANCH   7   9
ATOM      9  O   UNL     1      44.437   9.645  11.798  0.00  0.00    +0.000 OA
BRANCH   9  10
ATOM     10  C   UNL     1      43.685   9.593  10.569  0.00  0.00    +0.000 C 
ATOM     11  C   UNL     1      43.849  10.758   9.568  0.00  0.00    +0.000 C 
ATOM     12  N   UNL     1      42.379  10.796   9.392  0.00  0.00    +0.000 NA
ATOM     13  C   UNL     1      42.233  10.112  10.694  0.00  0.00    +0.000 C 
ATOM     14  H   UNL     1      42.047  10.238   8.605  0.00  0.00    +0.000 HD
ENDBRANCH   9  10
ENDBRANCH   7   9
ENDBRANCH   1   3
BRANCH   1  15
ATOM     15  C   UNL     1      43.806   4.881  10.889  0.00  0.00    +0.000 C 
BRANCH  15  16
ATOM     16  N   UNL     1      43.770   4.512   9.475  0.00  0.00    +0.000 N 
ATOM     17  H   UNL     1      43.592   5.303   8.857  0.00  0.00    +0.000 HD
BRANCH  16  21
ATOM     18  C   UNL     1      46.614   2.060   7.547  0.00  0.00    +0.000 A 
ATOM     19  C   UNL     1      45.717   1.491   8.447  0.00  0.00    +0.000 A 
ATOM     20  C   UNL     1      44.773   2.289   9.109  0.00  0.00    +0.000 A 
ATOM     21  C   UNL     1      44.730   3.672   8.915  0.00  0.00    +0.000 A 
ATOM     22  C   UNL     1      45.637   4.229   8.007  0.00  0.00    +0.000 A 
ATOM     23  C   UNL     1      46.573   3.436   7.333  0.00  0.00    +0.000 A 
BRANCH  18  25
ATOM     24  C   UNL     1      48.130   2.096   5.722  0.00  0.00    +0.000 C 
ATOM     25  O   UNL     1      47.560   1.394   6.819  0.00  0.00    +0.000 OA
ENDBRANCH  18  25
ENDBRANCH  16  21
ENDBRANCH  15  16
ENDBRANCH   1  15
TORSDOF 7
ENDMDL
MODEL 4
REMARK VINA RESULT:    -6.715      2.534      3.716
REMARK INTER + INTRA:         -10.519
REMARK INTER:                  -9.725
REMARK INTRA:                  -0.793
REMARK UNBOUND:                -1.056
REMARK  Name = 
REMARK  9 active torsions:
REMARK  status: ('A' for Active; 'I' for Inactive)
REMARK    1  A    between atoms: C_1  and  O_2
REMARK    2  A    between atoms: O_2  and  C_3
REMARK    3  A    between atoms: C_6  and  N_7
REMARK    4  A    between atoms: N_7  and  C_8
REMARK    5  A    between atoms: C_8  and  C_9
REMARK    6  A    between atoms: C_9  and  C_10
REMARK    7  A    between atoms: C_9  and  C_11
REMARK    8  A    between atoms: C_15  and  O_16
REMARK    9  A    between atoms: O_16  and  C_17
REMARK                            x       y       z     vdW  Elec       q    Type
REMARK                         _______ _______ _______ _____ _____    ______ ____
ROOT
ATOM      1  C   UNL     1      43.346   4.436  12.350  0.00  0.00    +0.000 C 
ATOM      2  C   UNL     1      42.315   5.471  11.876  0.00  0.00    +0.000 C 
ENDROOT
BRANCH   1   3
ATOM      3  C   UNL     1      44.672   5.033  12.804  0.00  0.00    +0.000 A 
ATOM      4  C   UNL     1      45.722   4.187  13.185  0.00  0.00    +0.000 A 
ATOM      5  C   UNL     1      46.979   4.708  13.504  0.00  0.00    +0.000 A 
ATOM      6  C   UNL     1      47.211   6.084  13.441  0.00  0.00    +0.000 A 
ATOM      7  C   UNL     1      46.175   6.936  13.069  0.00  0.00    +0.000 A 
ATOM      8  C   UNL     1      44.916   6.413  12.764  0.00  0.00    +0.000 A 
BRANCH   7   9
ATOM      9  O   UNL     1      46.280   8.291  12.903  0.00  0.00    +0.000 OA
BRANCH   9  10
ATOM     10  C   UNL     1      47.544   8.861  12.510  0.00  0.00    +0.000 C 
ATOM     11  C   UNL     1      48.407   9.533  13.600  0.00  0.00    +0.000 C 
ATOM     12  N   UNL     1      48.654  10.670  12.684  0.00  0.00    +0.000 NA
ATOM     13  C   UNL     1      47.440  10.291  11.930  0.00  0.00    +0.000 C 
ATOM     14  H   UNL     1      49.511  10.578  12.139  0.00  0.00    +0.000 HD
ENDBRANCH   9  10
ENDBRANCH   7   9
ENDBRANCH   1   3
BRANCH   1  15
ATOM     15  C   UNL     1      43.569   3.330  11.286  0.00  0.00    +0.000 C 
BRANCH  15  16
ATOM     16  N   UNL     1      43.728   3.893   9.947  0.00  0.00    +0.000 N 
ATOM     17  H   UNL     1      43.726   4.912   9.935  0.00  0.00    +0.000 HD
BRANCH  16  21
ATOM     18  C   UNL     1      46.736   2.290   7.456  0.00  0.00    +0.000 A 
ATOM     19  C   UNL     1      46.464   3.655   7.410  0.00  0.00    +0.000 A 
ATOM     20  C   UNL     1      45.460   4.206   8.218  0.00  0.00    +0.000 A 
ATOM     21  C   UNL     1      44.684   3.404   9.059  0.00  0.00    +0.000 A 
ATOM     22  C   UNL     1      44.970   2.035   9.095  0.00  0.00    +0.000 A 
ATOM     23  C   UNL     1      45.980   1.480   8.300  0.00  0.00    +0.000 A 
BRANCH  18  25
ATOM     24  C   UNL     1      48.027   2.171   5.470  0.00  0.00    +0.000 C 
ATOM     25  O   UNL     1      47.701   1.635   6.745  0.00  0.00    +0.000 OA
ENDBRANCH  18  25
ENDBRANCH  16  21
ENDBRANCH  15  16
ENDBRANCH   1  15
TORSDOF 7
ENDMDL
MODEL 5
REMARK VINA RESULT:    -6.710      2.272      2.747
REMARK INTER + INTRA:         -10.511
REMARK INTER:                  -9.621
REMARK INTRA:                  -0.891
REMARK UNBOUND:                -1.056
REMARK  Name = 
REMARK  9 active torsions:
REMARK  status: ('A' for Active; 'I' for Inactive)
REMARK    1  A    between atoms: C_1  and  O_2
REMARK    2  A    between atoms: O_2  and  C_3
REMARK    3  A    between atoms: C_6  and  N_7
REMARK    4  A    between atoms: N_7  and  C_8
REMARK    5  A    between atoms: C_8  and  C_9
REMARK    6  A    between atoms: C_9  and  C_10
REMARK    7  A    between atoms: C_9  and  C_11
REMARK    8  A    between atoms: C_15  and  O_16
REMARK    9  A    between atoms: O_16  and  C_17
REMARK                            x       y       z     vdW  Elec       q    Type
REMARK                         _______ _______ _______ _____ _____    ______ ____
ROOT
ATOM      1  C   UNL     1      45.201   5.153  11.763  0.00  0.00    +0.000 C 
ATOM      2  C   UNL     1      45.407   4.230  12.974  0.00  0.00    +0.000 C 
ENDROOT
BRANCH   1   3
ATOM      3  C   UNL     1      45.573   6.609  12.012  0.00  0.00    +0.000 A 
ATOM      4  C   UNL     1      44.766   7.631  11.495  0.00  0.00    +0.000 A 
ATOM      5  C   UNL     1      45.030   8.971  11.798  0.00  0.00    +0.000 A 
ATOM      6  C   UNL     1      46.100   9.310  12.629  0.00  0.00    +0.000 A 
ATOM      7  C   UNL     1      46.912   8.305  13.144  0.00  0.00    +0.000 A 
ATOM      8  C   UNL     1      46.655   6.969  12.829  0.00  0.00    +0.000 A 
BRANCH   7   9
ATOM      9  O   UNL     1      47.949   8.490  14.019  0.00  0.00    +0.000 OA
BRANCH   9  10
ATOM     10  C   UNL     1      49.008   7.514  14.078  0.00  0.00    +0.000 C 
ATOM     11  C   UNL     1      49.579   7.145  15.465  0.00  0.00    +0.000 C 
ATOM     12  N   UNL     1      50.949   7.247  14.913  0.00  0.00    +0.000 NA
ATOM     13  C   UNL     1      50.418   8.096  13.826  0.00  0.00    +0.000 C 
ATOM     14  H   UNL     1      51.324   6.358  14.583  0.00  0.00    +0.000 HD
ENDBRANCH   9  10
ENDBRANCH   7   9
ENDBRANCH   1   3
BRANCH   1  15
ATOM     15  C   UNL     1      43.761   5.035  11.200  0.00  0.00    +0.000 C 
BRANCH  15  16
ATOM     16  N   UNL     1      43.763   4.788   9.760  0.00  0.00    +0.000 N 
ATOM     17  H   UNL     1      43.712   5.641   9.205  0.00  0.00    +0.000 HD
BRANCH  16  21
ATOM     18  C   UNL     1      46.378   2.148   7.757  0.00  0.00    +0.000 A 
ATOM     19  C   UNL     1      45.491   1.645   8.705  0.00  0.00    +0.000 A 
ATOM     20  C   UNL     1      44.623   2.505   9.393  0.00  0.00    +0.000 A 
ATOM     21  C   UNL     1      44.648   3.885   9.175  0.00  0.00    +0.000 A 
ATOM     22  C   UNL     1      45.544   4.376   8.218  0.00  0.00    +0.000 A 
ATOM     23  C   UNL     1      46.403   3.520   7.519  0.00  0.00    +0.000 A 
BRANCH  18  25
ATOM     24  C   UNL     1      47.927   2.112   5.961  0.00  0.00    +0.000 C 
ATOM     25  O   UNL     1      47.252   1.418   7.001  0.00  0.00    +0.000 OA
ENDBRANCH  18  25
ENDBRANCH  16  21
ENDBRANCH  15  16
ENDBRANCH   1  15
TORSDOF 7
ENDMDL
MODEL 6
REMARK VINA RESULT:    -6.597      3.034      7.398
REMARK INTER + INTRA:         -10.353
REMARK INTER:                  -9.505
REMARK INTRA:                  -0.848
REMARK UNBOUND:                -1.056
REMARK  Name = 
REMARK  9 active torsions:
REMARK  status: ('A' for Active; 'I' for Inactive)
REMARK    1  A    between atoms: C_1  and  O_2
REMARK    2  A    between atoms: O_2  and  C_3
REMARK    3  A    between atoms: C_6  and  N_7
REMARK    4  A    between atoms: N_7  and  C_8
REMARK    5  A    between atoms: C_8  and  C_9
REMARK    6  A    between atoms: C_9  and  C_10
REMARK    7  A    between atoms: C_9  and  C_11
REMARK    8  A    between atoms: C_15  and  O_16
REMARK    9  A    between atoms: O_16  and  C_17
REMARK                            x       y       z     vdW  Elec       q    Type
REMARK                         _______ _______ _______ _____ _____    ______ ____
ROOT
ATOM      1  C   UNL     1      45.499   6.187  11.355  0.00  0.00    +0.000 C 
ATOM      2  C   UNL     1      44.356   7.212  11.317  0.00  0.00    +0.000 C 
ENDROOT
BRANCH   1   3
ATOM      3  C   UNL     1      45.217   4.901  10.588  0.00  0.00    +0.000 A 
ATOM      4  C   UNL     1      44.470   3.881  11.191  0.00  0.00    +0.000 A 
ATOM      5  C   UNL     1      44.111   2.738  10.470  0.00  0.00    +0.000 A 
ATOM      6  C   UNL     1      44.486   2.599   9.132  0.00  0.00    +0.000 A 
ATOM      7  C   UNL     1      45.231   3.603   8.522  0.00  0.00    +0.000 A 
ATOM      8  C   UNL     1      45.601   4.737   9.249  0.00  0.00    +0.000 A 
BRANCH   7   9
ATOM      9  O   UNL     1      45.608   3.628   7.206  0.00  0.00    +0.000 OA
BRANCH   9  10
ATOM     10  C   UNL     1      46.975   3.340   6.855  0.00  0.00    +0.000 C 
ATOM     11  C   UNL     1      47.277   2.905   5.404  0.00  0.00    +0.000 C 
ATOM     12  N   UNL     1      48.147   1.825   5.923  0.00  0.00    +0.000 NA
ATOM     13  C   UNL     1      47.433   1.907   7.214  0.00  0.00    +0.000 C 
ATOM     14  H   UNL     1      49.131   2.089   5.991  0.00  0.00    +0.000 HD
ENDBRANCH   9  10
ENDBRANCH   7   9
ENDBRANCH   1   3
BRANCH   1  15
ATOM     15  C   UNL     1      45.938   5.882  12.810  0.00  0.00    +0.000 C 
BRANCH  15  16
ATOM     16  N   UNL     1      46.642   7.012  13.411  0.00  0.00    +0.000 N 
ATOM     17  H   UNL     1      46.924   6.845  14.376  0.00  0.00    +0.000 HD
BRANCH  16  21
ATOM     18  C   UNL     1      49.854   9.000  11.527  0.00  0.00    +0.000 A 
ATOM     19  C   UNL     1      48.660   9.682  11.744  0.00  0.00    +0.000 A 
ATOM     20  C   UNL     1      47.575   9.037  12.356  0.00  0.00    +0.000 A 
ATOM     21  C   UNL     1      47.648   7.693  12.728  0.00  0.00    +0.000 A 
ATOM     22  C   UNL     1      48.855   7.021  12.504  0.00  0.00    +0.000 A 
ATOM     23  C   UNL     1      49.946   7.663  11.906  0.00  0.00    +0.000 A 
BRANCH  18  25
ATOM     24  C   UNL     1      52.104   8.643  10.867  0.00  0.00    +0.000 C 
ATOM     25  O   UNL     1      50.990   9.518  10.970  0.00  0.00    +0.000 OA
ENDBRANCH  18  25
ENDBRANCH  16  21
ENDBRANCH  15  16
ENDBRANCH   1  15
TORSDOF 7
ENDMDL
MODEL 7
REMARK VINA RESULT:    -6.145      2.289      7.366
REMARK INTER + INTRA:          -9.716
REMARK INTER:                  -8.727
REMARK INTRA:                  -0.989
REMARK UNBOUND:                -1.056
REMARK  Name = 
REMARK  9 active torsions:
REMARK  status: ('A' for Active; 'I' for Inactive)
REMARK    1  A    between atoms: C_1  and  O_2
REMARK    2  A    between atoms: O_2  and  C_3
REMARK    3  A    between atoms: C_6  and  N_7
REMARK    4  A    between atoms: N_7  and  C_8
REMARK    5  A    between atoms: C_8  and  C_9
REMARK    6  A    between atoms: C_9  and  C_10
REMARK    7  A    between atoms: C_9  and  C_11
REMARK    8  A    between atoms: C_15  and  O_16
REMARK    9  A    between atoms: O_16  and  C_17
REMARK                            x       y       z     vdW  Elec       q    Type
REMARK                         _______ _______ _______ _____ _____    ______ ____
ROOT
ATOM      1  C   UNL     1      46.033   7.240  11.799  0.00  0.00    +0.000 C 
ATOM      2  C   UNL     1      45.648   8.320  12.820  0.00  0.00    +0.000 C 
ENDROOT
BRANCH   1   3
ATOM      3  C   UNL     1      45.051   6.078  11.712  0.00  0.00    +0.000 A 
ATOM      4  C   UNL     1      44.013   5.973  12.647  0.00  0.00    +0.000 A 
ATOM      5  C   UNL     1      43.040   4.976  12.525  0.00  0.00    +0.000 A 
ATOM      6  C   UNL     1      43.086   4.070  11.462  0.00  0.00    +0.000 A 
ATOM      7  C   UNL     1      44.115   4.160  10.530  0.00  0.00    +0.000 A 
ATOM      8  C   UNL     1      45.093   5.149  10.663  0.00  0.00    +0.000 A 
BRANCH   7   9
ATOM      9  O   UNL     1      44.244   3.384   9.410  0.00  0.00    +0.000 OA
BRANCH   9  10
ATOM     10  C   UNL     1      45.555   3.138   8.866  0.00  0.00    +0.000 C 
ATOM     11  C   UNL     1      45.777   3.397   7.359  0.00  0.00    +0.000 C 
ATOM     12  N   UNL     1      46.499   2.108   7.258  0.00  0.00    +0.000 NA
ATOM     13  C   UNL     1      45.817   1.660   8.491  0.00  0.00    +0.000 C 
ATOM     14  H   UNL     1      47.509   2.195   7.366  0.00  0.00    +0.000 HD
ENDBRANCH   9  10
ENDBRANCH   7   9
ENDBRANCH   1   3
BRANCH   1  15
ATOM     15  C   UNL     1      47.479   6.731  12.031  0.00  0.00    +0.000 C 
BRANCH  15  16
ATOM     16  N   UNL     1      47.994   7.142  13.336  0.00  0.00    +0.000 N 
ATOM     17  H   UNL     1      47.667   8.062  13.626  0.00  0.00    +0.000 HD
BRANCH  16  21
ATOM     18  C   UNL     1      47.770   4.503  16.623  0.00  0.00    +0.000 A 
ATOM     19  C   UNL     1      48.556   5.649  16.716  0.00  0.00    +0.000 A 
ATOM     20  C   UNL     1      48.656   6.532  15.632  0.00  0.00    +0.000 A 
ATOM     21  C   UNL     1      48.005   6.271  14.423  0.00  0.00    +0.000 A 
ATOM     22  C   UNL     1      47.218   5.117  14.345  0.00  0.00    +0.000 A 
ATOM     23  C   UNL     1      47.103   4.239  15.429  0.00  0.00    +0.000 A 
BRANCH  18  25
ATOM     24  C   UNL     1      48.717   3.144  18.321  0.00  0.00    +0.000 C 
ATOM     25  O   UNL     1      47.566   3.581  17.610  0.00  0.00    +0.000 OA
ENDBRANCH  18  25
ENDBRANCH  16  21
ENDBRANCH  15  16
ENDBRANCH   1  15
TORSDOF 7
ENDMDL
MODEL 8
REMARK VINA RESULT:    -6.144      3.080      7.417
REMARK INTER + INTRA:          -9.714
REMARK INTER:                  -8.672
REMARK INTRA:                  -1.042
REMARK UNBOUND:                -1.056
REMARK  Name = 
REMARK  9 active torsions:
REMARK  status: ('A' for Active; 'I' for Inactive)
REMARK    1  A    between atoms: C_1  and  O_2
REMARK    2  A    between atoms: O_2  and  C_3
REMARK    3  A    between atoms: C_6  and  N_7
REMARK    4  A    between atoms: N_7  and  C_8
REMARK    5  A    between atoms: C_8  and  C_9
REMARK    6  A    between atoms: C_9  and  C_10
REMARK    7  A    between atoms: C_9  and  C_11
REMARK    8  A    between atoms: C_15  and  O_16
REMARK    9  A    between atoms: O_16  and  C_17
REMARK                            x       y       z     vdW  Elec       q    Type
REMARK                         _______ _______ _______ _____ _____    ______ ____
ROOT
ATOM      1  C   UNL     1      49.164   7.006  14.742  0.00  0.00    +0.000 C 
ATOM      2  C   UNL     1      50.298   7.882  14.189  0.00  0.00    +0.000 C 
ENDROOT
BRANCH   1   3
ATOM      3  C   UNL     1      47.855   7.111  13.969  0.00  0.00    +0.000 A 
ATOM      4  C   UNL     1      47.285   8.369  13.733  0.00  0.00    +0.000 A 
ATOM      5  C   UNL     1      46.142   8.497  12.938  0.00  0.00    +0.000 A 
ATOM      6  C   UNL     1      45.554   7.371  12.359  0.00  0.00    +0.000 A 
ATOM      7  C   UNL     1      46.107   6.115  12.590  0.00  0.00    +0.000 A 
ATOM      8  C   UNL     1      47.241   5.989  13.396  0.00  0.00    +0.000 A 
BRANCH   7   9
ATOM      9  O   UNL     1      45.674   4.940  12.035  0.00  0.00    +0.000 OA
BRANCH   9  10
ATOM     10  C   UNL     1      44.305   4.532  12.221  0.00  0.00    +0.000 C 
ATOM     11  C   UNL     1      43.992   3.019  12.219  0.00  0.00    +0.000 C 
ATOM     12  N   UNL     1      42.832   3.274  11.334  0.00  0.00    +0.000 NA
ATOM     13  C   UNL     1      43.458   4.549  10.927  0.00  0.00    +0.000 C 
ATOM     14  H   UNL     1      41.954   3.400  11.837  0.00  0.00    +0.000 HD
ENDBRANCH   9  10
ENDBRANCH   7   9
ENDBRANCH   1   3
BRANCH   1  15
ATOM     15  C   UNL     1      48.938   7.261  16.254  0.00  0.00    +0.000 C 
BRANCH  15  16
ATOM     16  N   UNL     1      48.170   6.183  16.875  0.00  0.00    +0.000 N 
ATOM     17  H   UNL     1      47.203   6.143  16.557  0.00  0.00    +0.000 HD
BRANCH  16  21
ATOM     18  C   UNL     1      49.951   2.365  17.133  0.00  0.00    +0.000 A 
ATOM     19  C   UNL     1      48.652   2.483  16.646  0.00  0.00    +0.000 A 
ATOM     20  C   UNL     1      48.036   3.740  16.565  0.00  0.00    +0.000 A 
ATOM     21  C   UNL     1      48.688   4.896  17.001  0.00  0.00    +0.000 A 
ATOM     22  C   UNL     1      49.993   4.761  17.487  0.00  0.00    +0.000 A 
ATOM     23  C   UNL     1      50.619   3.511  17.558  0.00  0.00    +0.000 A 
BRANCH  18  25
ATOM     24  C   UNL     1      52.054   1.346  17.541  0.00  0.00    +0.000 C 
ATOM     25  O   UNL     1      50.673   1.209  17.237  0.00  0.00    +0.000 OA
ENDBRANCH  18  25
ENDBRANCH  16  21
ENDBRANCH  15  16
ENDBRANCH   1  15
TORSDOF 7
ENDMDL
MODEL 9
REMARK VINA RESULT:    -5.923      2.265      3.945
REMARK INTER + INTRA:          -9.403
REMARK INTER:                  -8.505
REMARK INTRA:                  -0.898
REMARK UNBOUND:                -1.056
REMARK  Name = 
REMARK  9 active torsions:
REMARK  status: ('A' for Active; 'I' for Inactive)
REMARK    1  A    between atoms: C_1  and  O_2
REMARK    2  A    between atoms: O_2  and  C_3
REMARK    3  A    between atoms: C_6  and  N_7
REMARK    4  A    between atoms: N_7  and  C_8
REMARK    5  A    between atoms: C_8  and  C_9
REMARK    6  A    between atoms: C_9  and  C_10
REMARK    7  A    between atoms: C_9  and  C_11
REMARK    8  A    between atoms: C_15  and  O_16
REMARK    9  A    between atoms: O_16  and  C_17
REMARK                            x       y       z     vdW  Elec       q    Type
REMARK                         _______ _______ _______ _____ _____    ______ ____
ROOT
ATOM      1  C   UNL     1      48.173   8.296  12.901  0.00  0.00    +0.000 C 
ATOM      2  C   UNL     1      48.966   7.434  11.907  0.00  0.00    +0.000 C 
ENDROOT
BRANCH   1   3
ATOM      3  C   UNL     1      48.461   7.991  14.366  0.00  0.00    +0.000 A 
ATOM      4  C   UNL     1      48.282   8.989  15.333  0.00  0.00    +0.000 A 
ATOM      5  C   UNL     1      48.440   8.703  16.692  0.00  0.00    +0.000 A 
ATOM      6  C   UNL     1      48.772   7.412  17.109  0.00  0.00    +0.000 A 
ATOM      7  C   UNL     1      48.957   6.413  16.159  0.00  0.00    +0.000 A 
ATOM      8  C   UNL     1      48.813   6.705  14.801  0.00  0.00    +0.000 A 
BRANCH   7   9
ATOM      9  O   UNL     1      49.219   5.096  16.429  0.00  0.00    +0.000 OA
BRANCH   9  10
ATOM     10  C   UNL     1      48.439   4.410  17.427  0.00  0.00    +0.000 C 
ATOM     11  C   UNL     1      48.380   2.867  17.369  0.00  0.00    +0.000 C 
ATOM     12  N   UNL     1      46.917   2.929  17.589  0.00  0.00    +0.000 NA
ATOM     13  C   UNL     1      46.929   4.324  17.102  0.00  0.00    +0.000 C 
ATOM     14  H   UNL     1      46.647   2.848  18.570  0.00  0.00    +0.000 HD
ENDBRANCH   9  10
ENDBRANCH   7   9
ENDBRANCH   1   3
BRANCH   1  15
ATOM     15  C   UNL     1      46.651   8.240  12.611  0.00  0.00    +0.000 C 
BRANCH  15  16
ATOM     16  N   UNL     1      46.015   7.104  13.275  0.00  0.00    +0.000 N 
ATOM     17  H   UNL     1      45.250   7.375  13.892  0.00  0.00    +0.000 HD
BRANCH  16  21
ATOM     18  C   UNL     1      44.821   3.721  11.051  0.00  0.00    +0.000 A 
ATOM     19  C   UNL     1      44.981   3.613  12.430  0.00  0.00    +0.000 A 
ATOM     20  C   UNL     1      45.391   4.720  13.187  0.00  0.00    +0.000 A 
ATOM     21  C   UNL     1      45.683   5.944  12.580  0.00  0.00    +0.000 A 
ATOM     22  C   UNL     1      45.516   6.038  11.193  0.00  0.00    +0.000 A 
ATOM     23  C   UNL     1      45.095   4.940  10.435  0.00  0.00    +0.000 A 
BRANCH  18  25
ATOM     24  C   UNL     1      44.694   2.907   8.827  0.00  0.00    +0.000 C 
ATOM     25  O   UNL     1      44.402   2.732  10.206  0.00  0.00    +0.000 OA
ENDBRANCH  18  25
ENDBRANCH  16  21
ENDBRANCH  15  16
ENDBRANCH   1  15
TORSDOF 7
ENDMDL
