MODEL 1
REMARK VINA RESULT:    -7.697      0.000      0.000
REMARK INTER + INTRA:         -10.303
REMARK INTER:                  -9.722
REMARK INTRA:                  -0.581
REMARK UNBOUND:                -0.581
REMARK  Name = 
REMARK  5 active torsions:
REMARK  status: ('A' for Active; 'I' for Inactive)
REMARK    1  A    between atoms: N_1  and  C_2
REMARK    2  A    between atoms: C_2  and  C_3
REMARK    3  A    between atoms: C_3  and  C_4
REMARK    4  A    between atoms: C_7  and  C_8
REMARK    5  A    between atoms: C_8  and  N_9
REMARK                            x       y       z     vdW  Elec       q    Type
REMARK                         _______ _______ _______ _____ _____    ______ ____
ROOT
ATOM      1  C   UNL     1      45.976   2.455   8.159  0.00  0.00    +0.000 A 
ATOM      2  C   UNL     1      45.063   1.859   9.041  0.00  0.00    +0.000 A 
ATOM      3  C   UNL     1      44.254   2.648   9.858  0.00  0.00    +0.000 A 
ATOM      4  C   UNL     1      44.334   4.049   9.813  0.00  0.00    +0.000 A 
ATOM      5  C   UNL     1      45.234   4.643   8.920  0.00  0.00    +0.000 A 
ATOM      6  C   UNL     1      46.040   3.855   8.094  0.00  0.00    +0.000 A 
ENDROOT
BRANCH   1   7
ATOM      7  C   UNL     1      46.885   1.610   7.299  0.00  0.00    +0.000 C 
BRANCH   7   8
ATOM      8  C   UNL     1      48.058   2.391   6.706  0.00  0.00    +0.000 C 
BRANCH   8   9
ATOM      9  N   UNL     1      48.500   1.792   5.445  0.00  0.00    +0.000 NA
ATOM     10  H   UNL     1      47.965   0.943   5.269  0.00  0.00    +0.000 HD
ATOM     11  H   UNL     1      49.473   1.504   5.528  0.00  0.00    +0.000 HD
ENDBRANCH   8   9
ENDBRANCH   7   8
ENDBRANCH   1   7
BRANCH   4  12
ATOM     12  C   UNL     1      43.436   4.899  10.673  0.00  0.00    +0.000 C 
BRANCH  12  13
ATOM     13  N   UNL     1      44.121   5.825  11.569  0.00  0.00    +0.000 N 
ATOM     14  C   UNL     1      44.217   7.181  11.395  0.00  0.00    +0.000 A 
ATOM     15  N   UNL     1      45.268   7.680  12.008  0.00  0.00    +0.000 NA
ATOM     16  C   UNL     1      45.861   6.611  12.630  0.00  0.00    +0.000 A 
ATOM     17  C   UNL     1      47.073   6.547  13.337  0.00  0.00    +0.000 A 
ATOM     18  C   UNL     1      47.474   5.319  13.878  0.00  0.00    +0.000 A 
ATOM     19  C   UNL     1      46.663   4.190  13.763  0.00  0.00    +0.000 A 
ATOM     20  C   UNL     1      45.457   4.232  13.054  0.00  0.00    +0.000 A 
ATOM     21  C   UNL     1      45.107   5.451  12.461  0.00  0.00    +0.000 A 
ENDBRANCH  12  13
ENDBRANCH   4  12
TORSDOF 5
ENDMDL
MODEL 2
REMARK VINA RESULT:    -6.722      1.846      6.352
REMARK INTER + INTRA:          -9.072
REMARK INTER:                  -8.525
REMARK INTRA:                  -0.547
REMARK UNBOUND:                -0.581
REMARK  Name = 
REMARK  5 active torsions:
REMARK  status: ('A' for Active; 'I' for Inactive)
REMARK    1  A    between atoms: N_1  and  C_2
REMARK    2  A    between atoms: C_2  and  C_3
REMARK    3  A    between atoms: C_3  and  C_4
REMARK    4  A    between atoms: C_7  and  C_8
REMARK    5  A    between atoms: C_8  and  N_9
REMARK                            x       y       z     vdW  Elec       q    Type
REMARK                         _______ _______ _______ _____ _____    ______ ____
ROOT
ATOM      1  C   UNL     1      46.709   5.811  12.629  0.00  0.00    +0.000 A 
ATOM      2  C   UNL     1      46.651   6.452  11.384  0.00  0.00    +0.000 A 
ATOM      3  C   UNL     1      45.840   5.948  10.368  0.00  0.00    +0.000 A 
ATOM      4  C   UNL     1      45.065   4.796  10.571  0.00  0.00    +0.000 A 
ATOM      5  C   UNL     1      45.110   4.166  11.821  0.00  0.00    +0.000 A 
ATOM      6  C   UNL     1      45.916   4.673  12.843  0.00  0.00    +0.000 A 
ENDROOT
BRANCH   1   7
ATOM      7  C   UNL     1      47.616   6.324  13.723  0.00  0.00    +0.000 C 
BRANCH   7   8
ATOM      8  C   UNL     1      47.935   7.814  13.597  0.00  0.00    +0.000 C 
BRANCH   8   9
ATOM      9  N   UNL     1      46.840   8.630  14.125  0.00  0.00    +0.000 NA
ATOM     10  H   UNL     1      45.977   8.090  14.102  0.00  0.00    +0.000 HD
ATOM     11  H   UNL     1      46.692   9.433  13.519  0.00  0.00    +0.000 HD
ENDBRANCH   8   9
ENDBRANCH   7   8
ENDBRANCH   1   7
BRANCH   4  12
ATOM     12  C   UNL     1      44.164   4.273   9.484  0.00  0.00    +0.000 C 
BRANCH  12  13
ATOM     13  N   UNL     1      44.620   3.053   8.824  0.00  0.00    +0.000 N 
ATOM     14  C   UNL     1      44.389   1.775   9.261  0.00  0.00    +0.000 A 
ATOM     15  N   UNL     1      45.299   0.935   8.819  0.00  0.00    +0.000 NA
ATOM     16  C   UNL     1      46.138   1.691   8.040  0.00  0.00    +0.000 A 
ATOM     17  C   UNL     1      47.339   1.332   7.409  0.00  0.00    +0.000 A 
ATOM     18  C   UNL     1      48.028   2.300   6.667  0.00  0.00    +0.000 A 
ATOM     19  C   UNL     1      47.507   3.585   6.515  0.00  0.00    +0.000 A 
ATOM     20  C   UNL     1      46.316   3.965   7.144  0.00  0.00    +0.000 A 
ATOM     21  C   UNL     1      45.679   3.003   7.938  0.00  0.00    +0.000 A 
ENDBRANCH  12  13
ENDBRANCH   4  12
TORSDOF 5
ENDMDL
MODEL 3
REMARK VINA RESULT:    -6.692      2.205      6.188
REMARK INTER + INTRA:          -9.033
REMARK INTER:                  -8.928
REMARK INTRA:                  -0.105
REMARK UNBOUND:                -0.581
REMARK  Name = 
REMARK  5 active torsions:
REMARK  status: ('A' for Active; 'I' for Inactive)
REMARK    1  A    between atoms: N_1  and  C_2
REMARK    2  A    between atoms: C_2  and  C_3
REMARK    3  A    between atoms: C_3  and  C_4
REMARK    4  A    between atoms: C_7  and  C_8
REMARK    5  A    between atoms: C_8  and  N_9
REMARK                            x       y       z     vdW  Elec       q    Type
REMARK                         _______ _______ _______ _____ _____    ______ ____
ROOT
ATOM      1  C   UNL     1      46.564   5.079  13.220  0.00  0.00    +0.000 A 
ATOM      2  C   UNL     1      45.837   3.896  13.030  0.00  0.00    +0.000 A 
ATOM      3  C   UNL     1      45.116   3.692  11.854  0.00  0.00    +0.000 A 
ATOM      4  C   UNL     1      45.105   4.662  10.839  0.00  0.00    +0.000 A 
ATOM      5  C   UNL     1      45.846   5.836  11.023  0.00  0.00    +0.000 A 
ATOM      6  C   UNL     1      46.575   6.040  12.197  0.00  0.00    +0.000 A 
ENDROOT
BRANCH   1   7
ATOM      7  C   UNL     1      47.314   5.328  14.507  0.00  0.00    +0.000 C 
BRANCH   7   8
ATOM      8  C   UNL     1      47.089   4.243  15.561  0.00  0.00    +0.000 C 
BRANCH   8   9
ATOM      9  N   UNL     1      47.956   3.089  15.315  0.00  0.00    +0.000 NA
ATOM     10  H   UNL     1      48.759   3.382  14.762  0.00  0.00    +0.000 HD
ATOM     11  H   UNL     1      47.457   2.403  14.752  0.00  0.00    +0.000 HD
ENDBRANCH   8   9
ENDBRANCH   7   8
ENDBRANCH   1   7
BRANCH   4  12
ATOM     12  C   UNL     1      44.354   4.425   9.556  0.00  0.00    +0.000 C 
BRANCH  12  13
ATOM     13  N   UNL     1      44.652   3.167   8.878  0.00  0.00    +0.000 N 
ATOM     14  C   UNL     1      44.247   1.924   9.288  0.00  0.00    +0.000 A 
ATOM     15  N   UNL     1      45.042   0.978   8.839  0.00  0.00    +0.000 NA
ATOM     16  C   UNL     1      45.983   1.629   8.084  0.00  0.00    +0.000 A 
ATOM     17  C   UNL     1      47.133   1.123   7.457  0.00  0.00    +0.000 A 
ATOM     18  C   UNL     1      47.954   2.003   6.741  0.00  0.00    +0.000 A 
ATOM     19  C   UNL     1      47.611   3.349   6.607  0.00  0.00    +0.000 A 
ATOM     20  C   UNL     1      46.474   3.873   7.232  0.00  0.00    +0.000 A 
ATOM     21  C   UNL     1      45.704   2.991   8.001  0.00  0.00    +0.000 A 
ENDBRANCH  12  13
ENDBRANCH   4  12
TORSDOF 5
ENDMDL
MODEL 4
REMARK VINA RESULT:    -6.634      1.577      2.564
REMARK INTER + INTRA:          -8.961
REMARK INTER:                  -8.515
REMARK INTRA:                  -0.446
REMARK UNBOUND:                -0.581
REMARK  Name = 
REMARK  5 active torsions:
REMARK  status: ('A' for Active; 'I' for Inactive)
REMARK    1  A    between atoms: N_1  and  C_2
REMARK    2  A    between atoms: C_2  and  C_3
REMARK    3  A    between atoms: C_3  and  C_4
REMARK    4  A    between atoms: C_7  and  C_8
REMARK    5  A    between atoms: C_8  and  N_9
REMARK                            x       y       z     vdW  Elec       q    Type
REMARK                         _______ _______ _______ _____ _____    ______ ____
ROOT
ATOM      1  C   UNL     1      45.934   3.233   7.701  0.00  0.00    +0.000 A 
ATOM      2  C   UNL     1      46.105   4.604   7.942  0.00  0.00    +0.000 A 
ATOM      3  C   UNL     1      45.767   5.150   9.180  0.00  0.00    +0.000 A 
ATOM      4  C   UNL     1      45.252   4.343  10.207  0.00  0.00    +0.000 A 
ATOM      5  C   UNL     1      45.098   2.971   9.970  0.00  0.00    +0.000 A 
ATOM      6  C   UNL     1      45.443   2.420   8.735  0.00  0.00    +0.000 A 
ENDROOT
BRANCH   1   7
ATOM      7  C   UNL     1      46.258   2.638   6.352  0.00  0.00    +0.000 C 
BRANCH   7   8
ATOM      8  C   UNL     1      47.286   1.509   6.417  0.00  0.00    +0.000 C 
BRANCH   8   9
ATOM      9  N   UNL     1      48.499   1.862   5.677  0.00  0.00    +0.000 NA
ATOM     10  H   UNL     1      48.382   1.605   4.698  0.00  0.00    +0.000 HD
ATOM     11  H   UNL     1      49.282   1.313   6.024  0.00  0.00    +0.000 HD
ENDBRANCH   8   9
ENDBRANCH   7   8
ENDBRANCH   1   7
BRANCH   4  12
ATOM     12  C   UNL     1      44.919   4.929  11.553  0.00  0.00    +0.000 C 
BRANCH  12  13
ATOM     13  N   UNL     1      46.013   4.939  12.520  0.00  0.00    +0.000 N 
ATOM     14  C   UNL     1      46.047   4.232  13.693  0.00  0.00    +0.000 A 
ATOM     15  N   UNL     1      46.843   4.791  14.578  0.00  0.00    +0.000 NA
ATOM     16  C   UNL     1      47.370   5.888  13.944  0.00  0.00    +0.000 A 
ATOM     17  C   UNL     1      48.196   6.903  14.451  0.00  0.00    +0.000 A 
ATOM     18  C   UNL     1      48.599   7.936  13.596  0.00  0.00    +0.000 A 
ATOM     19  C   UNL     1      48.229   7.933  12.250  0.00  0.00    +0.000 A 
ATOM     20  C   UNL     1      47.399   6.934  11.728  0.00  0.00    +0.000 A 
ATOM     21  C   UNL     1      46.950   5.948  12.617  0.00  0.00    +0.000 A 
ENDBRANCH  12  13
ENDBRANCH   4  12
TORSDOF 5
ENDMDL
MODEL 5
REMARK VINA RESULT:    -6.135      2.219      6.207
REMARK INTER + INTRA:          -8.330
REMARK INTER:                  -8.036
REMARK INTRA:                  -0.294
REMARK UNBOUND:                -0.581
REMARK  Name = 
REMARK  5 active torsions:
REMARK  status: ('A' for Active; 'I' for Inactive)
REMARK    1  A    between atoms: N_1  and  C_2
REMARK    2  A    between atoms: C_2  and  C_3
REMARK    3  A    between atoms: C_3  and  C_4
REMARK    4  A    between atoms: C_7  and  C_8
REMARK    5  A    between atoms: C_8  and  N_9
REMARK                            x       y       z     vdW  Elec       q    Type
REMARK                         _______ _______ _______ _____ _____    ______ ____
ROOT
ATOM      1  C   UNL     1      47.759   6.716  13.599  0.00  0.00    +0.000 A 
ATOM      2  C   UNL     1      47.293   5.453  13.206  0.00  0.00    +0.000 A 
ATOM      3  C   UNL     1      46.105   5.332  12.487  0.00  0.00    +0.000 A 
ATOM      4  C   UNL     1      45.354   6.467  12.140  0.00  0.00    +0.000 A 
ATOM      5  C   UNL     1      45.829   7.729  12.519  0.00  0.00    +0.000 A 
ATOM      6  C   UNL     1      47.023   7.854  13.233  0.00  0.00    +0.000 A 
ENDROOT
BRANCH   1   7
ATOM      7  C   UNL     1      49.023   6.856  14.414  0.00  0.00    +0.000 C 
BRANCH   7   8
ATOM      8  C   UNL     1      48.865   6.393  15.863  0.00  0.00    +0.000 C 
BRANCH   8   9
ATOM      9  N   UNL     1      48.260   7.444  16.684  0.00  0.00    +0.000 NA
ATOM     10  H   UNL     1      48.946   7.783  17.356  0.00  0.00    +0.000 HD
ATOM     11  H   UNL     1      47.495   7.051  17.229  0.00  0.00    +0.000 HD
ENDBRANCH   8   9
ENDBRANCH   7   8
ENDBRANCH   1   7
BRANCH   4  12
ATOM     12  C   UNL     1      44.089   6.336  11.335  0.00  0.00    +0.000 C 
BRANCH  12  13
ATOM     13  N   UNL     1      43.765   4.984  10.892  0.00  0.00    +0.000 N 
ATOM     14  C   UNL     1      43.128   4.030  11.641  0.00  0.00    +0.000 A 
ATOM     15  N   UNL     1      43.418   2.813  11.233  0.00  0.00    +0.000 NA
ATOM     16  C   UNL     1      44.253   2.985  10.158  0.00  0.00    +0.000 A 
ATOM     17  C   UNL     1      44.951   2.027   9.406  0.00  0.00    +0.000 A 
ATOM     18  C   UNL     1      45.760   2.458   8.348  0.00  0.00    +0.000 A 
ATOM     19  C   UNL     1      45.834   3.811   8.012  0.00  0.00    +0.000 A 
ATOM     20  C   UNL     1      45.154   4.782   8.756  0.00  0.00    +0.000 A 
ATOM     21  C   UNL     1      44.405   4.336   9.854  0.00  0.00    +0.000 A 
ENDBRANCH  12  13
ENDBRANCH   4  12
TORSDOF 5
ENDMDL
MODEL 6
REMARK VINA RESULT:    -5.986      2.166      3.408
REMARK INTER + INTRA:          -8.142
REMARK INTER:                  -7.745
REMARK INTRA:                  -0.397
REMARK UNBOUND:                -0.581
REMARK  Name = 
REMARK  5 active torsions:
REMARK  status: ('A' for Active; 'I' for Inactive)
REMARK    1  A    between atoms: N_1  and  C_2
REMARK    2  A    between atoms: C_2  and  C_3
REMARK    3  A    between atoms: C_3  and  C_4
REMARK    4  A    between atoms: C_7  and  C_8
REMARK    5  A    between atoms: C_8  and  N_9
REMARK                            x       y       z     vdW  Elec       q    Type
REMARK                         _______ _______ _______ _____ _____    ______ ____
ROOT
ATOM      1  C   UNL     1      45.097   3.803   9.208  0.00  0.00    +0.000 A 
ATOM      2  C   UNL     1      45.388   5.152   9.456  0.00  0.00    +0.000 A 
ATOM      3  C   UNL     1      45.438   5.633  10.764  0.00  0.00    +0.000 A 
ATOM      4  C   UNL     1      45.201   4.781  11.854  0.00  0.00    +0.000 A 
ATOM      5  C   UNL     1      44.927   3.431  11.605  0.00  0.00    +0.000 A 
ATOM      6  C   UNL     1      44.884   2.944  10.297  0.00  0.00    +0.000 A 
ENDROOT
BRANCH   1   7
ATOM      7  C   UNL     1      45.000   3.280   7.794  0.00  0.00    +0.000 C 
BRANCH   7   8
ATOM      8  C   UNL     1      46.351   2.883   7.199  0.00  0.00    +0.000 C 
BRANCH   8   9
ATOM      9  N   UNL     1      47.096   4.065   6.761  0.00  0.00    +0.000 NA
ATOM     10  H   UNL     1      46.522   4.606   6.118  0.00  0.00    +0.000 HD
ATOM     11  H   UNL     1      47.917   3.773   6.235  0.00  0.00    +0.000 HD
ENDBRANCH   8   9
ENDBRANCH   7   8
ENDBRANCH   1   7
BRANCH   4  12
ATOM     12  C   UNL     1      45.288   5.296  13.266  0.00  0.00    +0.000 C 
BRANCH  12  13
ATOM     13  N   UNL     1      46.616   5.245  13.871  0.00  0.00    +0.000 N 
ATOM     14  C   UNL     1      46.989   4.436  14.911  0.00  0.00    +0.000 A 
ATOM     15  N   UNL     1      48.010   4.932  15.575  0.00  0.00    +0.000 NA
ATOM     16  C   UNL     1      48.332   6.095  14.922  0.00  0.00    +0.000 A 
ATOM     17  C   UNL     1      49.272   7.080  15.262  0.00  0.00    +0.000 A 
ATOM     18  C   UNL     1      49.410   8.197  14.428  0.00  0.00    +0.000 A 
ATOM     19  C   UNL     1      48.665   8.306  13.253  0.00  0.00    +0.000 A 
ATOM     20  C   UNL     1      47.716   7.339  12.903  0.00  0.00    +0.000 A 
ATOM     21  C   UNL     1      47.544   6.265  13.786  0.00  0.00    +0.000 A 
ENDBRANCH  12  13
ENDBRANCH   4  12
TORSDOF 5
ENDMDL
MODEL 7
REMARK VINA RESULT:    -5.373      2.970      4.670
REMARK INTER + INTRA:          -7.367
REMARK INTER:                  -6.883
REMARK INTRA:                  -0.484
REMARK UNBOUND:                -0.581
REMARK  Name = 
REMARK  5 active torsions:
REMARK  status: ('A' for Active; 'I' for Inactive)
REMARK    1  A    between atoms: N_1  and  C_2
REMARK    2  A    between atoms: C_2  and  C_3
REMARK    3  A    between atoms: C_3  and  C_4
REMARK    4  A    between atoms: C_7  and  C_8
REMARK    5  A    between atoms: C_8  and  N_9
REMARK                            x       y       z     vdW  Elec       q    Type
REMARK                         _______ _______ _______ _____ _____    ______ ____
ROOT
ATOM      1  C   UNL     1      44.904   3.909  11.048  0.00  0.00    +0.000 A 
ATOM      2  C   UNL     1      45.204   5.115  10.399  0.00  0.00    +0.000 A 
ATOM      3  C   UNL     1      45.759   6.179  11.109  0.00  0.00    +0.000 A 
ATOM      4  C   UNL     1      46.032   6.064  12.481  0.00  0.00    +0.000 A 
ATOM      5  C   UNL     1      45.748   4.853  13.124  0.00  0.00    +0.000 A 
ATOM      6  C   UNL     1      45.199   3.783  12.414  0.00  0.00    +0.000 A 
ENDROOT
BRANCH   1   7
ATOM      7  C   UNL     1      44.265   2.765  10.297  0.00  0.00    +0.000 C 
BRANCH   7   8
ATOM      8  C   UNL     1      44.830   2.570   8.890  0.00  0.00    +0.000 C 
BRANCH   8   9
ATOM      9  N   UNL     1      45.603   1.330   8.805  0.00  0.00    +0.000 NA
ATOM     10  H   UNL     1      45.063   0.630   8.300  0.00  0.00    +0.000 HD
ATOM     11  H   UNL     1      45.751   0.956   9.740  0.00  0.00    +0.000 HD
ENDBRANCH   8   9
ENDBRANCH   7   8
ENDBRANCH   1   7
BRANCH   4  12
ATOM     12  C   UNL     1      46.662   7.203  13.239  0.00  0.00    +0.000 C 
BRANCH  12  13
ATOM     13  N   UNL     1      48.060   7.008  13.614  0.00  0.00    +0.000 N 
ATOM     14  C   UNL     1      48.509   6.641  14.855  0.00  0.00    +0.000 A 
ATOM     15  N   UNL     1      49.748   7.032  15.062  0.00  0.00    +0.000 NA
ATOM     16  C   UNL     1      50.128   7.650  13.898  0.00  0.00    +0.000 A 
ATOM     17  C   UNL     1      51.309   8.346  13.600  0.00  0.00    +0.000 A 
ATOM     18  C   UNL     1      51.460   8.905  12.325  0.00  0.00    +0.000 A 
ATOM     19  C   UNL     1      50.478   8.732  11.350  0.00  0.00    +0.000 A 
ATOM     20  C   UNL     1      49.289   8.049  11.631  0.00  0.00    +0.000 A 
ATOM     21  C   UNL     1      49.127   7.558  12.933  0.00  0.00    +0.000 A 
ENDBRANCH  12  13
ENDBRANCH   4  12
TORSDOF 5
ENDMDL
MODEL 8
REMARK VINA RESULT:    -5.244      2.446      6.734
REMARK INTER + INTRA:          -7.204
REMARK INTER:                  -6.695
REMARK INTRA:                  -0.509
REMARK UNBOUND:                -0.581
REMARK  Name = 
REMARK  5 active torsions:
REMARK  status: ('A' for Active; 'I' for Inactive)
REMARK    1  A    between atoms: N_1  and  C_2
REMARK    2  A    between atoms: C_2  and  C_3
REMARK    3  A    between atoms: C_3  and  C_4
REMARK    4  A    between atoms: C_7  and  C_8
REMARK    5  A    between atoms: C_8  and  N_9
REMARK                            x       y       z     vdW  Elec       q    Type
REMARK                         _______ _______ _______ _____ _____    ______ ____
ROOT
ATOM      1  C   UNL     1      43.774   9.689  11.158  0.00  0.00    +0.000 A 
ATOM      2  C   UNL     1      42.876   8.628  10.976  0.00  0.00    +0.000 A 
ATOM      3  C   UNL     1      43.257   7.321  11.279  0.00  0.00    +0.000 A 
ATOM      4  C   UNL     1      44.541   7.042  11.773  0.00  0.00    +0.000 A 
ATOM      5  C   UNL     1      45.431   8.105  11.970  0.00  0.00    +0.000 A 
ATOM      6  C   UNL     1      45.050   9.415  11.675  0.00  0.00    +0.000 A 
ENDROOT
BRANCH   1   7
ATOM      7  C   UNL     1      43.386  11.102  10.794  0.00  0.00    +0.000 C 
BRANCH   7   8
ATOM      8  C   UNL     1      41.897  11.391  10.983  0.00  0.00    +0.000 C 
BRANCH   8   9
ATOM      9  N   UNL     1      41.221  11.516   9.691  0.00  0.00    +0.000 NA
ATOM     10  H   UNL     1      41.897  11.797   8.982  0.00  0.00    +0.000 HD
ATOM     11  H   UNL     1      40.530  12.262   9.738  0.00  0.00    +0.000 HD
ENDBRANCH   8   9
ENDBRANCH   7   8
ENDBRANCH   1   7
BRANCH   4  12
ATOM     12  C   UNL     1      44.938   5.634  12.131  0.00  0.00    +0.000 C 
BRANCH  12  13
ATOM     13  N   UNL     1      44.307   4.584  11.338  0.00  0.00    +0.000 N 
ATOM     14  C   UNL     1      43.480   3.605  11.823  0.00  0.00    +0.000 A 
ATOM     15  N   UNL     1      43.478   2.540  11.051  0.00  0.00    +0.000 NA
ATOM     16  C   UNL     1      44.313   2.851  10.008  0.00  0.00    +0.000 A 
ATOM     17  C   UNL     1      44.761   2.045   8.950  0.00  0.00    +0.000 A 
ATOM     18  C   UNL     1      45.631   2.598   8.002  0.00  0.00    +0.000 A 
ATOM     19  C   UNL     1      46.007   3.939   8.076  0.00  0.00    +0.000 A 
ATOM     20  C   UNL     1      45.578   4.756   9.128  0.00  0.00    +0.000 A 
ATOM     21  C   UNL     1      44.766   4.166  10.104  0.00  0.00    +0.000 A 
ENDBRANCH  12  13
ENDBRANCH   4  12
TORSDOF 5
ENDMDL
MODEL 9
REMARK VINA RESULT:    -4.971      3.333      5.400
REMARK INTER + INTRA:          -6.860
REMARK INTER:                  -6.380
REMARK INTRA:                  -0.480
REMARK UNBOUND:                -0.581
REMARK  Name = 
REMARK  5 active torsions:
REMARK  status: ('A' for Active; 'I' for Inactive)
REMARK    1  A    between atoms: N_1  and  C_2
REMARK    2  A    between atoms: C_2  and  C_3
REMARK    3  A    between atoms: C_3  and  C_4
REMARK    4  A    between atoms: C_7  and  C_8
REMARK    5  A    between atoms: C_8  and  N_9
REMARK                            x       y       z     vdW  Elec       q    Type
REMARK                         _______ _______ _______ _____ _____    ______ ____
ROOT
ATOM      1  C   UNL     1      44.904   5.076  11.831  0.00  0.00    +0.000 A 
ATOM      2  C   UNL     1      45.467   4.527  12.992  0.00  0.00    +0.000 A 
ATOM      3  C   UNL     1      46.655   5.039  13.510  0.00  0.00    +0.000 A 
ATOM      4  C   UNL     1      47.309   6.113  12.885  0.00  0.00    +0.000 A 
ATOM      5  C   UNL     1      46.737   6.672  11.735  0.00  0.00    +0.000 A 
ATOM      6  C   UNL     1      45.542   6.166  11.218  0.00  0.00    +0.000 A 
ENDROOT
BRANCH   1   7
ATOM      7  C   UNL     1      43.639   4.502  11.238  0.00  0.00    +0.000 C 
BRANCH   7   8
ATOM      8  C   UNL     1      43.779   3.043  10.804  0.00  0.00    +0.000 C 
BRANCH   8   9
ATOM      9  N   UNL     1      42.994   2.162  11.671  0.00  0.00    +0.000 NA
ATOM     10  H   UNL     1      43.568   1.866  12.458  0.00  0.00    +0.000 HD
ATOM     11  H   UNL     1      42.748   1.316  11.162  0.00  0.00    +0.000 HD
ENDBRANCH   8   9
ENDBRANCH   7   8
ENDBRANCH   1   7
BRANCH   4  12
ATOM     12  C   UNL     1      48.575   6.686  13.465  0.00  0.00    +0.000 C 
BRANCH  12  13
ATOM     13  N   UNL     1      48.413   7.429  14.711  0.00  0.00    +0.000 N 
ATOM     14  C   UNL     1      48.372   8.794  14.827  0.00  0.00    +0.000 A 
ATOM     15  N   UNL     1      48.736   9.194  16.026  0.00  0.00    +0.000 NA
ATOM     16  C   UNL     1      48.994   8.042  16.725  0.00  0.00    +0.000 A 
ATOM     17  C   UNL     1      49.517   7.879  18.017  0.00  0.00    +0.000 A 
ATOM     18  C   UNL     1      49.700   6.582  18.512  0.00  0.00    +0.000 A 
ATOM     19  C   UNL     1      49.323   5.470  17.757  0.00  0.00    +0.000 A 
ATOM     20  C   UNL     1      48.808   5.613  16.464  0.00  0.00    +0.000 A 
ATOM     21  C   UNL     1      48.698   6.915  15.960  0.00  0.00    +0.000 A 
ENDBRANCH  12  13
ENDBRANCH   4  12
TORSDOF 5
ENDMDL
