MODEL 1
REMARK VINA RESULT:    -8.452      0.000      0.000
REMARK INTER + INTRA:         -12.369
REMARK INTER:                 -11.417
REMARK INTRA:                  -0.952
REMARK UNBOUND:                -0.952
REMARK  Name = 
REMARK  9 active torsions:
REMARK  status: ('A' for Active; 'I' for Inactive)
REMARK    1  A    between atoms: C_1  and  N_2
REMARK    2  A    between atoms: N_5  and  C_6
REMARK    3  A    between atoms: C_10  and  C_11
REMARK    4  A    between atoms: C_11  and  C_12
REMARK    5  A    between atoms: C_11  and  C_13
REMARK    6  A    between atoms: C_11  and  C_14
REMARK    7  A    between atoms: C_14  and  N_15
REMARK    8  A    between atoms: N_15  and  C_16
REMARK    9  A    between atoms: C_19  and  C_20
REMARK                            x       y       z     vdW  Elec       q    Type
REMARK                         _______ _______ _______ _____ _____    ______ ____
ROOT
ATOM      1  C   UNL     1      43.948   4.858  12.012  0.00  0.00    +0.000 C 
ATOM      2  C   UNL     1      43.105   4.738  13.303  0.00  0.00    +0.000 C 
ATOM      3  C   UNL     1      43.168   5.727  10.995  0.00  0.00    +0.000 C 
ENDROOT
BRANCH   1   8
ATOM      4  C   UNL     1      47.183   5.809  13.931  0.00  0.00    +0.000 A 
ATOM      5  C   UNL     1      47.866   6.503  12.927  0.00  0.00    +0.000 A 
ATOM      6  C   UNL     1      47.280   6.752  11.684  0.00  0.00    +0.000 A 
ATOM      7  C   UNL     1      46.011   6.252  11.394  0.00  0.00    +0.000 A 
ATOM      8  C   UNL     1      45.289   5.534  12.359  0.00  0.00    +0.000 A 
ATOM      9  C   UNL     1      45.873   5.413  13.633  0.00  0.00    +0.000 A 
BRANCH   4  14
ATOM     10  C   UNL     1      48.176   5.216  19.365  0.00  0.00    +0.000 C 
ATOM     11  N   UNL     1      48.414   5.035  17.935  0.00  0.00    +0.000 NA
ATOM     12  C   UNL     1      47.269   4.355  17.293  0.00  0.00    +0.000 C 
ATOM     13  C   UNL     1      47.471   4.152  15.770  0.00  0.00    +0.000 C 
ATOM     14  N   UNL     1      47.770   5.440  15.123  0.00  0.00    +0.000 N 
ATOM     15  C   UNL     1      48.871   6.194  15.749  0.00  0.00    +0.000 C 
ATOM     16  C   UNL     1      48.632   6.339  17.271  0.00  0.00    +0.000 C 
ENDBRANCH   4  14
ENDBRANCH   1   8
BRANCH   1  17
ATOM     17  C   UNL     1      44.061   3.411  11.416  0.00  0.00    +0.000 C 
BRANCH  17  18
ATOM     18  N   UNL     1      43.744   3.336   9.975  0.00  0.00    +0.000 N 
ATOM     19  H   UNL     1      43.137   4.088   9.652  0.00  0.00    +0.000 HD
BRANCH  18  20
ATOM     20  C   UNL     1      44.797   3.061   9.094  0.00  0.00    +0.000 A 
ATOM     21  C   UNL     1      45.307   1.778   8.912  0.00  0.00    +0.000 A 
ATOM     22  C   UNL     1      46.274   1.524   7.947  0.00  0.00    +0.000 A 
ATOM     23  C   UNL     1      46.722   2.579   7.169  0.00  0.00    +0.000 A 
ATOM     24  N   UNL     1      46.275   3.859   7.302  0.00  0.00    +0.000 NA
ATOM     25  C   UNL     1      45.315   4.052   8.245  0.00  0.00    +0.000 A 
BRANCH  23  26
ATOM     26  C   UNL     1      47.723   2.316   6.086  0.00  0.00    +0.000 C 
ATOM     27  N   UNL     1      47.681   3.180   5.026  0.00  0.00    +0.000 N 
ATOM     28  O   UNL     1      48.520   1.390   6.133  0.00  0.00    +0.000 OA
ATOM     29  H   UNL     1      46.975   3.903   4.999  0.00  0.00    +0.000 HD
ATOM     30  H   UNL     1      48.296   3.030   4.237  0.00  0.00    +0.000 HD
ENDBRANCH  23  26
ENDBRANCH  18  20
ENDBRANCH  17  18
ENDBRANCH   1  17
TORSDOF 6
ENDMDL
MODEL 2
REMARK VINA RESULT:    -7.757      1.604      2.172
REMARK INTER + INTRA:         -11.430
REMARK INTER:                 -10.804
REMARK INTRA:                  -0.626
REMARK UNBOUND:                -0.952
REMARK  Name = 
REMARK  9 active torsions:
REMARK  status: ('A' for Active; 'I' for Inactive)
REMARK    1  A    between atoms: C_1  and  N_2
REMARK    2  A    between atoms: N_5  and  C_6
REMARK    3  A    between atoms: C_10  and  C_11
REMARK    4  A    between atoms: C_11  and  C_12
REMARK    5  A    between atoms: C_11  and  C_13
REMARK    6  A    between atoms: C_11  and  C_14
REMARK    7  A    between atoms: C_14  and  N_15
REMARK    8  A    between atoms: N_15  and  C_16
REMARK    9  A    between atoms: C_19  and  C_20
REMARK                            x       y       z     vdW  Elec       q    Type
REMARK                         _______ _______ _______ _____ _____    ______ ____
ROOT
ATOM      1  C   UNL     1      44.272   4.912  12.126  0.00  0.00    +0.000 C 
ATOM      2  C   UNL     1      45.179   3.685  12.379  0.00  0.00    +0.000 C 
ATOM      3  C   UNL     1      43.068   4.841  13.097  0.00  0.00    +0.000 C 
ENDROOT
BRANCH   1   8
ATOM      4  C   UNL     1      47.137   7.254  13.295  0.00  0.00    +0.000 A 
ATOM      5  C   UNL     1      46.754   8.440  12.662  0.00  0.00    +0.000 A 
ATOM      6  C   UNL     1      45.557   8.533  11.948  0.00  0.00    +0.000 A 
ATOM      7  C   UNL     1      44.742   7.413  11.797  0.00  0.00    +0.000 A 
ATOM      8  C   UNL     1      45.087   6.192  12.396  0.00  0.00    +0.000 A 
ATOM      9  C   UNL     1      46.239   6.182  13.203  0.00  0.00    +0.000 A 
BRANCH   4  14
ATOM     10  C   UNL     1      51.624   8.125  16.453  0.00  0.00    +0.000 C 
ATOM     11  N   UNL     1      50.769   7.400  15.516  0.00  0.00    +0.000 NA
ATOM     12  C   UNL     1      49.456   7.100  16.127  0.00  0.00    +0.000 C 
ATOM     13  C   UNL     1      48.508   6.341  15.165  0.00  0.00    +0.000 C 
ATOM     14  N   UNL     1      48.362   7.087  13.905  0.00  0.00    +0.000 N 
ATOM     15  C   UNL     1      49.638   7.462  13.270  0.00  0.00    +0.000 C 
ATOM     16  C   UNL     1      50.555   8.188  14.283  0.00  0.00    +0.000 C 
ENDBRANCH   4  14
ENDBRANCH   1   8
BRANCH   1  17
ATOM     17  C   UNL     1      43.717   4.765  10.666  0.00  0.00    +0.000 C 
BRANCH  17  18
ATOM     18  N   UNL     1      43.807   3.392  10.132  0.00  0.00    +0.000 N 
ATOM     19  H   UNL     1      42.904   2.995   9.876  0.00  0.00    +0.000 HD
BRANCH  18  20
ATOM     20  C   UNL     1      44.810   3.126   9.192  0.00  0.00    +0.000 A 
ATOM     21  C   UNL     1      45.385   1.866   9.044  0.00  0.00    +0.000 A 
ATOM     22  C   UNL     1      46.295   1.611   8.026  0.00  0.00    +0.000 A 
ATOM     23  C   UNL     1      46.620   2.642   7.159  0.00  0.00    +0.000 A 
ATOM     24  N   UNL     1      46.105   3.899   7.254  0.00  0.00    +0.000 NA
ATOM     25  C   UNL     1      45.204   4.093   8.253  0.00  0.00    +0.000 A 
BRANCH  23  26
ATOM     26  C   UNL     1      47.557   2.372   6.021  0.00  0.00    +0.000 C 
ATOM     27  N   UNL     1      47.478   3.251   4.976  0.00  0.00    +0.000 N 
ATOM     28  O   UNL     1      48.335   1.429   6.014  0.00  0.00    +0.000 OA
ATOM     29  H   UNL     1      46.787   3.989   4.995  0.00  0.00    +0.000 HD
ATOM     30  H   UNL     1      48.047   3.099   4.154  0.00  0.00    +0.000 HD
ENDBRANCH  23  26
ENDBRANCH  18  20
ENDBRANCH  17  18
ENDBRANCH   1  17
TORSDOF 6
ENDMDL
MODEL 3
REMARK VINA RESULT:    -7.225      2.658      8.143
REMARK INTER + INTRA:         -10.711
REMARK INTER:                  -9.706
REMARK INTRA:                  -1.006
REMARK UNBOUND:                -0.952
REMARK  Name = 
REMARK  9 active torsions:
REMARK  status: ('A' for Active; 'I' for Inactive)
REMARK    1  A    between atoms: C_1  and  N_2
REMARK    2  A    between atoms: N_5  and  C_6
REMARK    3  A    between atoms: C_10  and  C_11
REMARK    4  A    between atoms: C_11  and  C_12
REMARK    5  A    between atoms: C_11  and  C_13
REMARK    6  A    between atoms: C_11  and  C_14
REMARK    7  A    between atoms: C_14  and  N_15
REMARK    8  A    between atoms: N_15  and  C_16
REMARK    9  A    between atoms: C_19  and  C_20
REMARK                            x       y       z     vdW  Elec       q    Type
REMARK                         _______ _______ _______ _____ _____    ______ ____
ROOT
ATOM      1  C   UNL     1      46.513   7.787  12.122  0.00  0.00    +0.000 C 
ATOM      2  C   UNL     1      47.821   7.490  11.353  0.00  0.00    +0.000 C 
ATOM      3  C   UNL     1      45.935   9.129  11.611  0.00  0.00    +0.000 C 
ENDROOT
BRANCH   1   8
ATOM      4  C   UNL     1      44.806   4.731  10.447  0.00  0.00    +0.000 A 
ATOM      5  C   UNL     1      43.897   4.381  11.449  0.00  0.00    +0.000 A 
ATOM      6  C   UNL     1      43.752   5.152  12.605  0.00  0.00    +0.000 A 
ATOM      7  C   UNL     1      44.568   6.263  12.814  0.00  0.00    +0.000 A 
ATOM      8  C   UNL     1      45.510   6.648  11.849  0.00  0.00    +0.000 A 
ATOM      9  C   UNL     1      45.534   5.911  10.651  0.00  0.00    +0.000 A 
BRANCH   4  14
ATOM     10  C   UNL     1      47.310   1.219   6.945  0.00  0.00    +0.000 C 
ATOM     11  N   UNL     1      46.247   2.098   7.423  0.00  0.00    +0.000 NA
ATOM     12  C   UNL     1      45.722   1.630   8.724  0.00  0.00    +0.000 C 
ATOM     13  C   UNL     1      44.597   2.540   9.278  0.00  0.00    +0.000 C 
ATOM     14  N   UNL     1      45.064   3.933   9.352  0.00  0.00    +0.000 N 
ATOM     15  C   UNL     1      45.647   4.446   8.099  0.00  0.00    +0.000 C 
ATOM     16  C   UNL     1      46.740   3.484   7.576  0.00  0.00    +0.000 C 
ENDBRANCH   4  14
ENDBRANCH   1   8
BRANCH   1  17
ATOM     17  C   UNL     1      46.913   7.981  13.627  0.00  0.00    +0.000 C 
BRANCH  17  18
ATOM     18  N   UNL     1      48.206   7.362  13.982  0.00  0.00    +0.000 N 
ATOM     19  H   UNL     1      48.942   8.040  14.177  0.00  0.00    +0.000 HD
BRANCH  18  20
ATOM     20  C   UNL     1      48.186   6.295  14.888  0.00  0.00    +0.000 A 
ATOM     21  C   UNL     1      48.791   6.364  16.141  0.00  0.00    +0.000 A 
ATOM     22  C   UNL     1      48.654   5.330  17.059  0.00  0.00    +0.000 A 
ATOM     23  C   UNL     1      47.899   4.224  16.698  0.00  0.00    +0.000 A 
ATOM     24  N   UNL     1      47.291   4.088  15.487  0.00  0.00    +0.000 NA
ATOM     25  C   UNL     1      47.438   5.135  14.632  0.00  0.00    +0.000 A 
BRANCH  23  26
ATOM     26  C   UNL     1      47.694   3.123  17.693  0.00  0.00    +0.000 C 
ATOM     27  N   UNL     1      48.755   2.874  18.519  0.00  0.00    +0.000 N 
ATOM     28  O   UNL     1      46.656   2.480  17.763  0.00  0.00    +0.000 OA
ATOM     29  H   UNL     1      49.615   3.392  18.397  0.00  0.00    +0.000 HD
ATOM     30  H   UNL     1      48.703   2.111  19.181  0.00  0.00    +0.000 HD
ENDBRANCH  23  26
ENDBRANCH  18  20
ENDBRANCH  17  18
ENDBRANCH   1  17
TORSDOF 6
ENDMDL
MODEL 4
REMARK VINA RESULT:    -6.686      3.858      7.918
REMARK INTER + INTRA:          -9.984
REMARK INTER:                  -8.682
REMARK INTRA:                  -1.302
REMARK UNBOUND:                -0.952
REMARK  Name = 
REMARK  9 active torsions:
REMARK  status: ('A' for Active; 'I' for Inactive)
REMARK    1  A    between atoms: C_1  and  N_2
REMARK    2  A    between atoms: N_5  and  C_6
REMARK    3  A    between atoms: C_10  and  C_11
REMARK    4  A    between atoms: C_11  and  C_12
REMARK    5  A    between atoms: C_11  and  C_13
REMARK    6  A    between atoms: C_11  and  C_14
REMARK    7  A    between atoms: C_14  and  N_15
REMARK    8  A    between atoms: N_15  and  C_16
REMARK    9  A    between atoms: C_19  and  C_20
REMARK                            x       y       z     vdW  Elec       q    Type
REMARK                         _______ _______ _______ _____ _____    ______ ____
ROOT
ATOM      1  C   UNL     1      48.811   8.934  12.593  0.00  0.00    +0.000 C 
ATOM      2  C   UNL     1      49.500   7.728  11.913  0.00  0.00    +0.000 C 
ATOM      3  C   UNL     1      49.526  10.229  12.138  0.00  0.00    +0.000 C 
ENDROOT
BRANCH   1   8
ATOM      4  C   UNL     1      45.163   7.802  11.909  0.00  0.00    +0.000 A 
ATOM      5  C   UNL     1      44.569   9.040  11.650  0.00  0.00    +0.000 A 
ATOM      6  C   UNL     1      45.323  10.215  11.598  0.00  0.00    +0.000 A 
ATOM      7  C   UNL     1      46.690  10.183  11.871  0.00  0.00    +0.000 A 
ATOM      8  C   UNL     1      47.333   8.970  12.155  0.00  0.00    +0.000 A 
ATOM      9  C   UNL     1      46.554   7.802  12.077  0.00  0.00    +0.000 A 
BRANCH   4  14
ATOM     10  C   UNL     1      43.441   2.537  11.486  0.00  0.00    +0.000 C 
ATOM     11  N   UNL     1      43.425   3.912  11.975  0.00  0.00    +0.000 NA
ATOM     12  C   UNL     1      44.697   4.245  12.652  0.00  0.00    +0.000 C 
ATOM     13  C   UNL     1      44.733   5.702  13.179  0.00  0.00    +0.000 C 
ATOM     14  N   UNL     1      44.439   6.642  12.086  0.00  0.00    +0.000 N 
ATOM     15  C   UNL     1      43.207   6.336  11.336  0.00  0.00    +0.000 C 
ATOM     16  C   UNL     1      43.212   4.863  10.863  0.00  0.00    +0.000 C 
ENDBRANCH   4  14
ENDBRANCH   1   8
BRANCH   1  17
ATOM     17  C   UNL     1      49.049   8.774  14.136  0.00  0.00    +0.000 C 
BRANCH  17  18
ATOM     18  N   UNL     1      49.799   7.555  14.498  0.00  0.00    +0.000 N 
ATOM     19  H   UNL     1      50.758   7.738  14.787  0.00  0.00    +0.000 HD
BRANCH  18  20
ATOM     20  C   UNL     1      49.151   6.612  15.305  0.00  0.00    +0.000 A 
ATOM     21  C   UNL     1      48.081   5.844  14.850  0.00  0.00    +0.000 A 
ATOM     22  C   UNL     1      47.536   4.839  15.640  0.00  0.00    +0.000 A 
ATOM     23  C   UNL     1      48.082   4.618  16.894  0.00  0.00    +0.000 A 
ATOM     24  N   UNL     1      49.119   5.338  17.404  0.00  0.00    +0.000 NA
ATOM     25  C   UNL     1      49.630   6.296  16.586  0.00  0.00    +0.000 A 
BRANCH  23  26
ATOM     26  C   UNL     1      47.545   3.502  17.739  0.00  0.00    +0.000 C 
ATOM     27  N   UNL     1      48.300   3.180  18.833  0.00  0.00    +0.000 N 
ATOM     28  O   UNL     1      46.510   2.909  17.471  0.00  0.00    +0.000 OA
ATOM     29  H   UNL     1      49.176   3.659  18.993  0.00  0.00    +0.000 HD
ATOM     30  H   UNL     1      48.023   2.404  19.418  0.00  0.00    +0.000 HD
ENDBRANCH  23  26
ENDBRANCH  18  20
ENDBRANCH  17  18
ENDBRANCH   1  17
TORSDOF 6
ENDMDL
MODEL 5
REMARK VINA RESULT:    -6.666      3.083      5.190
REMARK INTER + INTRA:          -9.956
REMARK INTER:                  -8.769
REMARK INTRA:                  -1.186
REMARK UNBOUND:                -0.952
REMARK  Name = 
REMARK  9 active torsions:
REMARK  status: ('A' for Active; 'I' for Inactive)
REMARK    1  A    between atoms: C_1  and  N_2
REMARK    2  A    between atoms: N_5  and  C_6
REMARK    3  A    between atoms: C_10  and  C_11
REMARK    4  A    between atoms: C_11  and  C_12
REMARK    5  A    between atoms: C_11  and  C_13
REMARK    6  A    between atoms: C_11  and  C_14
REMARK    7  A    between atoms: C_14  and  N_15
REMARK    8  A    between atoms: N_15  and  C_16
REMARK    9  A    between atoms: C_19  and  C_20
REMARK                            x       y       z     vdW  Elec       q    Type
REMARK                         _______ _______ _______ _____ _____    ______ ____
ROOT
ATOM      1  C   UNL     1      48.520   8.241  13.278  0.00  0.00    +0.000 C 
ATOM      2  C   UNL     1      49.381   9.482  12.946  0.00  0.00    +0.000 C 
ATOM      3  C   UNL     1      49.194   6.995  12.654  0.00  0.00    +0.000 C 
ENDROOT
BRANCH   1   8
ATOM      4  C   UNL     1      48.791   6.679  16.819  0.00  0.00    +0.000 A 
ATOM      5  C   UNL     1      48.618   7.823  17.603  0.00  0.00    +0.000 A 
ATOM      6  C   UNL     1      48.327   9.064  17.030  0.00  0.00    +0.000 A 
ATOM      7  C   UNL     1      48.265   9.198  15.644  0.00  0.00    +0.000 A 
ATOM      8  C   UNL     1      48.448   8.086  14.810  0.00  0.00    +0.000 A 
ATOM      9  C   UNL     1      48.619   6.839  15.437  0.00  0.00    +0.000 A 
BRANCH   4  14
ATOM     10  C   UNL     1      51.000   1.600  17.254  0.00  0.00    +0.000 C 
ATOM     11  N   UNL     1      50.319   2.805  17.719  0.00  0.00    +0.000 NA
ATOM     12  C   UNL     1      51.178   3.996  17.543  0.00  0.00    +0.000 C 
ATOM     13  C   UNL     1      50.492   5.304  18.012  0.00  0.00    +0.000 C 
ATOM     14  N   UNL     1      49.196   5.466  17.335  0.00  0.00    +0.000 N 
ATOM     15  C   UNL     1      48.310   4.292  17.430  0.00  0.00    +0.000 C 
ATOM     16  C   UNL     1      49.055   3.013  16.979  0.00  0.00    +0.000 C 
ENDBRANCH   4  14
ENDBRANCH   1   8
BRANCH   1  17
ATOM     17  C   UNL     1      47.141   8.448  12.559  0.00  0.00    +0.000 C 
BRANCH  17  18
ATOM     18  N   UNL     1      46.017   7.757  13.220  0.00  0.00    +0.000 N 
ATOM     19  H   UNL     1      45.239   8.373  13.452  0.00  0.00    +0.000 HD
BRANCH  18  20
ATOM     20  C   UNL     1      45.606   6.531  12.684  0.00  0.00    +0.000 A 
ATOM     21  C   UNL     1      45.835   5.316  13.327  0.00  0.00    +0.000 A 
ATOM     22  C   UNL     1      45.314   4.131  12.823  0.00  0.00    +0.000 A 
ATOM     23  C   UNL     1      44.559   4.184  11.662  0.00  0.00    +0.000 A 
ATOM     24  N   UNL     1      44.306   5.334  10.978  0.00  0.00    +0.000 NA
ATOM     25  C   UNL     1      44.820   6.469  11.522  0.00  0.00    +0.000 A 
BRANCH  23  26
ATOM     26  C   UNL     1      43.942   2.926  11.133  0.00  0.00    +0.000 C 
ATOM     27  N   UNL     1      44.534   2.408  10.014  0.00  0.00    +0.000 N 
ATOM     28  O   UNL     1      42.970   2.395  11.653  0.00  0.00    +0.000 OA
ATOM     29  H   UNL     1      45.304   2.902   9.583  0.00  0.00    +0.000 HD
ATOM     30  H   UNL     1      44.138   1.588   9.575  0.00  0.00    +0.000 HD
ENDBRANCH  23  26
ENDBRANCH  18  20
ENDBRANCH  17  18
ENDBRANCH   1  17
TORSDOF 6
ENDMDL
MODEL 6
REMARK VINA RESULT:    -6.638      2.083      3.150
REMARK INTER + INTRA:          -9.918
REMARK INTER:                  -9.503
REMARK INTRA:                  -0.416
REMARK UNBOUND:                -0.952
REMARK  Name = 
REMARK  9 active torsions:
REMARK  status: ('A' for Active; 'I' for Inactive)
REMARK    1  A    between atoms: C_1  and  N_2
REMARK    2  A    between atoms: N_5  and  C_6
REMARK    3  A    between atoms: C_10  and  C_11
REMARK    4  A    between atoms: C_11  and  C_12
REMARK    5  A    between atoms: C_11  and  C_13
REMARK    6  A    between atoms: C_11  and  C_14
REMARK    7  A    between atoms: C_14  and  N_15
REMARK    8  A    between atoms: N_15  and  C_16
REMARK    9  A    between atoms: C_19  and  C_20
REMARK                            x       y       z     vdW  Elec       q    Type
REMARK                         _______ _______ _______ _____ _____    ______ ____
ROOT
ATOM      1  C   UNL     1      45.679   5.298  12.575  0.00  0.00    +0.000 C 
ATOM      2  C   UNL     1      44.366   5.963  13.047  0.00  0.00    +0.000 C 
ATOM      3  C   UNL     1      46.258   6.130  11.405  0.00  0.00    +0.000 C 
ENDROOT
BRANCH   1   8
ATOM      4  C   UNL     1      48.441   6.435  15.052  0.00  0.00    +0.000 A 
ATOM      5  C   UNL     1      48.307   5.450  16.034  0.00  0.00    +0.000 A 
ATOM      6  C   UNL     1      47.421   4.381  15.880  0.00  0.00    +0.000 A 
ATOM      7  C   UNL     1      46.596   4.311  14.758  0.00  0.00    +0.000 A 
ATOM      8  C   UNL     1      46.676   5.283  13.751  0.00  0.00    +0.000 A 
ATOM      9  C   UNL     1      47.666   6.271  13.895  0.00  0.00    +0.000 A 
BRANCH   4  14
ATOM     10  C   UNL     1      52.264   9.980  16.971  0.00  0.00    +0.000 C 
ATOM     11  N   UNL     1      51.173   9.527  16.112  0.00  0.00    +0.000 NA
ATOM     12  C   UNL     1      51.567   8.321  15.353  0.00  0.00    +0.000 C 
ATOM     13  C   UNL     1      50.436   7.795  14.434  0.00  0.00    +0.000 C 
ATOM     14  N   UNL     1      49.213   7.566  15.219  0.00  0.00    +0.000 N 
ATOM     15  C   UNL     1      48.793   8.716  16.041  0.00  0.00    +0.000 C 
ATOM     16  C   UNL     1      49.969   9.217  16.913  0.00  0.00    +0.000 C 
ENDBRANCH   4  14
ENDBRANCH   1   8
BRANCH   1  17
ATOM     17  C   UNL     1      45.287   3.887  12.009  0.00  0.00    +0.000 C 
BRANCH  17  18
ATOM     18  N   UNL     1      44.483   3.946  10.773  0.00  0.00    +0.000 N 
ATOM     19  H   UNL     1      43.943   4.805  10.679  0.00  0.00    +0.000 HD
BRANCH  18  20
ATOM     20  C   UNL     1      45.100   3.550   9.580  0.00  0.00    +0.000 A 
ATOM     21  C   UNL     1      45.606   4.464   8.658  0.00  0.00    +0.000 A 
ATOM     22  C   UNL     1      46.312   4.035   7.541  0.00  0.00    +0.000 A 
ATOM     23  C   UNL     1      46.502   2.674   7.364  0.00  0.00    +0.000 A 
ATOM     24  N   UNL     1      46.025   1.728   8.219  0.00  0.00    +0.000 NA
ATOM     25  C   UNL     1      45.358   2.198   9.306  0.00  0.00    +0.000 A 
BRANCH  23  26
ATOM     26  C   UNL     1      47.308   2.194   6.196  0.00  0.00    +0.000 C 
ATOM     27  N   UNL     1      46.976   2.746   4.989  0.00  0.00    +0.000 N 
ATOM     28  O   UNL     1      48.197   1.360   6.302  0.00  0.00    +0.000 OA
ATOM     29  H   UNL     1      46.202   3.395   4.932  0.00  0.00    +0.000 HD
ATOM     30  H   UNL     1      47.446   2.431   4.151  0.00  0.00    +0.000 HD
ENDBRANCH  23  26
ENDBRANCH  18  20
ENDBRANCH  17  18
ENDBRANCH   1  17
TORSDOF 6
ENDMDL
MODEL 7
REMARK VINA RESULT:    -6.397      3.867      8.155
REMARK INTER + INTRA:          -9.593
REMARK INTER:                  -8.350
REMARK INTRA:                  -1.242
REMARK UNBOUND:                -0.952
REMARK  Name = 
REMARK  9 active torsions:
REMARK  status: ('A' for Active; 'I' for Inactive)
REMARK    1  A    between atoms: C_1  and  N_2
REMARK    2  A    between atoms: N_5  and  C_6
REMARK    3  A    between atoms: C_10  and  C_11
REMARK    4  A    between atoms: C_11  and  C_12
REMARK    5  A    between atoms: C_11  and  C_13
REMARK    6  A    between atoms: C_11  and  C_14
REMARK    7  A    between atoms: C_14  and  N_15
REMARK    8  A    between atoms: N_15  and  C_16
REMARK    9  A    between atoms: C_19  and  C_20
REMARK                            x       y       z     vdW  Elec       q    Type
REMARK                         _______ _______ _______ _____ _____    ______ ____
ROOT
ATOM      1  C   UNL     1      49.267   9.143  15.484  0.00  0.00    +0.000 C 
ATOM      2  C   UNL     1      49.792  10.548  15.110  0.00  0.00    +0.000 C 
ATOM      3  C   UNL     1      48.028   9.309  16.398  0.00  0.00    +0.000 C 
ENDROOT
BRANCH   1   8
ATOM      4  C   UNL     1      47.350   6.830  13.028  0.00  0.00    +0.000 A 
ATOM      5  C   UNL     1      47.907   7.248  11.816  0.00  0.00    +0.000 A 
ATOM      6  C   UNL     1      48.943   8.184  11.773  0.00  0.00    +0.000 A 
ATOM      7  C   UNL     1      49.404   8.774  12.949  0.00  0.00    +0.000 A 
ATOM      8  C   UNL     1      48.868   8.404  14.191  0.00  0.00    +0.000 A 
ATOM      9  C   UNL     1      47.912   7.372  14.191  0.00  0.00    +0.000 A 
BRANCH   4  14
ATOM     10  C   UNL     1      43.370   3.198  11.672  0.00  0.00    +0.000 C 
ATOM     11  N   UNL     1      44.112   4.103  12.545  0.00  0.00    +0.000 NA
ATOM     12  C   UNL     1      45.521   3.675  12.673  0.00  0.00    +0.000 C 
ATOM     13  C   UNL     1      46.353   4.614  13.582  0.00  0.00    +0.000 C 
ATOM     14  N   UNL     1      46.249   6.002  13.105  0.00  0.00    +0.000 N 
ATOM     15  C   UNL     1      44.868   6.475  12.908  0.00  0.00    +0.000 C 
ATOM     16  C   UNL     1      44.077   5.485  12.020  0.00  0.00    +0.000 C 
ENDBRANCH   4  14
ENDBRANCH   1   8
BRANCH   1  17
ATOM     17  C   UNL     1      50.395   8.453  16.330  0.00  0.00    +0.000 C 
BRANCH  17  18
ATOM     18  N   UNL     1      49.893   7.748  17.525  0.00  0.00    +0.000 N 
ATOM     19  H   UNL     1      49.014   8.122  17.880  0.00  0.00    +0.000 HD
BRANCH  18  20
ATOM     20  C   UNL     1      49.931   6.348  17.514  0.00  0.00    +0.000 A 
ATOM     21  C   UNL     1      48.779   5.566  17.575  0.00  0.00    +0.000 A 
ATOM     22  C   UNL     1      48.846   4.185  17.447  0.00  0.00    +0.000 A 
ATOM     23  C   UNL     1      50.088   3.600  17.257  0.00  0.00    +0.000 A 
ATOM     24  N   UNL     1      51.253   4.303  17.200  0.00  0.00    +0.000 NA
ATOM     25  C   UNL     1      51.133   5.652  17.310  0.00  0.00    +0.000 A 
BRANCH  23  26
ATOM     26  C   UNL     1      50.176   2.117  17.061  0.00  0.00    +0.000 C 
ATOM     27  N   UNL     1      51.040   1.465  17.898  0.00  0.00    +0.000 N 
ATOM     28  O   UNL     1      49.530   1.522  16.209  0.00  0.00    +0.000 OA
ATOM     29  H   UNL     1      51.594   1.997  18.556  0.00  0.00    +0.000 HD
ATOM     30  H   UNL     1      51.186   0.471  17.787  0.00  0.00    +0.000 HD
ENDBRANCH  23  26
ENDBRANCH  18  20
ENDBRANCH  17  18
ENDBRANCH   1  17
TORSDOF 6
ENDMDL
MODEL 8
REMARK VINA RESULT:    -6.131      4.508      8.917
REMARK INTER + INTRA:          -9.233
REMARK INTER:                  -8.860
REMARK INTRA:                  -0.373
REMARK UNBOUND:                -0.952
REMARK  Name = 
REMARK  9 active torsions:
REMARK  status: ('A' for Active; 'I' for Inactive)
REMARK    1  A    between atoms: C_1  and  N_2
REMARK    2  A    between atoms: N_5  and  C_6
REMARK    3  A    between atoms: C_10  and  C_11
REMARK    4  A    between atoms: C_11  and  C_12
REMARK    5  A    between atoms: C_11  and  C_13
REMARK    6  A    between atoms: C_11  and  C_14
REMARK    7  A    between atoms: C_14  and  N_15
REMARK    8  A    between atoms: N_15  and  C_16
REMARK    9  A    between atoms: C_19  and  C_20
REMARK                            x       y       z     vdW  Elec       q    Type
REMARK                         _______ _______ _______ _____ _____    ______ ____
ROOT
ATOM      1  C   UNL     1      47.894   4.478  17.576  0.00  0.00    +0.000 C 
ATOM      2  C   UNL     1      47.035   5.343  18.527  0.00  0.00    +0.000 C 
ATOM      3  C   UNL     1      47.201   3.104  17.401  0.00  0.00    +0.000 C 
ENDROOT
BRANCH   1   8
ATOM      4  C   UNL     1      47.092   5.547  13.933  0.00  0.00    +0.000 A 
ATOM      5  C   UNL     1      47.932   6.658  13.816  0.00  0.00    +0.000 A 
ATOM      6  C   UNL     1      48.814   7.018  14.838  0.00  0.00    +0.000 A 
ATOM      7  C   UNL     1      48.827   6.304  16.035  0.00  0.00    +0.000 A 
ATOM      8  C   UNL     1      47.992   5.192  16.213  0.00  0.00    +0.000 A 
ATOM      9  C   UNL     1      47.211   4.799  15.112  0.00  0.00    +0.000 A 
BRANCH   4  14
ATOM     10  C   UNL     1      44.617   3.709   9.311  0.00  0.00    +0.000 C 
ATOM     11  N   UNL     1      44.688   4.303  10.643  0.00  0.00    +0.000 NA
ATOM     12  C   UNL     1      45.292   3.360  11.609  0.00  0.00    +0.000 C 
ATOM     13  C   UNL     1      45.400   3.952  13.037  0.00  0.00    +0.000 C 
ATOM     14  N   UNL     1      46.126   5.231  13.000  0.00  0.00    +0.000 N 
ATOM     15  C   UNL     1      45.604   6.199  12.019  0.00  0.00    +0.000 C 
ATOM     16  C   UNL     1      45.489   5.546  10.621  0.00  0.00    +0.000 C 
ENDBRANCH   4  14
ENDBRANCH   1   8
BRANCH   1  17
ATOM     17  C   UNL     1      49.261   4.233  18.305  0.00  0.00    +0.000 C 
BRANCH  17  18
ATOM     18  N   UNL     1      50.424   4.213  17.396  0.00  0.00    +0.000 N 
ATOM     19  H   UNL     1      50.890   5.114  17.311  0.00  0.00    +0.000 HD
BRANCH  18  20
ATOM     20  C   UNL     1      51.317   3.140  17.511  0.00  0.00    +0.000 A 
ATOM     21  C   UNL     1      52.622   3.297  17.974  0.00  0.00    +0.000 A 
ATOM     22  C   UNL     1      53.442   2.195  18.183  0.00  0.00    +0.000 A 
ATOM     23  C   UNL     1      52.932   0.934  17.920  0.00  0.00    +0.000 A 
ATOM     24  N   UNL     1      51.672   0.711  17.457  0.00  0.00    +0.000 NA
ATOM     25  C   UNL     1      50.901   1.818  17.287  0.00  0.00    +0.000 A 
BRANCH  23  26
ATOM     26  C   UNL     1      53.783  -0.270  18.193  0.00  0.00    +0.000 C 
ATOM     27  N   UNL     1      54.200  -0.954  17.084  0.00  0.00    +0.000 N 
ATOM     28  O   UNL     1      54.079  -0.628  19.324  0.00  0.00    +0.000 OA
ATOM     29  H   UNL     1      53.893  -0.657  16.168  0.00  0.00    +0.000 HD
ATOM     30  H   UNL     1      54.736  -1.805  17.197  0.00  0.00    +0.000 HD
ENDBRANCH  23  26
ENDBRANCH  18  20
ENDBRANCH  17  18
ENDBRANCH   1  17
TORSDOF 6
ENDMDL
MODEL 9
REMARK VINA RESULT:    -5.881      4.789      7.464
REMARK INTER + INTRA:          -8.897
REMARK INTER:                  -8.018
REMARK INTRA:                  -0.879
REMARK UNBOUND:                -0.952
REMARK  Name = 
REMARK  9 active torsions:
REMARK  status: ('A' for Active; 'I' for Inactive)
REMARK    1  A    between atoms: C_1  and  N_2
REMARK    2  A    between atoms: N_5  and  C_6
REMARK    3  A    between atoms: C_10  and  C_11
REMARK    4  A    between atoms: C_11  and  C_12
REMARK    5  A    between atoms: C_11  and  C_13
REMARK    6  A    between atoms: C_11  and  C_14
REMARK    7  A    between atoms: C_14  and  N_15
REMARK    8  A    between atoms: N_15  and  C_16
REMARK    9  A    between atoms: C_19  and  C_20
REMARK                            x       y       z     vdW  Elec       q    Type
REMARK                         _______ _______ _______ _____ _____    ______ ____
ROOT
ATOM      1  C   UNL     1      48.955   8.723  12.503  0.00  0.00    +0.000 C 
ATOM      2  C   UNL     1      49.287   8.940  13.998  0.00  0.00    +0.000 C 
ATOM      3  C   UNL     1      47.619   9.440  12.188  0.00  0.00    +0.000 C 
ENDROOT
BRANCH   1   8
ATOM      4  C   UNL     1      52.019   8.995  10.138  0.00  0.00    +0.000 A 
ATOM      5  C   UNL     1      51.990  10.364   9.860  0.00  0.00    +0.000 A 
ATOM      6  C   UNL     1      51.074  11.216  10.480  0.00  0.00    +0.000 A 
ATOM      7  C   UNL     1      50.116  10.700  11.352  0.00  0.00    +0.000 A 
ATOM      8  C   UNL     1      50.088   9.331  11.653  0.00  0.00    +0.000 A 
ATOM      9  C   UNL     1      51.106   8.535  11.096  0.00  0.00    +0.000 A 
BRANCH   4  14
ATOM     10  C   UNL     1      53.734   4.572   7.246  0.00  0.00    +0.000 C 
ATOM     11  N   UNL     1      53.870   5.851   7.938  0.00  0.00    +0.000 NA
ATOM     12  C   UNL     1      53.009   6.879   7.315  0.00  0.00    +0.000 C 
ATOM     13  C   UNL     1      53.110   8.254   8.024  0.00  0.00    +0.000 C 
ATOM     14  N   UNL     1      52.825   8.105   9.459  0.00  0.00    +0.000 N 
ATOM     15  C   UNL     1      53.616   7.057  10.131  0.00  0.00    +0.000 C 
ATOM     16  C   UNL     1      53.503   5.718   9.364  0.00  0.00    +0.000 C 
ENDBRANCH   4  14
ENDBRANCH   1   8
BRANCH   1  17
ATOM     17  C   UNL     1      48.727   7.182  12.314  0.00  0.00    +0.000 C 
BRANCH  17  18
ATOM     18  N   UNL     1      47.747   6.607  13.257  0.00  0.00    +0.000 N 
ATOM     19  H   UNL     1      47.385   7.282  13.930  0.00  0.00    +0.000 HD
BRANCH  18  20
ATOM     20  C   UNL     1      46.756   5.770  12.730  0.00  0.00    +0.000 A 
ATOM     21  C   UNL     1      46.149   6.009  11.499  0.00  0.00    +0.000 A 
ATOM     22  C   UNL     1      45.253   5.097  10.955  0.00  0.00    +0.000 A 
ATOM     23  C   UNL     1      44.976   3.941  11.668  0.00  0.00    +0.000 A 
ATOM     24  N   UNL     1      45.524   3.651  12.880  0.00  0.00    +0.000 NA
ATOM     25  C   UNL     1      46.409   4.564  13.360  0.00  0.00    +0.000 A 
BRANCH  23  26
ATOM     26  C   UNL     1      44.055   2.919  11.073  0.00  0.00    +0.000 C 
ATOM     27  N   UNL     1      44.549   2.246   9.989  0.00  0.00    +0.000 N 
ATOM     28  O   UNL     1      42.935   2.702  11.512  0.00  0.00    +0.000 OA
ATOM     29  H   UNL     1      45.459   2.488   9.623  0.00  0.00    +0.000 HD
ATOM     30  H   UNL     1      43.961   1.578   9.508  0.00  0.00    +0.000 HD
ENDBRANCH  23  26
ENDBRANCH  18  20
ENDBRANCH  17  18
ENDBRANCH   1  17
TORSDOF 6
ENDMDL
