MODEL 1
REMARK VINA RESULT:    -7.688      0.000      0.000
REMARK INTER + INTRA:         -14.424
REMARK INTER:                 -13.081
REMARK INTRA:                  -1.344
REMARK UNBOUND:                -1.344
REMARK  Name = 
REMARK  13 active torsions:
REMARK  status: ('A' for Active; 'I' for Inactive)
REMARK    1  A    between atoms: N_1  and  CA_2
REMARK    2  A    between atoms: CA_2  and  C_3
REMARK    3  A    between atoms: CA_2  and  C_5
REMARK    4  A    between atoms: C_3  and  O_4
REMARK    5  A    between atoms: C_5  and  C_6
REMARK    6  A    between atoms: C_6  and  N_7
REMARK    7  A    between atoms: C_6  and  C_24
REMARK    8  A    between atoms: N_7  and  C_8
REMARK    9  A    between atoms: C_8  and  C_9
REMARK   10  A    between atoms: C_12  and  C_13
REMARK   11  A    between atoms: C_13  and  N_14
REMARK   12  A    between atoms: N_14  and  C_15
REMARK   13  A    between atoms: C_15  and  C_16
REMARK                            x       y       z     vdW  Elec       q    Type
REMARK                         _______ _______ _______ _____ _____    ______ ____
ROOT
ATOM      1  C   UNL     1      48.215   6.138  16.473  0.00  0.00    +0.000 C 
ENDROOT
BRANCH   1   2
ATOM      2  C   UNL     1      49.186   7.273  16.776  0.00  0.00    +0.000 A 
ATOM      3  C   UNL     1      48.765   8.543  17.153  0.00  0.00    +0.000 A 
ATOM      4  S   UNL     1      49.931   9.752  16.819  0.00  0.00    +0.000 S 
ATOM      5  C   UNL     1      51.076   8.588  16.337  0.00  0.00    +0.000 A 
ATOM      6  N   UNL     1      52.285   8.951  15.829  0.00  0.00    +0.000 NA
ATOM      7  C   UNL     1      53.084   7.958  15.612  0.00  0.00    +0.000 A 
ATOM      8  N   UNL     1      52.797   6.646  15.891  0.00  0.00    +0.000 N 
ATOM      9  C   UNL     1      51.593   6.238  16.423  0.00  0.00    +0.000 A 
ATOM     10  O   UNL     1      51.445   5.092  16.836  0.00  0.00    +0.000 OA
ATOM     11  C   UNL     1      50.616   7.301  16.561  0.00  0.00    +0.000 A 
ATOM     12  H   UNL     1      53.511   5.938  15.828  0.00  0.00    +0.000 HD
ENDBRANCH   1   2
BRANCH   1  13
ATOM     13  N   UNL     1      48.573   5.704  15.098  0.00  0.00    +0.000 NA
ATOM     14  H   UNL     1      49.588   5.607  15.031  0.00  0.00    +0.000 HD
BRANCH  13  15
ATOM     15  C   UNL     1      48.150   6.641  14.055  0.00  0.00    +0.000 C 
BRANCH  15  16
ATOM     16  C   UNL     1      47.082   6.084  13.136  0.00  0.00    +0.000 A 
ATOM     17  C   UNL     1      46.202   5.082  13.575  0.00  0.00    +0.000 A 
ATOM     18  C   UNL     1      45.111   4.685  12.785  0.00  0.00    +0.000 A 
ATOM     19  C   UNL     1      44.880   5.294  11.546  0.00  0.00    +0.000 A 
ATOM     20  C   UNL     1      45.774   6.274  11.093  0.00  0.00    +0.000 A 
ATOM     21  C   UNL     1      46.864   6.668  11.882  0.00  0.00    +0.000 A 
BRANCH  19  22
ATOM     22  C   UNL     1      43.676   4.903  10.703  0.00  0.00    +0.000 C 
BRANCH  22  23
ATOM     23  N   UNL     1      44.073   4.447   9.373  0.00  0.00    +0.000 NA
ATOM     24  H   UNL     1      44.872   4.991   9.044  0.00  0.00    +0.000 HD
BRANCH  23  25
ATOM     25  C   UNL     1      44.480   3.027   9.391  0.00  0.00    +0.000 C 
BRANCH  25  26
ATOM     26  C   UNL     1      45.511   2.686   8.321  0.00  0.00    +0.000 A 
ATOM     27  N   UNL     1      46.088   1.463   8.375  0.00  0.00    +0.000 NA
ATOM     28  C   UNL     1      47.019   1.201   7.438  0.00  0.00    +0.000 A 
ATOM     29  C   UNL     1      47.384   2.089   6.456  0.00  0.00    +0.000 A 
ATOM     30  C   UNL     1      46.725   3.294   6.473  0.00  0.00    +0.000 A 
ATOM     31  N   UNL     1      45.787   3.618   7.383  0.00  0.00    +0.000 NA
ENDBRANCH  25  26
ENDBRANCH  23  25
ENDBRANCH  22  23
ENDBRANCH  19  22
ENDBRANCH  15  16
ENDBRANCH  13  15
ENDBRANCH   1  13
BRANCH   1  32
ATOM     32  C   UNL     1      48.186   4.933  17.426  0.00  0.00    +0.000 C 
BRANCH  32  33
ATOM     33  CA  UNL     1      47.914   3.546  16.841  0.00  0.00    +0.000 C 
BRANCH  33  34
ATOM     34  N   UNL     1      46.691   3.003  17.487  0.00  0.00    +0.000 NA
ATOM     35  H1  UNL     1      46.733   1.981  17.443  0.00  0.00    +0.000 HD
ATOM     36  H2  UNL     1      45.877   3.244  16.912  0.00  0.00    +0.000 HD
ENDBRANCH  33  34
BRANCH  33  37
ATOM     37  C   UNL     1      49.052   2.532  17.085  0.00  0.00    +0.000 C 
BRANCH  37  38
ATOM     38  O   UNL     1      49.270   1.751  15.907  0.00  0.00    +0.000 OA
ATOM     39  H   UNL     1      48.380   1.591  15.534  0.00  0.00    +0.000 HD
ENDBRANCH  37  38
ENDBRANCH  33  37
ENDBRANCH  32  33
ENDBRANCH   1  32
TORSDOF 13
ENDMDL
MODEL 2
REMARK VINA RESULT:    -7.607      1.573      2.342
REMARK INTER + INTRA:         -14.287
REMARK INTER:                 -12.883
REMARK INTRA:                  -1.405
REMARK UNBOUND:                -1.344
REMARK  Name = 
REMARK  13 active torsions:
REMARK  status: ('A' for Active; 'I' for Inactive)
REMARK    1  A    between atoms: N_1  and  CA_2
REMARK    2  A    between atoms: CA_2  and  C_3
REMARK    3  A    between atoms: CA_2  and  C_5
REMARK    4  A    between atoms: C_3  and  O_4
REMARK    5  A    between atoms: C_5  and  C_6
REMARK    6  A    between atoms: C_6  and  N_7
REMARK    7  A    between atoms: C_6  and  C_24
REMARK    8  A    between atoms: N_7  and  C_8
REMARK    9  A    between atoms: C_8  and  C_9
REMARK   10  A    between atoms: C_12  and  C_13
REMARK   11  A    between atoms: C_13  and  N_14
REMARK   12  A    between atoms: N_14  and  C_15
REMARK   13  A    between atoms: C_15  and  C_16
REMARK                            x       y       z     vdW  Elec       q    Type
REMARK                         _______ _______ _______ _____ _____    ______ ____
ROOT
ATOM      1  C   UNL     1      48.166   5.948  16.447  0.00  0.00    +0.000 C 
ENDROOT
BRANCH   1   2
ATOM      2  C   UNL     1      49.494   6.647  16.709  0.00  0.00    +0.000 A 
ATOM      3  C   UNL     1      50.704   5.967  16.771  0.00  0.00    +0.000 A 
ATOM      4  S   UNL     1      51.891   6.810  17.672  0.00  0.00    +0.000 S 
ATOM      5  C   UNL     1      50.876   8.166  17.839  0.00  0.00    +0.000 A 
ATOM      6  N   UNL     1      51.240   9.236  18.597  0.00  0.00    +0.000 NA
ATOM      7  C   UNL     1      50.415  10.230  18.536  0.00  0.00    +0.000 A 
ATOM      8  N   UNL     1      49.284  10.261  17.762  0.00  0.00    +0.000 N 
ATOM      9  C   UNL     1      48.888   9.208  16.966  0.00  0.00    +0.000 A 
ATOM     10  O   UNL     1      47.985   9.345  16.148  0.00  0.00    +0.000 OA
ATOM     11  C   UNL     1      49.712   8.022  17.102  0.00  0.00    +0.000 A 
ATOM     12  H   UNL     1      48.758  11.115  17.654  0.00  0.00    +0.000 HD
ENDBRANCH   1   2
BRANCH   1  13
ATOM     13  N   UNL     1      48.308   5.385  15.079  0.00  0.00    +0.000 NA
ATOM     14  H   UNL     1      49.262   5.040  14.958  0.00  0.00    +0.000 HD
BRANCH  13  15
ATOM     15  C   UNL     1      48.050   6.355  14.013  0.00  0.00    +0.000 C 
BRANCH  15  16
ATOM     16  C   UNL     1      46.781   6.075  13.233  0.00  0.00    +0.000 A 
ATOM     17  C   UNL     1      46.518   6.736  12.022  0.00  0.00    +0.000 A 
ATOM     18  C   UNL     1      45.431   6.359  11.217  0.00  0.00    +0.000 A 
ATOM     19  C   UNL     1      44.596   5.306  11.611  0.00  0.00    +0.000 A 
ATOM     20  C   UNL     1      44.840   4.664  12.833  0.00  0.00    +0.000 A 
ATOM     21  C   UNL     1      45.925   5.043  13.635  0.00  0.00    +0.000 A 
BRANCH  19  22
ATOM     22  C   UNL     1      43.442   4.860  10.725  0.00  0.00    +0.000 C 
BRANCH  22  23
ATOM     23  N   UNL     1      43.911   4.385   9.425  0.00  0.00    +0.000 NA
ATOM     24  H   UNL     1      44.655   4.994   9.082  0.00  0.00    +0.000 HD
BRANCH  23  25
ATOM     25  C   UNL     1      44.463   3.018   9.520  0.00  0.00    +0.000 C 
BRANCH  25  26
ATOM     26  C   UNL     1      45.527   2.728   8.467  0.00  0.00    +0.000 A 
ATOM     27  N   UNL     1      45.878   3.738   7.637  0.00  0.00    +0.000 NA
ATOM     28  C   UNL     1      46.795   3.445   6.696  0.00  0.00    +0.000 A 
ATOM     29  C   UNL     1      47.379   2.209   6.558  0.00  0.00    +0.000 A 
ATOM     30  C   UNL     1      46.973   1.259   7.464  0.00  0.00    +0.000 A 
ATOM     31  N   UNL     1      46.060   1.488   8.426  0.00  0.00    +0.000 NA
ENDBRANCH  25  26
ENDBRANCH  23  25
ENDBRANCH  22  23
ENDBRANCH  19  22
ENDBRANCH  15  16
ENDBRANCH  13  15
ENDBRANCH   1  13
BRANCH   1  32
ATOM     32  C   UNL     1      47.712   4.858  17.432  0.00  0.00    +0.000 C 
BRANCH  32  33
ATOM     33  CA  UNL     1      47.671   3.407  16.947  0.00  0.00    +0.000 C 
BRANCH  33  34
ATOM     34  N   UNL     1      46.619   2.692  17.716  0.00  0.00    +0.000 NA
ATOM     35  H1  UNL     1      46.174   2.013  17.093  0.00  0.00    +0.000 HD
ATOM     36  H2  UNL     1      45.869   3.352  17.946  0.00  0.00    +0.000 HD
ENDBRANCH  33  34
BRANCH  33  37
ATOM     37  C   UNL     1      48.994   2.642  17.155  0.00  0.00    +0.000 C 
BRANCH  37  38
ATOM     38  O   UNL     1      49.255   1.803  16.027  0.00  0.00    +0.000 OA
ATOM     39  H   UNL     1      49.199   0.886  16.368  0.00  0.00    +0.000 HD
ENDBRANCH  37  38
ENDBRANCH  33  37
ENDBRANCH  32  33
ENDBRANCH   1  32
TORSDOF 13
ENDMDL
MODEL 3
REMARK VINA RESULT:    -7.512      1.611      2.101
REMARK INTER + INTRA:         -14.125
REMARK INTER:                 -12.492
REMARK INTRA:                  -1.633
REMARK UNBOUND:                -1.344
REMARK  Name = 
REMARK  13 active torsions:
REMARK  status: ('A' for Active; 'I' for Inactive)
REMARK    1  A    between atoms: N_1  and  CA_2
REMARK    2  A    between atoms: CA_2  and  C_3
REMARK    3  A    between atoms: CA_2  and  C_5
REMARK    4  A    between atoms: C_3  and  O_4
REMARK    5  A    between atoms: C_5  and  C_6
REMARK    6  A    between atoms: C_6  and  N_7
REMARK    7  A    between atoms: C_6  and  C_24
REMARK    8  A    between atoms: N_7  and  C_8
REMARK    9  A    between atoms: C_8  and  C_9
REMARK   10  A    between atoms: C_12  and  C_13
REMARK   11  A    between atoms: C_13  and  N_14
REMARK   12  A    between atoms: N_14  and  C_15
REMARK   13  A    between atoms: C_15  and  C_16
REMARK                            x       y       z     vdW  Elec       q    Type
REMARK                         _______ _______ _______ _____ _____    ______ ____
ROOT
ATOM      1  C   UNL     1      48.463   6.125  16.321  0.00  0.00    +0.000 C 
ENDROOT
BRANCH   1   2
ATOM      2  C   UNL     1      49.918   6.539  16.504  0.00  0.00    +0.000 A 
ATOM      3  C   UNL     1      50.553   7.449  15.666  0.00  0.00    +0.000 A 
ATOM      4  S   UNL     1      52.256   7.268  15.665  0.00  0.00    +0.000 S 
ATOM      5  C   UNL     1      52.186   6.106  16.906  0.00  0.00    +0.000 A 
ATOM      6  N   UNL     1      53.302   5.452  17.330  0.00  0.00    +0.000 NA
ATOM      7  C   UNL     1      53.106   4.683  18.351  0.00  0.00    +0.000 A 
ATOM      8  N   UNL     1      51.909   4.538  19.003  0.00  0.00    +0.000 N 
ATOM      9  C   UNL     1      50.759   5.194  18.619  0.00  0.00    +0.000 A 
ATOM     10  O   UNL     1      49.764   5.189  19.336  0.00  0.00    +0.000 OA
ATOM     11  C   UNL     1      50.899   5.967  17.400  0.00  0.00    +0.000 A 
ATOM     12  H   UNL     1      51.855   4.030  19.872  0.00  0.00    +0.000 HD
ENDBRANCH   1   2
BRANCH   1  13
ATOM     13  N   UNL     1      48.044   6.794  15.062  0.00  0.00    +0.000 NA
ATOM     14  H   UNL     1      47.071   7.093  15.151  0.00  0.00    +0.000 HD
BRANCH  13  15
ATOM     15  C   UNL     1      48.138   5.937  13.879  0.00  0.00    +0.000 C 
BRANCH  15  16
ATOM     16  C   UNL     1      46.839   5.824  13.107  0.00  0.00    +0.000 A 
ATOM     17  C   UNL     1      46.707   6.390  11.829  0.00  0.00    +0.000 A 
ATOM     18  C   UNL     1      45.567   6.145  11.046  0.00  0.00    +0.000 A 
ATOM     19  C   UNL     1      44.545   5.320  11.532  0.00  0.00    +0.000 A 
ATOM     20  C   UNL     1      44.661   4.778  12.819  0.00  0.00    +0.000 A 
ATOM     21  C   UNL     1      45.799   5.025  13.599  0.00  0.00    +0.000 A 
BRANCH  19  22
ATOM     22  C   UNL     1      43.325   5.012  10.675  0.00  0.00    +0.000 C 
BRANCH  22  23
ATOM     23  N   UNL     1      43.703   4.440   9.385  0.00  0.00    +0.000 NA
ATOM     24  H   UNL     1      44.411   5.025   8.940  0.00  0.00    +0.000 HD
BRANCH  23  25
ATOM     25  C   UNL     1      44.279   3.089   9.545  0.00  0.00    +0.000 C 
BRANCH  25  26
ATOM     26  C   UNL     1      45.344   2.765   8.503  0.00  0.00    +0.000 A 
ATOM     27  N   UNL     1      45.911   1.537   8.549  0.00  0.00    +0.000 NA
ATOM     28  C   UNL     1      46.872   1.289   7.639  0.00  0.00    +0.000 A 
ATOM     29  C   UNL     1      47.276   2.197   6.690  0.00  0.00    +0.000 A 
ATOM     30  C   UNL     1      46.623   3.406   6.712  0.00  0.00    +0.000 A 
ATOM     31  N   UNL     1      45.657   3.715   7.596  0.00  0.00    +0.000 NA
ENDBRANCH  25  26
ENDBRANCH  23  25
ENDBRANCH  22  23
ENDBRANCH  19  22
ENDBRANCH  15  16
ENDBRANCH  13  15
ENDBRANCH   1  13
BRANCH   1  32
ATOM     32  C   UNL     1      48.137   4.624  16.266  0.00  0.00    +0.000 C 
BRANCH  32  33
ATOM     33  CA  UNL     1      47.044   4.080  17.189  0.00  0.00    +0.000 C 
BRANCH  33  34
ATOM     34  N   UNL     1      46.825   5.067  18.278  0.00  0.00    +0.000 NA
ATOM     35  H1  UNL     1      46.847   6.005  17.868  0.00  0.00    +0.000 HD
ATOM     36  H2  UNL     1      47.632   5.050  18.910  0.00  0.00    +0.000 HD
ENDBRANCH  33  34
BRANCH  33  37
ATOM     37  C   UNL     1      47.402   2.734  17.853  0.00  0.00    +0.000 C 
BRANCH  37  38
ATOM     38  O   UNL     1      48.113   2.964  19.072  0.00  0.00    +0.000 OA
ATOM     39  H   UNL     1      47.434   2.937  19.777  0.00  0.00    +0.000 HD
ENDBRANCH  37  38
ENDBRANCH  33  37
ENDBRANCH  32  33
ENDBRANCH   1  32
TORSDOF 13
ENDMDL
MODEL 4
REMARK VINA RESULT:    -7.352      2.211      3.763
REMARK INTER + INTRA:         -13.853
REMARK INTER:                 -12.093
REMARK INTRA:                  -1.759
REMARK UNBOUND:                -1.344
REMARK  Name = 
REMARK  13 active torsions:
REMARK  status: ('A' for Active; 'I' for Inactive)
REMARK    1  A    between atoms: N_1  and  CA_2
REMARK    2  A    between atoms: CA_2  and  C_3
REMARK    3  A    between atoms: CA_2  and  C_5
REMARK    4  A    between atoms: C_3  and  O_4
REMARK    5  A    between atoms: C_5  and  C_6
REMARK    6  A    between atoms: C_6  and  N_7
REMARK    7  A    between atoms: C_6  and  C_24
REMARK    8  A    between atoms: N_7  and  C_8
REMARK    9  A    between atoms: C_8  and  C_9
REMARK   10  A    between atoms: C_12  and  C_13
REMARK   11  A    between atoms: C_13  and  N_14
REMARK   12  A    between atoms: N_14  and  C_15
REMARK   13  A    between atoms: C_15  and  C_16
REMARK                            x       y       z     vdW  Elec       q    Type
REMARK                         _______ _______ _______ _____ _____    ______ ____
ROOT
ATOM      1  C   UNL     1      49.963   7.471  15.678  0.00  0.00    +0.000 C 
ENDROOT
BRANCH   1   2
ATOM      2  C   UNL     1      50.579   6.473  16.651  0.00  0.00    +0.000 A 
ATOM      3  C   UNL     1      51.867   6.611  17.156  0.00  0.00    +0.000 A 
ATOM      4  S   UNL     1      52.536   5.122  17.675  0.00  0.00    +0.000 S 
ATOM      5  C   UNL     1      51.066   4.307  17.405  0.00  0.00    +0.000 A 
ATOM      6  N   UNL     1      50.964   2.959  17.557  0.00  0.00    +0.000 NA
ATOM      7  C   UNL     1      49.762   2.504  17.423  0.00  0.00    +0.000 A 
ATOM      8  N   UNL     1      48.654   3.276  17.188  0.00  0.00    +0.000 N 
ATOM      9  C   UNL     1      48.709   4.646  17.046  0.00  0.00    +0.000 A 
ATOM     10  O   UNL     1      47.683   5.317  17.030  0.00  0.00    +0.000 OA
ATOM     11  C   UNL     1      50.055   5.188  17.058  0.00  0.00    +0.000 A 
ATOM     12  H   UNL     1      47.729   2.877  17.231  0.00  0.00    +0.000 HD
ENDBRANCH   1   2
BRANCH   1  13
ATOM     13  N   UNL     1      49.378   6.626  14.605  0.00  0.00    +0.000 NA
ATOM     14  H   UNL     1      50.115   6.362  13.948  0.00  0.00    +0.000 HD
BRANCH  13  15
ATOM     15  C   UNL     1      48.322   7.292  13.840  0.00  0.00    +0.000 C 
BRANCH  15  16
ATOM     16  C   UNL     1      47.407   6.332  13.107  0.00  0.00    +0.000 A 
ATOM     17  C   UNL     1      46.972   5.142  13.713  0.00  0.00    +0.000 A 
ATOM     18  C   UNL     1      45.997   4.337  13.103  0.00  0.00    +0.000 A 
ATOM     19  C   UNL     1      45.435   4.718  11.879  0.00  0.00    +0.000 A 
ATOM     20  C   UNL     1      45.888   5.890  11.258  0.00  0.00    +0.000 A 
ATOM     21  C   UNL     1      46.863   6.692  11.868  0.00  0.00    +0.000 A 
BRANCH  19  22
ATOM     22  C   UNL     1      44.346   3.876  11.231  0.00  0.00    +0.000 C 
BRANCH  22  23
ATOM     23  N   UNL     1      44.850   2.571  10.811  0.00  0.00    +0.000 NA
ATOM     24  H   UNL     1      44.464   1.841  11.411  0.00  0.00    +0.000 HD
BRANCH  23  25
ATOM     25  C   UNL     1      44.452   2.262   9.422  0.00  0.00    +0.000 C 
BRANCH  25  26
ATOM     26  C   UNL     1      45.628   2.242   8.453  0.00  0.00    +0.000 A 
ATOM     27  N   UNL     1      45.992   3.415   7.886  0.00  0.00    +0.000 NA
ATOM     28  C   UNL     1      47.012   3.363   7.008  0.00  0.00    +0.000 A 
ATOM     29  C   UNL     1      47.684   2.209   6.687  0.00  0.00    +0.000 A 
ATOM     30  C   UNL     1      47.254   1.075   7.334  0.00  0.00    +0.000 A 
ATOM     31  N   UNL     1      46.240   1.061   8.219  0.00  0.00    +0.000 NA
ENDBRANCH  25  26
ENDBRANCH  23  25
ENDBRANCH  22  23
ENDBRANCH  19  22
ENDBRANCH  15  16
ENDBRANCH  13  15
ENDBRANCH   1  13
BRANCH   1  32
ATOM     32  C   UNL     1      48.915   8.457  16.217  0.00  0.00    +0.000 C 
BRANCH  32  33
ATOM     33  CA  UNL     1      48.835   8.684  17.728  0.00  0.00    +0.000 C 
BRANCH  33  34
ATOM     34  N   UNL     1      47.593   8.039  18.228  0.00  0.00    +0.000 NA
ATOM     35  H1  UNL     1      47.609   8.065  19.251  0.00  0.00    +0.000 HD
ATOM     36  H2  UNL     1      47.622   7.040  18.002  0.00  0.00    +0.000 HD
ENDBRANCH  33  34
BRANCH  33  37
ATOM     37  C   UNL     1      48.777  10.171  18.133  0.00  0.00    +0.000 C 
BRANCH  37  38
ATOM     38  O   UNL     1      47.642  10.798  17.528  0.00  0.00    +0.000 OA
ATOM     39  H   UNL     1      47.936  11.052  16.629  0.00  0.00    +0.000 HD
ENDBRANCH  37  38
ENDBRANCH  33  37
ENDBRANCH  32  33
ENDBRANCH   1  32
TORSDOF 13
ENDMDL
MODEL 5
REMARK VINA RESULT:    -7.079      1.590      3.612
REMARK INTER + INTRA:         -13.388
REMARK INTER:                 -11.835
REMARK INTRA:                  -1.554
REMARK UNBOUND:                -1.344
REMARK  Name = 
REMARK  13 active torsions:
REMARK  status: ('A' for Active; 'I' for Inactive)
REMARK    1  A    between atoms: N_1  and  CA_2
REMARK    2  A    between atoms: CA_2  and  C_3
REMARK    3  A    between atoms: CA_2  and  C_5
REMARK    4  A    between atoms: C_3  and  O_4
REMARK    5  A    between atoms: C_5  and  C_6
REMARK    6  A    between atoms: C_6  and  N_7
REMARK    7  A    between atoms: C_6  and  C_24
REMARK    8  A    between atoms: N_7  and  C_8
REMARK    9  A    between atoms: C_8  and  C_9
REMARK   10  A    between atoms: C_12  and  C_13
REMARK   11  A    between atoms: C_13  and  N_14
REMARK   12  A    between atoms: N_14  and  C_15
REMARK   13  A    between atoms: C_15  and  C_16
REMARK                            x       y       z     vdW  Elec       q    Type
REMARK                         _______ _______ _______ _____ _____    ______ ____
ROOT
ATOM      1  C   UNL     1      49.808   7.003  15.169  0.00  0.00    +0.000 C 
ENDROOT
BRANCH   1   2
ATOM      2  C   UNL     1      49.043   7.037  16.487  0.00  0.00    +0.000 A 
ATOM      3  C   UNL     1      48.679   8.222  17.115  0.00  0.00    +0.000 A 
ATOM      4  S   UNL     1      48.427   8.027  18.798  0.00  0.00    +0.000 S 
ATOM      5  C   UNL     1      48.621   6.340  18.685  0.00  0.00    +0.000 A 
ATOM      6  N   UNL     1      48.624   5.550  19.793  0.00  0.00    +0.000 NA
ATOM      7  C   UNL     1      48.671   4.283  19.536  0.00  0.00    +0.000 A 
ATOM      8  N   UNL     1      48.679   3.739  18.277  0.00  0.00    +0.000 N 
ATOM      9  C   UNL     1      48.658   4.501  17.129  0.00  0.00    +0.000 A 
ATOM     10  O   UNL     1      48.472   3.982  16.034  0.00  0.00    +0.000 OA
ATOM     11  C   UNL     1      48.737   5.930  17.367  0.00  0.00    +0.000 A 
ATOM     12  H   UNL     1      48.577   2.745  18.145  0.00  0.00    +0.000 HD
ENDBRANCH   1   2
BRANCH   1  13
ATOM     13  N   UNL     1      48.897   6.297  14.232  0.00  0.00    +0.000 NA
ATOM     14  H   UNL     1      49.444   5.915  13.458  0.00  0.00    +0.000 HD
BRANCH  13  15
ATOM     15  C   UNL     1      47.859   7.156  13.658  0.00  0.00    +0.000 C 
BRANCH  15  16
ATOM     16  C   UNL     1      46.840   6.404  12.828  0.00  0.00    +0.000 A 
ATOM     17  C   UNL     1      45.921   5.529  13.430  0.00  0.00    +0.000 A 
ATOM     18  C   UNL     1      44.873   4.961  12.688  0.00  0.00    +0.000 A 
ATOM     19  C   UNL     1      44.724   5.271  11.330  0.00  0.00    +0.000 A 
ATOM     20  C   UNL     1      45.657   6.121  10.720  0.00  0.00    +0.000 A 
ATOM     21  C   UNL     1      46.703   6.685  11.463  0.00  0.00    +0.000 A 
BRANCH  19  22
ATOM     22  C   UNL     1      43.566   4.697  10.527  0.00  0.00    +0.000 C 
BRANCH  22  23
ATOM     23  N   UNL     1      44.007   4.196   9.227  0.00  0.00    +0.000 NA
ATOM     24  H   UNL     1      44.787   4.758   8.885  0.00  0.00    +0.000 HD
BRANCH  23  25
ATOM     25  C   UNL     1      44.473   2.798   9.321  0.00  0.00    +0.000 C 
BRANCH  25  26
ATOM     26  C   UNL     1      45.569   2.463   8.314  0.00  0.00    +0.000 A 
ATOM     27  N   UNL     1      46.104   1.222   8.361  0.00  0.00    +0.000 NA
ATOM     28  C   UNL     1      47.092   0.964   7.484  0.00  0.00    +0.000 A 
ATOM     29  C   UNL     1      47.553   1.876   6.565  0.00  0.00    +0.000 A 
ATOM     30  C   UNL     1      46.930   3.100   6.582  0.00  0.00    +0.000 A 
ATOM     31  N   UNL     1      45.938   3.419   7.435  0.00  0.00    +0.000 NA
ENDBRANCH  25  26
ENDBRANCH  23  25
ENDBRANCH  22  23
ENDBRANCH  19  22
ENDBRANCH  15  16
ENDBRANCH  13  15
ENDBRANCH   1  13
BRANCH   1  32
ATOM     32  C   UNL     1      50.272   8.338  14.565  0.00  0.00    +0.000 C 
BRANCH  32  33
ATOM     33  CA  UNL     1      51.761   8.524  14.263  0.00  0.00    +0.000 C 
BRANCH  33  34
ATOM     34  N   UNL     1      52.030   7.980  12.907  0.00  0.00    +0.000 NA
ATOM     35  H1  UNL     1      51.158   8.010  12.372  0.00  0.00    +0.000 HD
ATOM     36  H2  UNL     1      52.241   6.980  12.985  0.00  0.00    +0.000 HD
ENDBRANCH  33  34
BRANCH  33  37
ATOM     37  C   UNL     1      52.693   7.788  15.248  0.00  0.00    +0.000 C 
BRANCH  37  38
ATOM     38  O   UNL     1      52.762   8.505  16.484  0.00  0.00    +0.000 OA
ATOM     39  H   UNL     1      52.867   9.445  16.232  0.00  0.00    +0.000 HD
ENDBRANCH  37  38
ENDBRANCH  33  37
ENDBRANCH  32  33
ENDBRANCH   1  32
TORSDOF 13
ENDMDL
MODEL 6
REMARK VINA RESULT:    -7.058      1.977      2.472
REMARK INTER + INTRA:         -13.354
REMARK INTER:                 -12.280
REMARK INTRA:                  -1.074
REMARK UNBOUND:                -1.344
REMARK  Name = 
REMARK  13 active torsions:
REMARK  status: ('A' for Active; 'I' for Inactive)
REMARK    1  A    between atoms: N_1  and  CA_2
REMARK    2  A    between atoms: CA_2  and  C_3
REMARK    3  A    between atoms: CA_2  and  C_5
REMARK    4  A    between atoms: C_3  and  O_4
REMARK    5  A    between atoms: C_5  and  C_6
REMARK    6  A    between atoms: C_6  and  N_7
REMARK    7  A    between atoms: C_6  and  C_24
REMARK    8  A    between atoms: N_7  and  C_8
REMARK    9  A    between atoms: C_8  and  C_9
REMARK   10  A    between atoms: C_12  and  C_13
REMARK   11  A    between atoms: C_13  and  N_14
REMARK   12  A    between atoms: N_14  and  C_15
REMARK   13  A    between atoms: C_15  and  C_16
REMARK                            x       y       z     vdW  Elec       q    Type
REMARK                         _______ _______ _______ _____ _____    ______ ____
ROOT
ATOM      1  C   UNL     1      48.539   6.137  16.530  0.00  0.00    +0.000 C 
ENDROOT
BRANCH   1   2
ATOM      2  C   UNL     1      49.656   7.173  16.467  0.00  0.00    +0.000 A 
ATOM      3  C   UNL     1      50.957   6.902  16.871  0.00  0.00    +0.000 A 
ATOM      4  S   UNL     1      51.823   8.316  17.302  0.00  0.00    +0.000 S 
ATOM      5  C   UNL     1      50.546   9.317  16.787  0.00  0.00    +0.000 A 
ATOM      6  N   UNL     1      50.587  10.666  16.964  0.00  0.00    +0.000 NA
ATOM      7  C   UNL     1      49.596  11.298  16.423  0.00  0.00    +0.000 A 
ATOM      8  N   UNL     1      48.595  10.708  15.696  0.00  0.00    +0.000 N 
ATOM      9  C   UNL     1      48.525   9.349  15.477  0.00  0.00    +0.000 A 
ATOM     10  O   UNL     1      47.730   8.883  14.668  0.00  0.00    +0.000 OA
ATOM     11  C   UNL     1      49.543   8.585  16.174  0.00  0.00    +0.000 A 
ATOM     12  H   UNL     1      47.929  11.269  15.187  0.00  0.00    +0.000 HD
ENDBRANCH   1   2
BRANCH   1  13
ATOM     13  N   UNL     1      48.139   5.939  15.113  0.00  0.00    +0.000 NA
ATOM     14  H   UNL     1      47.486   6.677  14.844  0.00  0.00    +0.000 HD
BRANCH  13  15
ATOM     15  C   UNL     1      47.484   4.654  14.860  0.00  0.00    +0.000 C 
BRANCH  15  16
ATOM     16  C   UNL     1      46.612   4.652  13.621  0.00  0.00    +0.000 A 
ATOM     17  C   UNL     1      45.917   3.496  13.229  0.00  0.00    +0.000 A 
ATOM     18  C   UNL     1      44.981   3.538  12.182  0.00  0.00    +0.000 A 
ATOM     19  C   UNL     1      44.722   4.743  11.518  0.00  0.00    +0.000 A 
ATOM     20  C   UNL     1      45.436   5.891  11.888  0.00  0.00    +0.000 A 
ATOM     21  C   UNL     1      46.370   5.847  12.932  0.00  0.00    +0.000 A 
BRANCH  19  22
ATOM     22  C   UNL     1      43.678   4.809  10.413  0.00  0.00    +0.000 C 
BRANCH  22  23
ATOM     23  N   UNL     1      44.224   4.374   9.129  0.00  0.00    +0.000 NA
ATOM     24  H   UNL     1      45.138   4.801   8.978  0.00  0.00    +0.000 HD
BRANCH  23  25
ATOM     25  C   UNL     1      44.406   2.908   9.092  0.00  0.00    +0.000 C 
BRANCH  25  26
ATOM     26  C   UNL     1      45.613   2.475   8.267  0.00  0.00    +0.000 A 
ATOM     27  N   UNL     1      45.959   1.168   8.304  0.00  0.00    +0.000 NA
ATOM     28  C   UNL     1      47.048   0.819   7.594  0.00  0.00    +0.000 A 
ATOM     29  C   UNL     1      47.788   1.704   6.847  0.00  0.00    +0.000 A 
ATOM     30  C   UNL     1      47.341   3.003   6.856  0.00  0.00    +0.000 A 
ATOM     31  N   UNL     1      46.261   3.415   7.547  0.00  0.00    +0.000 NA
ENDBRANCH  25  26
ENDBRANCH  23  25
ENDBRANCH  22  23
ENDBRANCH  19  22
ENDBRANCH  15  16
ENDBRANCH  13  15
ENDBRANCH   1  13
BRANCH   1  32
ATOM     32  C   UNL     1      48.839   4.786  17.198  0.00  0.00    +0.000 C 
BRANCH  32  33
ATOM     33  CA  UNL     1      48.007   4.373  18.415  0.00  0.00    +0.000 C 
BRANCH  33  34
ATOM     34  N   UNL     1      46.716   5.106  18.363  0.00  0.00    +0.000 NA
ATOM     35  H1  UNL     1      46.016   4.492  17.937  0.00  0.00    +0.000 HD
ATOM     36  H2  UNL     1      46.801   5.884  17.701  0.00  0.00    +0.000 HD
ENDBRANCH  33  34
BRANCH  33  37
ATOM     37  C   UNL     1      48.672   4.706  19.766  0.00  0.00    +0.000 C 
BRANCH  37  38
ATOM     38  O   UNL     1      48.424   3.654  20.704  0.00  0.00    +0.000 OA
ATOM     39  H   UNL     1      48.260   4.103  21.559  0.00  0.00    +0.000 HD
ENDBRANCH  37  38
ENDBRANCH  33  37
ENDBRANCH  32  33
ENDBRANCH   1  32
TORSDOF 13
ENDMDL
MODEL 7
REMARK VINA RESULT:    -6.845      1.596      2.064
REMARK INTER + INTRA:         -12.990
REMARK INTER:                 -11.559
REMARK INTRA:                  -1.430
REMARK UNBOUND:                -1.344
REMARK  Name = 
REMARK  13 active torsions:
REMARK  status: ('A' for Active; 'I' for Inactive)
REMARK    1  A    between atoms: N_1  and  CA_2
REMARK    2  A    between atoms: CA_2  and  C_3
REMARK    3  A    between atoms: CA_2  and  C_5
REMARK    4  A    between atoms: C_3  and  O_4
REMARK    5  A    between atoms: C_5  and  C_6
REMARK    6  A    between atoms: C_6  and  N_7
REMARK    7  A    between atoms: C_6  and  C_24
REMARK    8  A    between atoms: N_7  and  C_8
REMARK    9  A    between atoms: C_8  and  C_9
REMARK   10  A    between atoms: C_12  and  C_13
REMARK   11  A    between atoms: C_13  and  N_14
REMARK   12  A    between atoms: N_14  and  C_15
REMARK   13  A    between atoms: C_15  and  C_16
REMARK                            x       y       z     vdW  Elec       q    Type
REMARK                         _______ _______ _______ _____ _____    ______ ____
ROOT
ATOM      1  C   UNL     1      48.250   6.773  16.530  0.00  0.00    +0.000 C 
ENDROOT
BRANCH   1   2
ATOM      2  C   UNL     1      48.762   7.999  17.276  0.00  0.00    +0.000 A 
ATOM      3  C   UNL     1      48.232   8.417  18.491  0.00  0.00    +0.000 A 
ATOM      4  S   UNL     1      48.500  10.081  18.792  0.00  0.00    +0.000 S 
ATOM      5  C   UNL     1      49.476  10.228  17.405  0.00  0.00    +0.000 A 
ATOM      6  N   UNL     1      49.964  11.434  17.005  0.00  0.00    +0.000 NA
ATOM      7  C   UNL     1      50.775  11.367  16.001  0.00  0.00    +0.000 A 
ATOM      8  N   UNL     1      51.166  10.205  15.386  0.00  0.00    +0.000 N 
ATOM      9  C   UNL     1      50.711   8.962  15.770  0.00  0.00    +0.000 A 
ATOM     10  O   UNL     1      51.226   7.941  15.329  0.00  0.00    +0.000 OA
ATOM     11  C   UNL     1      49.698   8.998  16.809  0.00  0.00    +0.000 A 
ATOM     12  H   UNL     1      51.904  10.209  14.700  0.00  0.00    +0.000 HD
ENDBRANCH   1   2
BRANCH   1  13
ATOM     13  N   UNL     1      48.047   7.247  15.137  0.00  0.00    +0.000 NA
ATOM     14  H   UNL     1      47.070   7.523  15.017  0.00  0.00    +0.000 HD
BRANCH  13  15
ATOM     15  C   UNL     1      48.350   6.239  14.120  0.00  0.00    +0.000 C 
BRANCH  15  16
ATOM     16  C   UNL     1      47.172   5.901  13.229  0.00  0.00    +0.000 A 
ATOM     17  C   UNL     1      46.174   5.011  13.658  0.00  0.00    +0.000 A 
ATOM     18  C   UNL     1      45.002   4.827  12.907  0.00  0.00    +0.000 A 
ATOM     19  C   UNL     1      44.810   5.539  11.717  0.00  0.00    +0.000 A 
ATOM     20  C   UNL     1      45.817   6.406  11.272  0.00  0.00    +0.000 A 
ATOM     21  C   UNL     1      46.987   6.588  12.023  0.00  0.00    +0.000 A 
BRANCH  19  22
ATOM     22  C   UNL     1      43.524   5.380  10.918  0.00  0.00    +0.000 C 
BRANCH  22  23
ATOM     23  N   UNL     1      43.777   4.809   9.598  0.00  0.00    +0.000 NA
ATOM     24  H   UNL     1      44.522   5.328   9.132  0.00  0.00    +0.000 HD
BRANCH  23  25
ATOM     25  C   UNL     1      44.211   3.400   9.697  0.00  0.00    +0.000 C 
BRANCH  25  26
ATOM     26  C   UNL     1      45.303   3.039   8.697  0.00  0.00    +0.000 A 
ATOM     27  N   UNL     1      45.779   4.028   7.906  0.00  0.00    +0.000 NA
ATOM     28  C   UNL     1      46.720   3.675   7.009  0.00  0.00    +0.000 A 
ATOM     29  C   UNL     1      47.208   2.397   6.879  0.00  0.00    +0.000 A 
ATOM     30  C   UNL     1      46.678   1.470   7.744  0.00  0.00    +0.000 A 
ATOM     31  N   UNL     1      45.735   1.760   8.660  0.00  0.00    +0.000 NA
ENDBRANCH  25  26
ENDBRANCH  23  25
ENDBRANCH  22  23
ENDBRANCH  19  22
ENDBRANCH  15  16
ENDBRANCH  13  15
ENDBRANCH   1  13
BRANCH   1  32
ATOM     32  C   UNL     1      49.114   5.502  16.544  0.00  0.00    +0.000 C 
BRANCH  32  33
ATOM     33  CA  UNL     1      48.559   4.251  17.231  0.00  0.00    +0.000 C 
BRANCH  33  34
ATOM     34  N   UNL     1      49.265   3.067  16.674  0.00  0.00    +0.000 NA
ATOM     35  H1  UNL     1      48.803   2.225  17.029  0.00  0.00    +0.000 HD
ATOM     36  H2  UNL     1      50.207   3.023  17.075  0.00  0.00    +0.000 HD
ENDBRANCH  33  34
BRANCH  33  37
ATOM     37  C   UNL     1      47.049   4.034  17.006  0.00  0.00    +0.000 C 
BRANCH  37  38
ATOM     38  O   UNL     1      46.609   2.877  17.723  0.00  0.00    +0.000 OA
ATOM     39  H   UNL     1      46.381   3.199  18.619  0.00  0.00    +0.000 HD
ENDBRANCH  37  38
ENDBRANCH  33  37
ENDBRANCH  32  33
ENDBRANCH   1  32
TORSDOF 13
ENDMDL
MODEL 8
REMARK VINA RESULT:    -6.418      2.743      3.645
REMARK INTER + INTRA:         -12.264
REMARK INTER:                 -10.849
REMARK INTRA:                  -1.415
REMARK UNBOUND:                -1.344
REMARK  Name = 
REMARK  13 active torsions:
REMARK  status: ('A' for Active; 'I' for Inactive)
REMARK    1  A    between atoms: N_1  and  CA_2
REMARK    2  A    between atoms: CA_2  and  C_3
REMARK    3  A    between atoms: CA_2  and  C_5
REMARK    4  A    between atoms: C_3  and  O_4
REMARK    5  A    between atoms: C_5  and  C_6
REMARK    6  A    between atoms: C_6  and  N_7
REMARK    7  A    between atoms: C_6  and  C_24
REMARK    8  A    between atoms: N_7  and  C_8
REMARK    9  A    between atoms: C_8  and  C_9
REMARK   10  A    between atoms: C_12  and  C_13
REMARK   11  A    between atoms: C_13  and  N_14
REMARK   12  A    between atoms: N_14  and  C_15
REMARK   13  A    between atoms: C_15  and  C_16
REMARK                            x       y       z     vdW  Elec       q    Type
REMARK                         _______ _______ _______ _____ _____    ______ ____
ROOT
ATOM      1  C   UNL     1      48.791   7.008  16.812  0.00  0.00    +0.000 C 
ENDROOT
BRANCH   1   2
ATOM      2  C   UNL     1      48.759   7.620  18.207  0.00  0.00    +0.000 A 
ATOM      3  C   UNL     1      49.096   6.906  19.350  0.00  0.00    +0.000 A 
ATOM      4  S   UNL     1      48.395   7.562  20.769  0.00  0.00    +0.000 S 
ATOM      5  C   UNL     1      47.787   8.901  19.912  0.00  0.00    +0.000 A 
ATOM      6  N   UNL     1      46.989   9.825  20.514  0.00  0.00    +0.000 NA
ATOM      7  C   UNL     1      46.699  10.837  19.764  0.00  0.00    +0.000 A 
ATOM      8  N   UNL     1      47.160  11.023  18.486  0.00  0.00    +0.000 N 
ATOM      9  C   UNL     1      47.983  10.122  17.846  0.00  0.00    +0.000 A 
ATOM     10  O   UNL     1      48.528  10.412  16.786  0.00  0.00    +0.000 OA
ATOM     11  C   UNL     1      48.231   8.908  18.601  0.00  0.00    +0.000 A 
ATOM     12  H   UNL     1      47.008  11.897  18.006  0.00  0.00    +0.000 HD
ENDBRANCH   1   2
BRANCH   1  13
ATOM     13  N   UNL     1      49.731   7.870  16.051  0.00  0.00    +0.000 NA
ATOM     14  H   UNL     1      49.352   8.818  16.003  0.00  0.00    +0.000 HD
BRANCH  13  15
ATOM     15  C   UNL     1      49.967   7.418  14.679  0.00  0.00    +0.000 C 
BRANCH  15  16
ATOM     16  C   UNL     1      48.725   7.437  13.812  0.00  0.00    +0.000 A 
ATOM     17  C   UNL     1      48.457   6.393  12.911  0.00  0.00    +0.000 A 
ATOM     18  C   UNL     1      47.230   6.325  12.231  0.00  0.00    +0.000 A 
ATOM     19  C   UNL     1      46.249   7.298  12.452  0.00  0.00    +0.000 A 
ATOM     20  C   UNL     1      46.525   8.357  13.329  0.00  0.00    +0.000 A 
ATOM     21  C   UNL     1      47.751   8.423  14.005  0.00  0.00    +0.000 A 
BRANCH  19  22
ATOM     22  C   UNL     1      44.899   7.209  11.755  0.00  0.00    +0.000 C 
BRANCH  22  23
ATOM     23  N   UNL     1      44.997   6.511  10.475  0.00  0.00    +0.000 NA
ATOM     24  H   UNL     1      45.977   6.425  10.202  0.00  0.00    +0.000 HD
BRANCH  23  25
ATOM     25  C   UNL     1      44.440   5.145  10.565  0.00  0.00    +0.000 C 
BRANCH  25  26
ATOM     26  C   UNL     1      45.046   4.184   9.548  0.00  0.00    +0.000 A 
ATOM     27  N   UNL     1      44.875   2.859   9.762  0.00  0.00    +0.000 NA
ATOM     28  C   UNL     1      45.448   2.032   8.867  0.00  0.00    +0.000 A 
ATOM     29  C   UNL     1      46.162   2.465   7.776  0.00  0.00    +0.000 A 
ATOM     30  C   UNL     1      46.259   3.828   7.635  0.00  0.00    +0.000 A 
ATOM     31  N   UNL     1      45.710   4.707   8.495  0.00  0.00    +0.000 NA
ENDBRANCH  25  26
ENDBRANCH  23  25
ENDBRANCH  22  23
ENDBRANCH  19  22
ENDBRANCH  15  16
ENDBRANCH  13  15
ENDBRANCH   1  13
BRANCH   1  32
ATOM     32  C   UNL     1      49.188   5.529  16.677  0.00  0.00    +0.000 C 
BRANCH  32  33
ATOM     33  CA  UNL     1      48.078   4.484  16.548  0.00  0.00    +0.000 C 
BRANCH  33  34
ATOM     34  N   UNL     1      47.022   5.037  15.660  0.00  0.00    +0.000 NA
ATOM     35  H1  UNL     1      46.487   5.728  16.193  0.00  0.00    +0.000 HD
ATOM     36  H2  UNL     1      46.342   4.299  15.452  0.00  0.00    +0.000 HD
ENDBRANCH  33  34
BRANCH  33  37
ATOM     37  C   UNL     1      47.407   4.118  17.888  0.00  0.00    +0.000 C 
BRANCH  37  38
ATOM     38  O   UNL     1      46.563   2.976  17.716  0.00  0.00    +0.000 OA
ATOM     39  H   UNL     1      45.861   3.264  17.097  0.00  0.00    +0.000 HD
ENDBRANCH  37  38
ENDBRANCH  33  37
ENDBRANCH  32  33
ENDBRANCH   1  32
TORSDOF 13
ENDMDL
MODEL 9
REMARK VINA RESULT:    -6.409      3.804      8.795
REMARK INTER + INTRA:         -12.249
REMARK INTER:                 -10.495
REMARK INTRA:                  -1.754
REMARK UNBOUND:                -1.344
REMARK  Name = 
REMARK  13 active torsions:
REMARK  status: ('A' for Active; 'I' for Inactive)
REMARK    1  A    between atoms: N_1  and  CA_2
REMARK    2  A    between atoms: CA_2  and  C_3
REMARK    3  A    between atoms: CA_2  and  C_5
REMARK    4  A    between atoms: C_3  and  O_4
REMARK    5  A    between atoms: C_5  and  C_6
REMARK    6  A    between atoms: C_6  and  N_7
REMARK    7  A    between atoms: C_6  and  C_24
REMARK    8  A    between atoms: N_7  and  C_8
REMARK    9  A    between atoms: C_8  and  C_9
REMARK   10  A    between atoms: C_12  and  C_13
REMARK   11  A    between atoms: C_13  and  N_14
REMARK   12  A    between atoms: N_14  and  C_15
REMARK   13  A    between atoms: C_15  and  C_16
REMARK                            x       y       z     vdW  Elec       q    Type
REMARK                         _______ _______ _______ _____ _____    ______ ____
ROOT
ATOM      1  C   UNL     1      45.426   7.612  12.643  0.00  0.00    +0.000 C 
ENDROOT
BRANCH   1   2
ATOM      2  C   UNL     1      45.444   6.128  12.990  0.00  0.00    +0.000 A 
ATOM      3  C   UNL     1      46.506   5.523  13.652  0.00  0.00    +0.000 A 
ATOM      4  S   UNL     1      46.589   3.837  13.363  0.00  0.00    +0.000 S 
ATOM      5  C   UNL     1      45.119   3.858  12.506  0.00  0.00    +0.000 A 
ATOM      6  N   UNL     1      44.642   2.743  11.888  0.00  0.00    +0.000 NA
ATOM      7  C   UNL     1      43.464   2.889  11.374  0.00  0.00    +0.000 A 
ATOM      8  N   UNL     1      42.712   4.033  11.453  0.00  0.00    +0.000 N 
ATOM      9  C   UNL     1      43.149   5.177  12.085  0.00  0.00    +0.000 A 
ATOM     10  O   UNL     1      42.379   6.107  12.302  0.00  0.00    +0.000 OA
ATOM     11  C   UNL     1      44.516   5.103  12.563  0.00  0.00    +0.000 A 
ATOM     12  H   UNL     1      41.750   4.038  11.152  0.00  0.00    +0.000 HD
ENDBRANCH   1   2
BRANCH   1  13
ATOM     13  N   UNL     1      46.857   8.011  12.657  0.00  0.00    +0.000 NA
ATOM     14  H   UNL     1      47.431   7.189  12.850  0.00  0.00    +0.000 HD
BRANCH  13  15
ATOM     15  C   UNL     1      47.177   9.022  13.666  0.00  0.00    +0.000 C 
BRANCH  15  16
ATOM     16  C   UNL     1      48.367   8.660  14.531  0.00  0.00    +0.000 A 
ATOM     17  C   UNL     1      48.410   9.019  15.888  0.00  0.00    +0.000 A 
ATOM     18  C   UNL     1      49.430   8.543  16.728  0.00  0.00    +0.000 A 
ATOM     19  C   UNL     1      50.418   7.690  16.221  0.00  0.00    +0.000 A 
ATOM     20  C   UNL     1      50.393   7.353  14.860  0.00  0.00    +0.000 A 
ATOM     21  C   UNL     1      49.375   7.831  14.024  0.00  0.00    +0.000 A 
BRANCH  19  22
ATOM     22  C   UNL     1      51.501   7.132  17.132  0.00  0.00    +0.000 C 
BRANCH  22  23
ATOM     23  N   UNL     1      51.648   5.687  16.974  0.00  0.00    +0.000 NA
ATOM     24  H   UNL     1      52.638   5.438  16.970  0.00  0.00    +0.000 HD
BRANCH  23  25
ATOM     25  C   UNL     1      51.011   4.958  18.088  0.00  0.00    +0.000 C 
BRANCH  25  26
ATOM     26  C   UNL     1      49.650   4.375  17.722  0.00  0.00    +0.000 A 
ATOM     27  N   UNL     1      48.551   5.061  18.109  0.00  0.00    +0.000 NA
ATOM     28  C   UNL     1      47.362   4.507  17.802  0.00  0.00    +0.000 A 
ATOM     29  C   UNL     1      47.227   3.320  17.122  0.00  0.00    +0.000 A 
ATOM     30  C   UNL     1      48.403   2.713  16.752  0.00  0.00    +0.000 A 
ATOM     31  N   UNL     1      49.620   3.215  17.031  0.00  0.00    +0.000 NA
ENDBRANCH  25  26
ENDBRANCH  23  25
ENDBRANCH  22  23
ENDBRANCH  19  22
ENDBRANCH  15  16
ENDBRANCH  13  15
ENDBRANCH   1  13
BRANCH   1  32
ATOM     32  C   UNL     1      44.760   8.041  11.326  0.00  0.00    +0.000 C 
BRANCH  32  33
ATOM     33  CA  UNL     1      44.321   9.499  11.171  0.00  0.00    +0.000 C 
BRANCH  33  34
ATOM     34  N   UNL     1      44.183  10.087  12.529  0.00  0.00    +0.000 NA
ATOM     35  H1  UNL     1      44.029  11.094  12.426  0.00  0.00    +0.000 HD
ATOM     36  H2  UNL     1      45.083  10.019  13.013  0.00  0.00    +0.000 HD
ENDBRANCH  33  34
BRANCH  33  37
ATOM     37  C   UNL     1      42.964   9.668  10.456  0.00  0.00    +0.000 C 
BRANCH  37  38
ATOM     38  O   UNL     1      41.965   8.882  11.111  0.00  0.00    +0.000 OA
ATOM     39  H   UNL     1      41.116   9.331  10.920  0.00  0.00    +0.000 HD
ENDBRANCH  37  38
ENDBRANCH  33  37
ENDBRANCH  32  33
ENDBRANCH   1  32
TORSDOF 13
ENDMDL
