MODEL 1
REMARK VINA RESULT:    -8.876      0.000      0.000
REMARK INTER + INTRA:         -12.271
REMARK INTER:                 -11.471
REMARK INTRA:                  -0.800
REMARK UNBOUND:                -0.800
REMARK  Name = 
REMARK  5 active torsions:
REMARK  status: ('A' for Active; 'I' for Inactive)
REMARK    1  A    between atoms: C_2  and  C_4
REMARK    2  A    between atoms: C_7  and  N_8
REMARK    3  A    between atoms: N_8  and  C_9
REMARK    4  A    between atoms: C_9  and  C_10
REMARK    5  A    between atoms: C_14  and  C_15
REMARK                            x       y       z     vdW  Elec       q    Type
REMARK                         _______ _______ _______ _____ _____    ______ ____
ROOT
ATOM      1  C   UNL     1      43.780   4.786  11.422  0.00  0.00    +0.000 C 
ENDROOT
BRANCH   1   2
ATOM      2  C   UNL     1      45.031   5.430  11.959  0.00  0.00    +0.000 A 
ATOM      3  C   UNL     1      45.627   6.498  11.292  0.00  0.00    +0.000 A 
ATOM      4  C   UNL     1      46.758   7.070  11.847  0.00  0.00    +0.000 A 
ATOM      5  N   UNL     1      47.326   6.650  12.998  0.00  0.00    +0.000 NA
ATOM      6  C   UNL     1      46.756   5.603  13.648  0.00  0.00    +0.000 A 
ATOM      7  C   UNL     1      45.602   4.989  13.160  0.00  0.00    +0.000 A 
BRANCH   6   8
ATOM      8  C   UNL     1      47.434   5.169  14.878  0.00  0.00    +0.000 A 
ATOM      9  C   UNL     1      48.487   5.910  15.432  0.00  0.00    +0.000 A 
ATOM     10  N   UNL     1      49.160   5.584  16.568  0.00  0.00    +0.000 NA
ATOM     11  C   UNL     1      48.779   4.445  17.187  0.00  0.00    +0.000 A 
ATOM     12  C   UNL     1      47.764   3.632  16.719  0.00  0.00    +0.000 A 
ATOM     13  F   UNL     1      47.435   2.509  17.369  0.00  0.00    +0.000 F 
ATOM     14  C   UNL     1      47.089   3.991  15.562  0.00  0.00    +0.000 A 
ENDBRANCH   6   8
ENDBRANCH   1   2
BRANCH   1  15
ATOM     15  N   UNL     1      43.773   4.837   9.968  0.00  0.00    +0.000 N 
ATOM     16  H   UNL     1      42.857   5.001   9.558  0.00  0.00    +0.000 HD
BRANCH  15  20
ATOM     17  C   UNL     1      46.330   2.243   7.838  0.00  0.00    +0.000 A 
ATOM     18  C   UNL     1      45.419   1.712   8.753  0.00  0.00    +0.000 A 
ATOM     19  C   UNL     1      44.551   2.559   9.448  0.00  0.00    +0.000 A 
ATOM     20  C   UNL     1      44.546   3.942   9.228  0.00  0.00    +0.000 A 
ATOM     21  C   UNL     1      45.471   4.459   8.307  0.00  0.00    +0.000 A 
ATOM     22  C   UNL     1      46.359   3.621   7.621  0.00  0.00    +0.000 A 
BRANCH  17  24
ATOM     23  N   UNL     1      48.402   1.996   6.578  0.00  0.00    +0.000 N 
ATOM     24  C   UNL     1      47.317   1.380   7.135  0.00  0.00    +0.000 C 
ATOM     25  O   UNL     1      47.178   0.166   7.073  0.00  0.00    +0.000 OA
ATOM     26  H   UNL     1      49.103   1.392   6.174  0.00  0.00    +0.000 HD
ATOM     27  H   UNL     1      48.673   2.941   6.813  0.00  0.00    +0.000 HD
ENDBRANCH  17  24
ENDBRANCH  15  20
ENDBRANCH   1  15
TORSDOF 5
ENDMDL
MODEL 2
REMARK VINA RESULT:    -8.728      2.516      3.712
REMARK INTER + INTRA:         -12.079
REMARK INTER:                 -11.108
REMARK INTRA:                  -0.971
REMARK UNBOUND:                -0.800
REMARK  Name = 
REMARK  5 active torsions:
REMARK  status: ('A' for Active; 'I' for Inactive)
REMARK    1  A    between atoms: C_2  and  C_4
REMARK    2  A    between atoms: C_7  and  N_8
REMARK    3  A    between atoms: N_8  and  C_9
REMARK    4  A    between atoms: C_9  and  C_10
REMARK    5  A    between atoms: C_14  and  C_15
REMARK                            x       y       z     vdW  Elec       q    Type
REMARK                         _______ _______ _______ _____ _____    ______ ____
ROOT
ATOM      1  C   UNL     1      43.682   4.686  11.450  0.00  0.00    +0.000 C 
ENDROOT
BRANCH   1   2
ATOM      2  C   UNL     1      45.022   4.923  12.095  0.00  0.00    +0.000 A 
ATOM      3  C   UNL     1      45.562   3.994  12.981  0.00  0.00    +0.000 A 
ATOM      4  C   UNL     1      46.809   4.249  13.522  0.00  0.00    +0.000 A 
ATOM      5  N   UNL     1      47.537   5.353  13.245  0.00  0.00    +0.000 NA
ATOM      6  C   UNL     1      47.013   6.267  12.390  0.00  0.00    +0.000 A 
ATOM      7  C   UNL     1      45.770   6.068  11.790  0.00  0.00    +0.000 A 
BRANCH   6   8
ATOM      8  C   UNL     1      47.834   7.463  12.150  0.00  0.00    +0.000 A 
ATOM      9  C   UNL     1      47.278   8.749  12.182  0.00  0.00    +0.000 A 
ATOM     10  N   UNL     1      47.966   9.905  11.981  0.00  0.00    +0.000 NA
ATOM     11  C   UNL     1      49.285   9.781  11.716  0.00  0.00    +0.000 A 
ATOM     12  C   UNL     1      49.932   8.561  11.647  0.00  0.00    +0.000 A 
ATOM     13  F   UNL     1      51.240   8.497  11.371  0.00  0.00    +0.000 F 
ATOM     14  C   UNL     1      49.208   7.398  11.862  0.00  0.00    +0.000 A 
ENDBRANCH   6   8
ENDBRANCH   1   2
BRANCH   1  15
ATOM     15  N   UNL     1      43.784   4.839  10.007  0.00  0.00    +0.000 N 
ATOM     16  H   UNL     1      42.914   5.099   9.549  0.00  0.00    +0.000 HD
BRANCH  15  20
ATOM     17  C   UNL     1      46.310   2.239   7.848  0.00  0.00    +0.000 A 
ATOM     18  C   UNL     1      45.377   1.708   8.741  0.00  0.00    +0.000 A 
ATOM     19  C   UNL     1      44.520   2.557   9.445  0.00  0.00    +0.000 A 
ATOM     20  C   UNL     1      44.546   3.945   9.255  0.00  0.00    +0.000 A 
ATOM     21  C   UNL     1      45.492   4.462   8.357  0.00  0.00    +0.000 A 
ATOM     22  C   UNL     1      46.370   3.620   7.661  0.00  0.00    +0.000 A 
BRANCH  17  24
ATOM     23  N   UNL     1      48.342   1.986   6.525  0.00  0.00    +0.000 N 
ATOM     24  C   UNL     1      47.285   1.371   7.137  0.00  0.00    +0.000 C 
ATOM     25  O   UNL     1      47.163   0.154   7.113  0.00  0.00    +0.000 OA
ATOM     26  H   UNL     1      49.038   1.381   6.116  0.00  0.00    +0.000 HD
ATOM     27  H   UNL     1      48.605   2.942   6.725  0.00  0.00    +0.000 HD
ENDBRANCH  17  24
ENDBRANCH  15  20
ENDBRANCH   1  15
TORSDOF 5
ENDMDL
MODEL 3
REMARK VINA RESULT:    -8.237      3.194      4.889
REMARK INTER + INTRA:         -11.445
REMARK INTER:                 -10.580
REMARK INTRA:                  -0.865
REMARK UNBOUND:                -0.800
REMARK  Name = 
REMARK  5 active torsions:
REMARK  status: ('A' for Active; 'I' for Inactive)
REMARK    1  A    between atoms: C_2  and  C_4
REMARK    2  A    between atoms: C_7  and  N_8
REMARK    3  A    between atoms: N_8  and  C_9
REMARK    4  A    between atoms: C_9  and  C_10
REMARK    5  A    between atoms: C_14  and  C_15
REMARK                            x       y       z     vdW  Elec       q    Type
REMARK                         _______ _______ _______ _____ _____    ______ ____
ROOT
ATOM      1  C   UNL     1      43.974   3.689  11.857  0.00  0.00    +0.000 C 
ENDROOT
BRANCH   1   2
ATOM      2  C   UNL     1      44.832   4.855  12.271  0.00  0.00    +0.000 A 
ATOM      3  C   UNL     1      45.946   4.668  13.085  0.00  0.00    +0.000 A 
ATOM      4  C   UNL     1      46.715   5.771  13.410  0.00  0.00    +0.000 A 
ATOM      5  N   UNL     1      46.446   7.026  12.988  0.00  0.00    +0.000 NA
ATOM      6  C   UNL     1      45.356   7.217  12.202  0.00  0.00    +0.000 A 
ATOM      7  C   UNL     1      44.545   6.150  11.816  0.00  0.00    +0.000 A 
BRANCH   6   8
ATOM      8  C   UNL     1      45.094   8.606  11.799  0.00  0.00    +0.000 A 
ATOM      9  C   UNL     1      45.945   9.651  12.184  0.00  0.00    +0.000 A 
ATOM     10  N   UNL     1      45.781  10.959  11.849  0.00  0.00    +0.000 NA
ATOM     11  C   UNL     1      44.698  11.255  11.097  0.00  0.00    +0.000 A 
ATOM     12  C   UNL     1      43.787  10.306  10.675  0.00  0.00    +0.000 A 
ATOM     13  F   UNL     1      42.725  10.658   9.939  0.00  0.00    +0.000 F 
ATOM     14  C   UNL     1      43.981   8.978  11.026  0.00  0.00    +0.000 A 
ENDBRANCH   6   8
ENDBRANCH   1   2
BRANCH   1  15
ATOM     15  N   UNL     1      43.702   3.746  10.430  0.00  0.00    +0.000 N 
ATOM     16  H   UNL     1      42.796   3.371  10.159  0.00  0.00    +0.000 HD
BRANCH  15  20
ATOM     17  C   UNL     1      46.560   2.714   7.503  0.00  0.00    +0.000 A 
ATOM     18  C   UNL     1      46.219   4.055   7.689  0.00  0.00    +0.000 A 
ATOM     19  C   UNL     1      45.291   4.411   8.670  0.00  0.00    +0.000 A 
ATOM     20  C   UNL     1      44.706   3.452   9.508  0.00  0.00    +0.000 A 
ATOM     21  C   UNL     1      45.057   2.109   9.304  0.00  0.00    +0.000 A 
ATOM     22  C   UNL     1      45.972   1.739   8.309  0.00  0.00    +0.000 A 
BRANCH  17  24
ATOM     23  N   UNL     1      47.436   2.985   5.244  0.00  0.00    +0.000 N 
ATOM     24  C   UNL     1      47.489   2.292   6.421  0.00  0.00    +0.000 C 
ATOM     25  O   UNL     1      48.284   1.375   6.579  0.00  0.00    +0.000 OA
ATOM     26  H   UNL     1      48.125   2.741   4.548  0.00  0.00    +0.000 HD
ATOM     27  H   UNL     1      46.978   3.883   5.161  0.00  0.00    +0.000 HD
ENDBRANCH  17  24
ENDBRANCH  15  20
ENDBRANCH   1  15
TORSDOF 5
ENDMDL
MODEL 4
REMARK VINA RESULT:    -8.051      3.800      7.365
REMARK INTER + INTRA:         -11.204
REMARK INTER:                 -10.287
REMARK INTRA:                  -0.917
REMARK UNBOUND:                -0.800
REMARK  Name = 
REMARK  5 active torsions:
REMARK  status: ('A' for Active; 'I' for Inactive)
REMARK    1  A    between atoms: C_2  and  C_4
REMARK    2  A    between atoms: C_7  and  N_8
REMARK    3  A    between atoms: N_8  and  C_9
REMARK    4  A    between atoms: C_9  and  C_10
REMARK    5  A    between atoms: C_14  and  C_15
REMARK                            x       y       z     vdW  Elec       q    Type
REMARK                         _______ _______ _______ _____ _____    ______ ____
ROOT
ATOM      1  C   UNL     1      43.517   6.360  11.361  0.00  0.00    +0.000 C 
ENDROOT
BRANCH   1   2
ATOM      2  C   UNL     1      43.707   4.908  11.016  0.00  0.00    +0.000 A 
ATOM      3  C   UNL     1      43.090   3.908  11.765  0.00  0.00    +0.000 A 
ATOM      4  C   UNL     1      43.278   2.592  11.385  0.00  0.00    +0.000 A 
ATOM      5  N   UNL     1      44.031   2.213  10.330  0.00  0.00    +0.000 NA
ATOM      6  C   UNL     1      44.643   3.181   9.601  0.00  0.00    +0.000 A 
ATOM      7  C   UNL     1      44.484   4.532   9.911  0.00  0.00    +0.000 A 
BRANCH   6   8
ATOM      8  C   UNL     1      45.475   2.710   8.484  0.00  0.00    +0.000 A 
ATOM      9  C   UNL     1      46.029   1.423   8.478  0.00  0.00    +0.000 A 
ATOM     10  N   UNL     1      46.800   0.907   7.484  0.00  0.00    +0.000 NA
ATOM     11  C   UNL     1      47.053   1.720   6.435  0.00  0.00    +0.000 A 
ATOM     12  C   UNL     1      46.569   3.012   6.346  0.00  0.00    +0.000 A 
ATOM     13  F   UNL     1      46.859   3.777   5.286  0.00  0.00    +0.000 F 
ATOM     14  C   UNL     1      45.779   3.512   7.371  0.00  0.00    +0.000 A 
ENDBRANCH   6   8
ENDBRANCH   1   2
BRANCH   1  15
ATOM     15  N   UNL     1      44.181   6.670  12.617  0.00  0.00    +0.000 N 
ATOM     16  H   UNL     1      43.641   7.261  13.245  0.00  0.00    +0.000 HD
BRANCH  15  20
ATOM     17  C   UNL     1      48.343   7.356  12.504  0.00  0.00    +0.000 A 
ATOM     18  C   UNL     1      47.467   8.372  12.115  0.00  0.00    +0.000 A 
ATOM     19  C   UNL     1      46.087   8.165  12.170  0.00  0.00    +0.000 A 
ATOM     20  C   UNL     1      45.545   6.962  12.640  0.00  0.00    +0.000 A 
ATOM     21  C   UNL     1      46.440   5.950  13.023  0.00  0.00    +0.000 A 
ATOM     22  C   UNL     1      47.826   6.141  12.952  0.00  0.00    +0.000 A 
BRANCH  17  24
ATOM     23  N   UNL     1      50.529   7.601  13.555  0.00  0.00    +0.000 N 
ATOM     24  C   UNL     1      49.817   7.516  12.391  0.00  0.00    +0.000 C 
ATOM     25  O   UNL     1      50.377   7.550  11.304  0.00  0.00    +0.000 OA
ATOM     26  H   UNL     1      51.534   7.629  13.465  0.00  0.00    +0.000 HD
ATOM     27  H   UNL     1      50.142   7.337  14.450  0.00  0.00    +0.000 HD
ENDBRANCH  17  24
ENDBRANCH  15  20
ENDBRANCH   1  15
TORSDOF 5
ENDMDL
MODEL 5
REMARK VINA RESULT:    -8.030      2.345      2.942
REMARK INTER + INTRA:         -11.177
REMARK INTER:                 -10.432
REMARK INTRA:                  -0.745
REMARK UNBOUND:                -0.800
REMARK  Name = 
REMARK  5 active torsions:
REMARK  status: ('A' for Active; 'I' for Inactive)
REMARK    1  A    between atoms: C_2  and  C_4
REMARK    2  A    between atoms: C_7  and  N_8
REMARK    3  A    between atoms: N_8  and  C_9
REMARK    4  A    between atoms: C_9  and  C_10
REMARK    5  A    between atoms: C_14  and  C_15
REMARK                            x       y       z     vdW  Elec       q    Type
REMARK                         _______ _______ _______ _____ _____    ______ ____
ROOT
ATOM      1  C   UNL     1      44.289   3.753  11.823  0.00  0.00    +0.000 C 
ENDROOT
BRANCH   1   2
ATOM      2  C   UNL     1      44.855   5.140  11.970  0.00  0.00    +0.000 A 
ATOM      3  C   UNL     1      44.164   6.249  11.486  0.00  0.00    +0.000 A 
ATOM      4  C   UNL     1      44.719   7.502  11.675  0.00  0.00    +0.000 A 
ATOM      5  N   UNL     1      45.897   7.717  12.298  0.00  0.00    +0.000 NA
ATOM      6  C   UNL     1      46.580   6.641  12.765  0.00  0.00    +0.000 A 
ATOM      7  C   UNL     1      46.074   5.348  12.630  0.00  0.00    +0.000 A 
BRANCH   6   8
ATOM      8  C   UNL     1      47.870   6.932  13.407  0.00  0.00    +0.000 A 
ATOM      9  C   UNL     1      48.220   6.358  14.636  0.00  0.00    +0.000 A 
ATOM     10  N   UNL     1      49.393   6.566  15.292  0.00  0.00    +0.000 NA
ATOM     11  C   UNL     1      50.270   7.407  14.703  0.00  0.00    +0.000 A 
ATOM     12  C   UNL     1      50.021   8.039  13.499  0.00  0.00    +0.000 A 
ATOM     13  F   UNL     1      50.924   8.871  12.965  0.00  0.00    +0.000 F 
ATOM     14  C   UNL     1      48.819   7.804  12.847  0.00  0.00    +0.000 A 
ENDBRANCH   6   8
ENDBRANCH   1   2
BRANCH   1  15
ATOM     15  N   UNL     1      43.901   3.512  10.442  0.00  0.00    +0.000 N 
ATOM     16  H   UNL     1      43.081   2.921  10.332  0.00  0.00    +0.000 HD
BRANCH  15  20
ATOM     17  C   UNL     1      46.654   2.654   7.362  0.00  0.00    +0.000 A 
ATOM     18  C   UNL     1      46.273   3.977   7.595  0.00  0.00    +0.000 A 
ATOM     19  C   UNL     1      45.379   4.276   8.627  0.00  0.00    +0.000 A 
ATOM     20  C   UNL     1      44.871   3.278   9.468  0.00  0.00    +0.000 A 
ATOM     21  C   UNL     1      45.262   1.954   9.216  0.00  0.00    +0.000 A 
ATOM     22  C   UNL     1      46.141   1.641   8.171  0.00  0.00    +0.000 A 
BRANCH  17  24
ATOM     23  N   UNL     1      47.463   3.055   5.098  0.00  0.00    +0.000 N 
ATOM     24  C   UNL     1      47.546   2.292   6.228  0.00  0.00    +0.000 C 
ATOM     25  O   UNL     1      48.336   1.361   6.306  0.00  0.00    +0.000 OA
ATOM     26  H   UNL     1      48.129   2.849   4.367  0.00  0.00    +0.000 HD
ATOM     27  H   UNL     1      47.011   3.960   5.083  0.00  0.00    +0.000 HD
ENDBRANCH  17  24
ENDBRANCH  15  20
ENDBRANCH   1  15
TORSDOF 5
ENDMDL
MODEL 6
REMARK VINA RESULT:    -7.743      3.727      7.192
REMARK INTER + INTRA:         -10.806
REMARK INTER:                  -9.857
REMARK INTRA:                  -0.949
REMARK UNBOUND:                -0.800
REMARK  Name = 
REMARK  5 active torsions:
REMARK  status: ('A' for Active; 'I' for Inactive)
REMARK    1  A    between atoms: C_2  and  C_4
REMARK    2  A    between atoms: C_7  and  N_8
REMARK    3  A    between atoms: N_8  and  C_9
REMARK    4  A    between atoms: C_9  and  C_10
REMARK    5  A    between atoms: C_14  and  C_15
REMARK                            x       y       z     vdW  Elec       q    Type
REMARK                         _______ _______ _______ _____ _____    ______ ____
ROOT
ATOM      1  C   UNL     1      43.414   6.368  11.379  0.00  0.00    +0.000 C 
ENDROOT
BRANCH   1   2
ATOM      2  C   UNL     1      43.645   4.917  11.051  0.00  0.00    +0.000 A 
ATOM      3  C   UNL     1      43.051   3.910  11.810  0.00  0.00    +0.000 A 
ATOM      4  C   UNL     1      43.275   2.595  11.446  0.00  0.00    +0.000 A 
ATOM      5  N   UNL     1      44.042   2.224  10.398  0.00  0.00    +0.000 NA
ATOM      6  C   UNL     1      44.631   3.199   9.660  0.00  0.00    +0.000 A 
ATOM      7  C   UNL     1      44.435   4.548   9.954  0.00  0.00    +0.000 A 
BRANCH   6   8
ATOM      8  C   UNL     1      45.480   2.737   8.552  0.00  0.00    +0.000 A 
ATOM      9  C   UNL     1      45.949   3.624   7.573  0.00  0.00    +0.000 A 
ATOM     10  N   UNL     1      46.743   3.282   6.523  0.00  0.00    +0.000 NA
ATOM     11  C   UNL     1      47.083   1.978   6.426  0.00  0.00    +0.000 A 
ATOM     12  C   UNL     1      46.664   1.018   7.328  0.00  0.00    +0.000 A 
ATOM     13  F   UNL     1      47.025  -0.263   7.177  0.00  0.00    +0.000 F 
ATOM     14  C   UNL     1      45.860   1.394   8.393  0.00  0.00    +0.000 A 
ENDBRANCH   6   8
ENDBRANCH   1   2
BRANCH   1  15
ATOM     15  N   UNL     1      44.072   6.713  12.629  0.00  0.00    +0.000 N 
ATOM     16  H   UNL     1      43.618   7.458  13.152  0.00  0.00    +0.000 HD
BRANCH  15  20
ATOM     17  C   UNL     1      48.256   7.125  12.978  0.00  0.00    +0.000 A 
ATOM     18  C   UNL     1      47.618   6.044  13.589  0.00  0.00    +0.000 A 
ATOM     19  C   UNL     1      46.236   5.883  13.461  0.00  0.00    +0.000 A 
ATOM     20  C   UNL     1      45.463   6.771  12.701  0.00  0.00    +0.000 A 
ATOM     21  C   UNL     1      46.120   7.854  12.098  0.00  0.00    +0.000 A 
ATOM     22  C   UNL     1      47.503   8.035  12.236  0.00  0.00    +0.000 A 
BRANCH  17  24
ATOM     23  N   UNL     1      50.447   7.610  12.025  0.00  0.00    +0.000 N 
ATOM     24  C   UNL     1      49.713   7.366  13.152  0.00  0.00    +0.000 C 
ATOM     25  O   UNL     1      50.236   7.367  14.259  0.00  0.00    +0.000 OA
ATOM     26  H   UNL     1      51.417   7.850  12.164  0.00  0.00    +0.000 HD
ATOM     27  H   UNL     1      50.022   7.854  11.141  0.00  0.00    +0.000 HD
ENDBRANCH  17  24
ENDBRANCH  15  20
ENDBRANCH   1  15
TORSDOF 5
ENDMDL
MODEL 7
REMARK VINA RESULT:    -7.182      3.452      7.773
REMARK INTER + INTRA:         -10.081
REMARK INTER:                  -9.442
REMARK INTRA:                  -0.639
REMARK UNBOUND:                -0.800
REMARK  Name = 
REMARK  5 active torsions:
REMARK  status: ('A' for Active; 'I' for Inactive)
REMARK    1  A    between atoms: C_2  and  C_4
REMARK    2  A    between atoms: C_7  and  N_8
REMARK    3  A    between atoms: N_8  and  C_9
REMARK    4  A    between atoms: C_9  and  C_10
REMARK    5  A    between atoms: C_14  and  C_15
REMARK                            x       y       z     vdW  Elec       q    Type
REMARK                         _______ _______ _______ _____ _____    ______ ____
ROOT
ATOM      1  C   UNL     1      45.552   6.803  12.208  0.00  0.00    +0.000 C 
ENDROOT
BRANCH   1   2
ATOM      2  C   UNL     1      44.932   5.623  11.510  0.00  0.00    +0.000 A 
ATOM      3  C   UNL     1      43.676   5.150  11.884  0.00  0.00    +0.000 A 
ATOM      4  C   UNL     1      43.143   4.080  11.189  0.00  0.00    +0.000 A 
ATOM      5  N   UNL     1      43.771   3.459  10.167  0.00  0.00    +0.000 NA
ATOM      6  C   UNL     1      44.998   3.909   9.802  0.00  0.00    +0.000 A 
ATOM      7  C   UNL     1      45.592   4.996  10.444  0.00  0.00    +0.000 A 
BRANCH   6   8
ATOM      8  C   UNL     1      45.648   3.176   8.705  0.00  0.00    +0.000 A 
ATOM      9  C   UNL     1      46.109   3.836   7.558  0.00  0.00    +0.000 A 
ATOM     10  N   UNL     1      46.726   3.237   6.505  0.00  0.00    +0.000 NA
ATOM     11  C   UNL     1      46.884   1.898   6.583  0.00  0.00    +0.000 A 
ATOM     12  C   UNL     1      46.454   1.147   7.661  0.00  0.00    +0.000 A 
ATOM     13  F   UNL     1      46.630  -0.180   7.681  0.00  0.00    +0.000 F 
ATOM     14  C   UNL     1      45.833   1.783   8.725  0.00  0.00    +0.000 A 
ENDBRANCH   6   8
ENDBRANCH   1   2
BRANCH   1  15
ATOM     15  N   UNL     1      46.960   6.551  12.470  0.00  0.00    +0.000 N 
ATOM     16  H   UNL     1      47.478   6.191  11.672  0.00  0.00    +0.000 HD
BRANCH  15  20
ATOM     17  C   UNL     1      48.071   5.041  16.250  0.00  0.00    +0.000 A 
ATOM     18  C   UNL     1      47.167   4.326  15.463  0.00  0.00    +0.000 A 
ATOM     19  C   UNL     1      46.809   4.804  14.199  0.00  0.00    +0.000 A 
ATOM     20  C   UNL     1      47.362   5.981  13.678  0.00  0.00    +0.000 A 
ATOM     21  C   UNL     1      48.266   6.688  14.485  0.00  0.00    +0.000 A 
ATOM     22  C   UNL     1      48.616   6.228  15.761  0.00  0.00    +0.000 A 
BRANCH  17  24
ATOM     23  N   UNL     1      49.512   3.791  17.768  0.00  0.00    +0.000 N 
ATOM     24  C   UNL     1      48.419   4.600  17.627  0.00  0.00    +0.000 C 
ATOM     25  O   UNL     1      47.770   4.960  18.600  0.00  0.00    +0.000 OA
ATOM     26  H   UNL     1      49.784   3.565  18.713  0.00  0.00    +0.000 HD
ATOM     27  H   UNL     1      50.201   3.675  17.037  0.00  0.00    +0.000 HD
ENDBRANCH  17  24
ENDBRANCH  15  20
ENDBRANCH   1  15
TORSDOF 5
ENDMDL
MODEL 8
REMARK VINA RESULT:    -6.940      4.225      7.623
REMARK INTER + INTRA:          -9.768
REMARK INTER:                  -9.062
REMARK INTRA:                  -0.706
REMARK UNBOUND:                -0.800
REMARK  Name = 
REMARK  5 active torsions:
REMARK  status: ('A' for Active; 'I' for Inactive)
REMARK    1  A    between atoms: C_2  and  C_4
REMARK    2  A    between atoms: C_7  and  N_8
REMARK    3  A    between atoms: N_8  and  C_9
REMARK    4  A    between atoms: C_9  and  C_10
REMARK    5  A    between atoms: C_14  and  C_15
REMARK                            x       y       z     vdW  Elec       q    Type
REMARK                         _______ _______ _______ _____ _____    ______ ____
ROOT
ATOM      1  C   UNL     1      45.270   7.628  12.043  0.00  0.00    +0.000 C 
ENDROOT
BRANCH   1   2
ATOM      2  C   UNL     1      44.630   6.368  11.524  0.00  0.00    +0.000 A 
ATOM      3  C   UNL     1      43.380   5.960  11.983  0.00  0.00    +0.000 A 
ATOM      4  C   UNL     1      42.827   4.809  11.450  0.00  0.00    +0.000 A 
ATOM      5  N   UNL     1      43.432   4.050  10.510  0.00  0.00    +0.000 NA
ATOM      6  C   UNL     1      44.654   4.436  10.065  0.00  0.00    +0.000 A 
ATOM      7  C   UNL     1      45.266   5.596  10.541  0.00  0.00    +0.000 A 
BRANCH   6   8
ATOM      8  C   UNL     1      45.278   3.556   9.066  0.00  0.00    +0.000 A 
ATOM      9  C   UNL     1      45.448   2.185   9.306  0.00  0.00    +0.000 A 
ATOM     10  N   UNL     1      46.005   1.301   8.435  0.00  0.00    +0.000 NA
ATOM     11  C   UNL     1      46.438   1.807   7.259  0.00  0.00    +0.000 A 
ATOM     12  C   UNL     1      46.333   3.145   6.927  0.00  0.00    +0.000 A 
ATOM     13  F   UNL     1      46.788   3.593   5.750  0.00  0.00    +0.000 F 
ATOM     14  C   UNL     1      45.755   4.024   7.830  0.00  0.00    +0.000 A 
ENDBRANCH   6   8
ENDBRANCH   1   2
BRANCH   1  15
ATOM     15  N   UNL     1      46.081   7.334  13.214  0.00  0.00    +0.000 N 
ATOM     16  H   UNL     1      45.652   7.594  14.099  0.00  0.00    +0.000 HD
BRANCH  15  20
ATOM     17  C   UNL     1      50.204   8.191  12.949  0.00  0.00    +0.000 A 
ATOM     18  C   UNL     1      49.516   8.479  14.129  0.00  0.00    +0.000 A 
ATOM     19  C   UNL     1      48.156   8.179  14.237  0.00  0.00    +0.000 A 
ATOM     20  C   UNL     1      47.457   7.559  13.192  0.00  0.00    +0.000 A 
ATOM     21  C   UNL     1      48.164   7.281  12.012  0.00  0.00    +0.000 A 
ATOM     22  C   UNL     1      49.523   7.596  11.886  0.00  0.00    +0.000 A 
BRANCH  17  24
ATOM     23  N   UNL     1      52.339   7.895  11.811  0.00  0.00    +0.000 N 
ATOM     24  C   UNL     1      51.633   8.562  12.773  0.00  0.00    +0.000 C 
ATOM     25  O   UNL     1      52.156   9.441  13.445  0.00  0.00    +0.000 OA
ATOM     26  H   UNL     1      53.284   8.211  11.647  0.00  0.00    +0.000 HD
ATOM     27  H   UNL     1      51.892   7.350  11.086  0.00  0.00    +0.000 HD
ENDBRANCH  17  24
ENDBRANCH  15  20
ENDBRANCH   1  15
TORSDOF 5
ENDMDL
MODEL 9
REMARK VINA RESULT:    -6.691      4.065      7.771
REMARK INTER + INTRA:          -9.446
REMARK INTER:                  -8.697
REMARK INTRA:                  -0.749
REMARK UNBOUND:                -0.800
REMARK  Name = 
REMARK  5 active torsions:
REMARK  status: ('A' for Active; 'I' for Inactive)
REMARK    1  A    between atoms: C_2  and  C_4
REMARK    2  A    between atoms: C_7  and  N_8
REMARK    3  A    between atoms: N_8  and  C_9
REMARK    4  A    between atoms: C_9  and  C_10
REMARK    5  A    between atoms: C_14  and  C_15
REMARK                            x       y       z     vdW  Elec       q    Type
REMARK                         _______ _______ _______ _____ _____    ______ ____
ROOT
ATOM      1  C   UNL     1      48.700   6.701  15.814  0.00  0.00    +0.000 C 
ENDROOT
BRANCH   1   2
ATOM      2  C   UNL     1      48.207   6.688  14.392  0.00  0.00    +0.000 A 
ATOM      3  C   UNL     1      48.923   7.326  13.382  0.00  0.00    +0.000 A 
ATOM      4  C   UNL     1      48.438   7.258  12.088  0.00  0.00    +0.000 A 
ATOM      5  N   UNL     1      47.304   6.611  11.744  0.00  0.00    +0.000 NA
ATOM      6  C   UNL     1      46.596   5.994  12.724  0.00  0.00    +0.000 A 
ATOM      7  C   UNL     1      47.033   6.003  14.048  0.00  0.00    +0.000 A 
BRANCH   6   8
ATOM      8  C   UNL     1      45.354   5.333  12.296  0.00  0.00    +0.000 A 
ATOM      9  C   UNL     1      44.421   5.989  11.483  0.00  0.00    +0.000 A 
ATOM     10  N   UNL     1      43.255   5.449  11.036  0.00  0.00    +0.000 NA
ATOM     11  C   UNL     1      42.987   4.186  11.432  0.00  0.00    +0.000 A 
ATOM     12  C   UNL     1      43.831   3.453  12.246  0.00  0.00    +0.000 A 
ATOM     13  F   UNL     1      43.510   2.207  12.615  0.00  0.00    +0.000 F 
ATOM     14  C   UNL     1      45.016   4.025  12.682  0.00  0.00    +0.000 A 
ENDBRANCH   6   8
ENDBRANCH   1   2
BRANCH   1  15
ATOM     15  N   UNL     1      48.252   5.507  16.513  0.00  0.00    +0.000 N 
ATOM     16  H   UNL     1      47.522   5.671  17.201  0.00  0.00    +0.000 HD
BRANCH  15  20
ATOM     17  C   UNL     1      51.041   2.495  17.489  0.00  0.00    +0.000 A 
ATOM     18  C   UNL     1      51.391   3.837  17.655  0.00  0.00    +0.000 A 
ATOM     19  C   UNL     1      50.468   4.843  17.357  0.00  0.00    +0.000 A 
ATOM     20  C   UNL     1      49.172   4.540  16.920  0.00  0.00    +0.000 A 
ATOM     21  C   UNL     1      48.839   3.187  16.755  0.00  0.00    +0.000 A 
ATOM     22  C   UNL     1      49.764   2.172  17.032  0.00  0.00    +0.000 A 
BRANCH  17  24
ATOM     23  N   UNL     1      51.526   0.196  18.136  0.00  0.00    +0.000 N 
ATOM     24  C   UNL     1      52.021   1.402  17.728  0.00  0.00    +0.000 C 
ATOM     25  O   UNL     1      53.220   1.565  17.548  0.00  0.00    +0.000 OA
ATOM     26  H   UNL     1      52.192  -0.559  18.217  0.00  0.00    +0.000 HD
ATOM     27  H   UNL     1      50.547  -0.045  18.061  0.00  0.00    +0.000 HD
ENDBRANCH  17  24
ENDBRANCH  15  20
ENDBRANCH   1  15
TORSDOF 5
ENDMDL
