MODEL 1
REMARK VINA RESULT:    -8.411      0.000      0.000
REMARK INTER + INTRA:         -11.871
REMARK INTER:                 -11.361
REMARK INTRA:                  -0.510
REMARK UNBOUND:                -0.510
REMARK  Name = 
REMARK  6 active torsions:
REMARK  status: ('A' for Active; 'I' for Inactive)
REMARK    1  A    between atoms: C_2  and  C_3
REMARK    2  A    between atoms: C_7  and  C_8
REMARK    3  A    between atoms: C_12  and  C_13
REMARK    4  A    between atoms: C_13  and  N_14
REMARK    5  A    between atoms: N_14  and  C_15
REMARK    6  A    between atoms: C_18  and  C_19
REMARK                            x       y       z     vdW  Elec       q    Type
REMARK                         _______ _______ _______ _____ _____    ______ ____
ROOT
ATOM      1  C   UNL     1      46.960   5.562  13.709  0.00  0.00    +0.000 A 
ATOM      2  C   UNL     1      47.581   6.584  12.977  0.00  0.00    +0.000 A 
ATOM      3  C   UNL     1      47.052   7.033  11.763  0.00  0.00    +0.000 A 
ATOM      4  C   UNL     1      45.885   6.466  11.252  0.00  0.00    +0.000 A 
ATOM      5  C   UNL     1      45.222   5.447  11.943  0.00  0.00    +0.000 A 
ATOM      6  C   UNL     1      45.777   5.029  13.170  0.00  0.00    +0.000 A 
ENDROOT
BRANCH   1  11
ATOM      7  C   UNL     1      48.904   5.324  16.976  0.00  0.00    +0.000 A 
ATOM      8  C   UNL     1      48.649   4.009  17.364  0.00  0.00    +0.000 A 
ATOM      9  C   UNL     1      47.843   3.200  16.571  0.00  0.00    +0.000 A 
ATOM     10  C   UNL     1      47.283   3.710  15.395  0.00  0.00    +0.000 A 
ATOM     11  C   UNL     1      47.523   5.034  14.975  0.00  0.00    +0.000 A 
ATOM     12  C   UNL     1      48.350   5.826  15.790  0.00  0.00    +0.000 A 
BRANCH   7  14
ATOM     13  N   UNL     1      50.420   6.846  18.429  0.00  0.00    +0.000 NA
ATOM     14  C   UNL     1      49.739   6.165  17.782  0.00  0.00    +0.000 C 
ENDBRANCH   7  14
ENDBRANCH   1  11
BRANCH   5  15
ATOM     15  C   UNL     1      43.942   4.794  11.443  0.00  0.00    +0.000 C 
ATOM     16  C   UNL     1      42.703   5.134  12.270  0.00  0.00    +0.000 C 
ATOM     17  C   UNL     1      43.213   3.734  12.241  0.00  0.00    +0.000 C 
BRANCH  15  18
ATOM     18  N   UNL     1      43.818   4.797   9.973  0.00  0.00    +0.000 N 
ATOM     19  H   UNL     1      43.515   5.680   9.557  0.00  0.00    +0.000 HD
BRANCH  18  20
ATOM     20  C   UNL     1      44.728   4.132   9.124  0.00  0.00    +0.000 A 
ATOM     21  C   UNL     1      45.679   4.746   8.334  0.00  0.00    +0.000 A 
ATOM     22  N   UNL     1      46.596   4.089   7.590  0.00  0.00    +0.000 NA
ATOM     23  C   UNL     1      46.573   2.745   7.672  0.00  0.00    +0.000 A 
ATOM     24  N   UNL     1      45.729   2.023   8.420  0.00  0.00    +0.000 NA
ATOM     25  C   UNL     1      44.845   2.747   9.131  0.00  0.00    +0.000 A 
ATOM     26  F   UNL     1      44.005   2.051   9.916  0.00  0.00    +0.000 F 
BRANCH  23  27
ATOM     27  C   UNL     1      47.540   2.026   6.886  0.00  0.00    +0.000 C 
ATOM     28  N   UNL     1      48.324   1.445   6.248  0.00  0.00    +0.000 NA
ENDBRANCH  23  27
ENDBRANCH  18  20
ENDBRANCH  15  18
ENDBRANCH   5  15
TORSDOF 6
ENDMDL
MODEL 2
REMARK VINA RESULT:    -8.382      2.374      4.017
REMARK INTER + INTRA:         -11.832
REMARK INTER:                 -11.067
REMARK INTRA:                  -0.764
REMARK UNBOUND:                -0.510
REMARK  Name = 
REMARK  6 active torsions:
REMARK  status: ('A' for Active; 'I' for Inactive)
REMARK    1  A    between atoms: C_2  and  C_3
REMARK    2  A    between atoms: C_7  and  C_8
REMARK    3  A    between atoms: C_12  and  C_13
REMARK    4  A    between atoms: C_13  and  N_14
REMARK    5  A    between atoms: N_14  and  C_15
REMARK    6  A    between atoms: C_18  and  C_19
REMARK                            x       y       z     vdW  Elec       q    Type
REMARK                         _______ _______ _______ _____ _____    ______ ____
ROOT
ATOM      1  C   UNL     1      47.100   6.750  12.391  0.00  0.00    +0.000 A 
ATOM      2  C   UNL     1      47.717   5.872  13.294  0.00  0.00    +0.000 A 
ATOM      3  C   UNL     1      47.149   4.633  13.606  0.00  0.00    +0.000 A 
ATOM      4  C   UNL     1      45.946   4.243  13.020  0.00  0.00    +0.000 A 
ATOM      5  C   UNL     1      45.290   5.077  12.108  0.00  0.00    +0.000 A 
ATOM      6  C   UNL     1      45.899   6.314  11.808  0.00  0.00    +0.000 A 
ENDROOT
BRANCH   1  11
ATOM      7  C   UNL     1      49.545   9.522  11.471  0.00  0.00    +0.000 A 
ATOM      8  C   UNL     1      48.731  10.652  11.534  0.00  0.00    +0.000 A 
ATOM      9  C   UNL     1      47.388  10.517  11.869  0.00  0.00    +0.000 A 
ATOM     10  C   UNL     1      46.858   9.249  12.130  0.00  0.00    +0.000 A 
ATOM     11  C   UNL     1      47.654   8.088  12.077  0.00  0.00    +0.000 A 
ATOM     12  C   UNL     1      49.010   8.255  11.747  0.00  0.00    +0.000 A 
BRANCH   7  14
ATOM     13  N   UNL     1      52.057   9.751  10.867  0.00  0.00    +0.000 NA
ATOM     14  C   UNL     1      50.933   9.650  11.134  0.00  0.00    +0.000 C 
ENDBRANCH   7  14
ENDBRANCH   1  11
BRANCH   5  15
ATOM     15  C   UNL     1      43.981   4.706  11.428  0.00  0.00    +0.000 C 
ATOM     16  C   UNL     1      42.733   5.110  12.212  0.00  0.00    +0.000 C 
ATOM     17  C   UNL     1      43.041   3.667  12.002  0.00  0.00    +0.000 C 
BRANCH  15  18
ATOM     18  N   UNL     1      43.991   4.937   9.971  0.00  0.00    +0.000 N 
ATOM     19  H   UNL     1      43.845   5.905   9.677  0.00  0.00    +0.000 HD
BRANCH  18  20
ATOM     20  C   UNL     1      44.878   4.276   9.095  0.00  0.00    +0.000 A 
ATOM     21  C   UNL     1      45.871   4.886   8.354  0.00  0.00    +0.000 A 
ATOM     22  N   UNL     1      46.763   4.226   7.583  0.00  0.00    +0.000 NA
ATOM     23  C   UNL     1      46.670   2.883   7.584  0.00  0.00    +0.000 A 
ATOM     24  N   UNL     1      45.780   2.163   8.278  0.00  0.00    +0.000 NA
ATOM     25  C   UNL     1      44.923   2.890   9.021  0.00  0.00    +0.000 A 
ATOM     26  F   UNL     1      44.037   2.193   9.753  0.00  0.00    +0.000 F 
BRANCH  23  27
ATOM     27  C   UNL     1      47.611   2.162   6.767  0.00  0.00    +0.000 C 
ATOM     28  N   UNL     1      48.374   1.580   6.106  0.00  0.00    +0.000 NA
ENDBRANCH  23  27
ENDBRANCH  18  20
ENDBRANCH  15  18
ENDBRANCH   5  15
TORSDOF 6
ENDMDL
MODEL 3
REMARK VINA RESULT:    -8.109      1.890      2.806
REMARK INTER + INTRA:         -11.463
REMARK INTER:                 -10.408
REMARK INTRA:                  -1.055
REMARK UNBOUND:                -0.510
REMARK  Name = 
REMARK  6 active torsions:
REMARK  status: ('A' for Active; 'I' for Inactive)
REMARK    1  A    between atoms: C_2  and  C_3
REMARK    2  A    between atoms: C_7  and  C_8
REMARK    3  A    between atoms: C_12  and  C_13
REMARK    4  A    between atoms: C_13  and  N_14
REMARK    5  A    between atoms: N_14  and  C_15
REMARK    6  A    between atoms: C_18  and  C_19
REMARK                            x       y       z     vdW  Elec       q    Type
REMARK                         _______ _______ _______ _____ _____    ______ ____
ROOT
ATOM      1  C   UNL     1      46.670   7.590  12.179  0.00  0.00    +0.000 A 
ATOM      2  C   UNL     1      45.814   8.654  11.863  0.00  0.00    +0.000 A 
ATOM      3  C   UNL     1      44.508   8.429  11.418  0.00  0.00    +0.000 A 
ATOM      4  C   UNL     1      44.027   7.127  11.278  0.00  0.00    +0.000 A 
ATOM      5  C   UNL     1      44.837   6.028  11.584  0.00  0.00    +0.000 A 
ATOM      6  C   UNL     1      46.144   6.295  12.042  0.00  0.00    +0.000 A 
ENDROOT
BRANCH   1  11
ATOM      7  C   UNL     1      49.856   7.530  14.266  0.00  0.00    +0.000 A 
ATOM      8  C   UNL     1      50.740   8.244  13.457  0.00  0.00    +0.000 A 
ATOM      9  C   UNL     1      50.306   8.740  12.232  0.00  0.00    +0.000 A 
ATOM     10  C   UNL     1      48.992   8.513  11.813  0.00  0.00    +0.000 A 
ATOM     11  C   UNL     1      48.074   7.797  12.607  0.00  0.00    +0.000 A 
ATOM     12  C   UNL     1      48.536   7.316  13.845  0.00  0.00    +0.000 A 
BRANCH   7  14
ATOM     13  N   UNL     1      50.635   6.608  16.561  0.00  0.00    +0.000 NA
ATOM     14  C   UNL     1      50.290   7.019  15.533  0.00  0.00    +0.000 C 
ENDBRANCH   7  14
ENDBRANCH   1  11
BRANCH   5  15
ATOM     15  C   UNL     1      44.369   4.586  11.461  0.00  0.00    +0.000 C 
ATOM     16  C   UNL     1      43.508   4.106  12.628  0.00  0.00    +0.000 C 
ATOM     17  C   UNL     1      44.850   3.500  12.400  0.00  0.00    +0.000 C 
BRANCH  15  18
ATOM     18  N   UNL     1      43.953   4.220  10.094  0.00  0.00    +0.000 N 
ATOM     19  H   UNL     1      43.246   4.824   9.671  0.00  0.00    +0.000 HD
BRANCH  18  20
ATOM     20  C   UNL     1      44.855   3.747   9.117  0.00  0.00    +0.000 A 
ATOM     21  C   UNL     1      45.710   4.534   8.371  0.00  0.00    +0.000 A 
ATOM     22  N   UNL     1      46.625   4.056   7.499  0.00  0.00    +0.000 NA
ATOM     23  C   UNL     1      46.703   2.716   7.397  0.00  0.00    +0.000 A 
ATOM     24  N   UNL     1      45.960   1.836   8.080  0.00  0.00    +0.000 NA
ATOM     25  C   UNL     1      45.071   2.387   8.928  0.00  0.00    +0.000 A 
ATOM     26  F   UNL     1      44.332   1.528   9.651  0.00  0.00    +0.000 F 
BRANCH  23  27
ATOM     27  C   UNL     1      47.670   2.187   6.471  0.00  0.00    +0.000 C 
ATOM     28  N   UNL     1      48.454   1.759   5.722  0.00  0.00    +0.000 NA
ENDBRANCH  23  27
ENDBRANCH  18  20
ENDBRANCH  15  18
ENDBRANCH   5  15
TORSDOF 6
ENDMDL
MODEL 4
REMARK VINA RESULT:    -8.090      2.928      3.640
REMARK INTER + INTRA:         -11.437
REMARK INTER:                 -10.335
REMARK INTRA:                  -1.102
REMARK UNBOUND:                -0.510
REMARK  Name = 
REMARK  6 active torsions:
REMARK  status: ('A' for Active; 'I' for Inactive)
REMARK    1  A    between atoms: C_2  and  C_3
REMARK    2  A    between atoms: C_7  and  C_8
REMARK    3  A    between atoms: C_12  and  C_13
REMARK    4  A    between atoms: C_13  and  N_14
REMARK    5  A    between atoms: N_14  and  C_15
REMARK    6  A    between atoms: C_18  and  C_19
REMARK                            x       y       z     vdW  Elec       q    Type
REMARK                         _______ _______ _______ _____ _____    ______ ____
ROOT
ATOM      1  C   UNL     1      46.695   7.771  12.050  0.00  0.00    +0.000 A 
ATOM      2  C   UNL     1      45.823   8.840  11.805  0.00  0.00    +0.000 A 
ATOM      3  C   UNL     1      44.483   8.623  11.468  0.00  0.00    +0.000 A 
ATOM      4  C   UNL     1      43.985   7.325  11.368  0.00  0.00    +0.000 A 
ATOM      5  C   UNL     1      44.810   6.221  11.608  0.00  0.00    +0.000 A 
ATOM      6  C   UNL     1      46.152   6.479  11.957  0.00  0.00    +0.000 A 
ENDROOT
BRANCH   1  11
ATOM      7  C   UNL     1      50.486   7.884  11.698  0.00  0.00    +0.000 A 
ATOM      8  C   UNL     1      50.879   8.290  12.973  0.00  0.00    +0.000 A 
ATOM      9  C   UNL     1      49.915   8.532  13.947  0.00  0.00    +0.000 A 
ATOM     10  C   UNL     1      48.560   8.379  13.641  0.00  0.00    +0.000 A 
ATOM     11  C   UNL     1      48.130   7.969  12.363  0.00  0.00    +0.000 A 
ATOM     12  C   UNL     1      49.126   7.720  11.402  0.00  0.00    +0.000 A 
BRANCH   7  14
ATOM     13  N   UNL     1      52.268   7.408   9.875  0.00  0.00    +0.000 NA
ATOM     14  C   UNL     1      51.471   7.625  10.689  0.00  0.00    +0.000 C 
ENDBRANCH   7  14
ENDBRANCH   1  11
BRANCH   5  15
ATOM     15  C   UNL     1      44.325   4.781  11.523  0.00  0.00    +0.000 C 
ATOM     16  C   UNL     1      43.457   4.344  12.702  0.00  0.00    +0.000 C 
ATOM     17  C   UNL     1      44.792   3.715  12.492  0.00  0.00    +0.000 C 
BRANCH  15  18
ATOM     18  N   UNL     1      43.905   4.383  10.167  0.00  0.00    +0.000 N 
ATOM     19  H   UNL     1      43.212   4.989   9.723  0.00  0.00    +0.000 HD
BRANCH  18  20
ATOM     20  C   UNL     1      44.800   3.862   9.208  0.00  0.00    +0.000 A 
ATOM     21  C   UNL     1      45.675   4.608   8.444  0.00  0.00    +0.000 A 
ATOM     22  N   UNL     1      46.582   4.085   7.589  0.00  0.00    +0.000 NA
ATOM     23  C   UNL     1      46.630   2.741   7.526  0.00  0.00    +0.000 A 
ATOM     24  N   UNL     1      45.865   1.898   8.231  0.00  0.00    +0.000 NA
ATOM     25  C   UNL     1      44.986   2.493   9.059  0.00  0.00    +0.000 A 
ATOM     26  F   UNL     1      44.225   1.672   9.803  0.00  0.00    +0.000 F 
BRANCH  23  27
ATOM     27  C   UNL     1      47.589   2.163   6.620  0.00  0.00    +0.000 C 
ATOM     28  N   UNL     1      48.364   1.694   5.888  0.00  0.00    +0.000 NA
ENDBRANCH  23  27
ENDBRANCH  18  20
ENDBRANCH  15  18
ENDBRANCH   5  15
TORSDOF 6
ENDMDL
MODEL 5
REMARK VINA RESULT:    -7.687      2.785      7.915
REMARK INTER + INTRA:         -10.893
REMARK INTER:                 -10.636
REMARK INTRA:                  -0.257
REMARK UNBOUND:                -0.510
REMARK  Name = 
REMARK  6 active torsions:
REMARK  status: ('A' for Active; 'I' for Inactive)
REMARK    1  A    between atoms: C_2  and  C_3
REMARK    2  A    between atoms: C_7  and  C_8
REMARK    3  A    between atoms: C_12  and  C_13
REMARK    4  A    between atoms: C_13  and  N_14
REMARK    5  A    between atoms: N_14  and  C_15
REMARK    6  A    between atoms: C_18  and  C_19
REMARK                            x       y       z     vdW  Elec       q    Type
REMARK                         _______ _______ _______ _____ _____    ______ ____
ROOT
ATOM      1  C   UNL     1      45.147   4.507   9.508  0.00  0.00    +0.000 A 
ATOM      2  C   UNL     1      43.816   4.283   9.891  0.00  0.00    +0.000 A 
ATOM      3  C   UNL     1      43.235   4.993  10.946  0.00  0.00    +0.000 A 
ATOM      4  C   UNL     1      43.974   5.946  11.645  0.00  0.00    +0.000 A 
ATOM      5  C   UNL     1      45.304   6.213  11.302  0.00  0.00    +0.000 A 
ATOM      6  C   UNL     1      45.853   5.486  10.225  0.00  0.00    +0.000 A 
ENDROOT
BRANCH   1  11
ATOM      7  C   UNL     1      46.563   1.606   7.486  0.00  0.00    +0.000 A 
ATOM      8  C   UNL     1      47.113   2.266   6.388  0.00  0.00    +0.000 A 
ATOM      9  C   UNL     1      47.020   3.651   6.298  0.00  0.00    +0.000 A 
ATOM     10  C   UNL     1      46.368   4.374   7.302  0.00  0.00    +0.000 A 
ATOM     11  C   UNL     1      45.804   3.737   8.426  0.00  0.00    +0.000 A 
ATOM     12  C   UNL     1      45.922   2.338   8.496  0.00  0.00    +0.000 A 
BRANCH   7  14
ATOM     13  N   UNL     1      46.733  -0.974   7.685  0.00  0.00    +0.000 NA
ATOM     14  C   UNL     1      46.659   0.180   7.593  0.00  0.00    +0.000 C 
ENDBRANCH   7  14
ENDBRANCH   1  11
BRANCH   5  15
ATOM     15  C   UNL     1      46.161   7.245  12.020  0.00  0.00    +0.000 C 
ATOM     16  C   UNL     1      45.367   8.228  12.879  0.00  0.00    +0.000 C 
ATOM     17  C   UNL     1      46.101   8.719  11.678  0.00  0.00    +0.000 C 
BRANCH  15  18
ATOM     18  N   UNL     1      47.408   6.687  12.575  0.00  0.00    +0.000 N 
ATOM     19  H   UNL     1      48.228   7.296  12.518  0.00  0.00    +0.000 HD
BRANCH  18  20
ATOM     20  C   UNL     1      47.444   5.908  13.751  0.00  0.00    +0.000 A 
ATOM     21  C   UNL     1      46.855   4.669  13.907  0.00  0.00    +0.000 A 
ATOM     22  N   UNL     1      46.969   3.902  15.014  0.00  0.00    +0.000 NA
ATOM     23  C   UNL     1      47.743   4.394  15.999  0.00  0.00    +0.000 A 
ATOM     24  N   UNL     1      48.397   5.562  15.969  0.00  0.00    +0.000 NA
ATOM     25  C   UNL     1      48.233   6.271  14.836  0.00  0.00    +0.000 A 
ATOM     26  F   UNL     1      48.903   7.434  14.764  0.00  0.00    +0.000 F 
BRANCH  23  27
ATOM     27  C   UNL     1      47.876   3.592  17.187  0.00  0.00    +0.000 C 
ATOM     28  N   UNL     1      47.984   2.945  18.150  0.00  0.00    +0.000 NA
ENDBRANCH  23  27
ENDBRANCH  18  20
ENDBRANCH  15  18
ENDBRANCH   5  15
TORSDOF 6
ENDMDL
MODEL 6
REMARK VINA RESULT:    -7.462      2.158      3.315
REMARK INTER + INTRA:         -10.588
REMARK INTER:                  -9.648
REMARK INTRA:                  -0.940
REMARK UNBOUND:                -0.510
REMARK  Name = 
REMARK  6 active torsions:
REMARK  status: ('A' for Active; 'I' for Inactive)
REMARK    1  A    between atoms: C_2  and  C_3
REMARK    2  A    between atoms: C_7  and  C_8
REMARK    3  A    between atoms: C_12  and  C_13
REMARK    4  A    between atoms: C_13  and  N_14
REMARK    5  A    between atoms: N_14  and  C_15
REMARK    6  A    between atoms: C_18  and  C_19
REMARK                            x       y       z     vdW  Elec       q    Type
REMARK                         _______ _______ _______ _____ _____    ______ ____
ROOT
ATOM      1  C   UNL     1      47.204   6.014  12.753  0.00  0.00    +0.000 A 
ATOM      2  C   UNL     1      47.298   4.869  13.557  0.00  0.00    +0.000 A 
ATOM      3  C   UNL     1      46.263   3.931  13.609  0.00  0.00    +0.000 A 
ATOM      4  C   UNL     1      45.105   4.119  12.856  0.00  0.00    +0.000 A 
ATOM      5  C   UNL     1      44.959   5.241  12.034  0.00  0.00    +0.000 A 
ATOM      6  C   UNL     1      46.029   6.159  11.997  0.00  0.00    +0.000 A 
ENDROOT
BRANCH   1  11
ATOM      7  C   UNL     1      49.952   8.413  13.849  0.00  0.00    +0.000 A 
ATOM      8  C   UNL     1      50.251   9.068  12.654  0.00  0.00    +0.000 A 
ATOM      9  C   UNL     1      49.567   8.729  11.492  0.00  0.00    +0.000 A 
ATOM     10  C   UNL     1      48.591   7.728  11.523  0.00  0.00    +0.000 A 
ATOM     11  C   UNL     1      48.265   7.049  12.714  0.00  0.00    +0.000 A 
ATOM     12  C   UNL     1      48.964   7.419  13.875  0.00  0.00    +0.000 A 
BRANCH   7  14
ATOM     13  N   UNL     1      51.206   9.033  16.033  0.00  0.00    +0.000 NA
ATOM     14  C   UNL     1      50.646   8.759  15.054  0.00  0.00    +0.000 C 
ENDBRANCH   7  14
ENDBRANCH   1  11
BRANCH   5  15
ATOM     15  C   UNL     1      43.725   5.499  11.182  0.00  0.00    +0.000 C 
ATOM     16  C   UNL     1      42.999   6.802  11.513  0.00  0.00    +0.000 C 
ATOM     17  C   UNL     1      42.328   5.495  11.766  0.00  0.00    +0.000 C 
BRANCH  15  18
ATOM     18  N   UNL     1      43.910   5.148   9.762  0.00  0.00    +0.000 N 
ATOM     19  H   UNL     1      44.109   5.932   9.136  0.00  0.00    +0.000 HD
BRANCH  18  20
ATOM     20  C   UNL     1      44.590   3.986   9.340  0.00  0.00    +0.000 A 
ATOM     21  C   UNL     1      44.152   2.690   9.531  0.00  0.00    +0.000 A 
ATOM     22  N   UNL     1      44.776   1.593   9.048  0.00  0.00    +0.000 NA
ATOM     23  C   UNL     1      45.879   1.816   8.308  0.00  0.00    +0.000 A 
ATOM     24  N   UNL     1      46.395   3.017   8.018  0.00  0.00    +0.000 NA
ATOM     25  C   UNL     1      45.720   4.060   8.535  0.00  0.00    +0.000 A 
ATOM     26  F   UNL     1      46.197   5.281   8.235  0.00  0.00    +0.000 F 
BRANCH  23  27
ATOM     27  C   UNL     1      46.559   0.660   7.786  0.00  0.00    +0.000 C 
ATOM     28  N   UNL     1      47.107  -0.277   7.362  0.00  0.00    +0.000 NA
ENDBRANCH  23  27
ENDBRANCH  18  20
ENDBRANCH  15  18
ENDBRANCH   5  15
TORSDOF 6
ENDMDL
MODEL 7
REMARK VINA RESULT:    -7.168      2.479      8.124
REMARK INTER + INTRA:         -10.191
REMARK INTER:                  -9.082
REMARK INTRA:                  -1.109
REMARK UNBOUND:                -0.510
REMARK  Name = 
REMARK  6 active torsions:
REMARK  status: ('A' for Active; 'I' for Inactive)
REMARK    1  A    between atoms: C_2  and  C_3
REMARK    2  A    between atoms: C_7  and  C_8
REMARK    3  A    between atoms: C_12  and  C_13
REMARK    4  A    between atoms: C_13  and  N_14
REMARK    5  A    between atoms: N_14  and  C_15
REMARK    6  A    between atoms: C_18  and  C_19
REMARK                            x       y       z     vdW  Elec       q    Type
REMARK                         _______ _______ _______ _____ _____    ______ ____
ROOT
ATOM      1  C   UNL     1      45.528   6.344  11.042  0.00  0.00    +0.000 A 
ATOM      2  C   UNL     1      44.527   7.284  11.326  0.00  0.00    +0.000 A 
ATOM      3  C   UNL     1      44.814   8.467  12.014  0.00  0.00    +0.000 A 
ATOM      4  C   UNL     1      46.115   8.737  12.436  0.00  0.00    +0.000 A 
ATOM      5  C   UNL     1      47.154   7.836  12.175  0.00  0.00    +0.000 A 
ATOM      6  C   UNL     1      46.829   6.660  11.468  0.00  0.00    +0.000 A 
ENDROOT
BRANCH   1  11
ATOM      7  C   UNL     1      45.467   3.592   8.411  0.00  0.00    +0.000 A 
ATOM      8  C   UNL     1      44.656   2.634   9.018  0.00  0.00    +0.000 A 
ATOM      9  C   UNL     1      44.132   2.877  10.284  0.00  0.00    +0.000 A 
ATOM     10  C   UNL     1      44.429   4.073  10.945  0.00  0.00    +0.000 A 
ATOM     11  C   UNL     1      45.244   5.061  10.357  0.00  0.00    +0.000 A 
ATOM     12  C   UNL     1      45.751   4.794   9.073  0.00  0.00    +0.000 A 
BRANCH   7  14
ATOM     13  N   UNL     1      46.445   3.156   6.048  0.00  0.00    +0.000 NA
ATOM     14  C   UNL     1      46.007   3.355   7.104  0.00  0.00    +0.000 C 
ENDBRANCH   7  14
ENDBRANCH   1  11
BRANCH   5  15
ATOM     15  C   UNL     1      48.595   8.077  12.601  0.00  0.00    +0.000 C 
ATOM     16  C   UNL     1      49.401   8.931  11.624  0.00  0.00    +0.000 C 
ATOM     17  C   UNL     1      49.767   7.502  11.835  0.00  0.00    +0.000 C 
BRANCH  15  18
ATOM     18  N   UNL     1      48.742   8.345  14.044  0.00  0.00    +0.000 N 
ATOM     19  H   UNL     1      47.951   8.815  14.489  0.00  0.00    +0.000 HD
BRANCH  18  20
ATOM     20  C   UNL     1      49.350   7.436  14.936  0.00  0.00    +0.000 A 
ATOM     21  C   UNL     1      50.541   7.646  15.602  0.00  0.00    +0.000 A 
ATOM     22  N   UNL     1      51.066   6.800  16.515  0.00  0.00    +0.000 NA
ATOM     23  C   UNL     1      50.338   5.702  16.793  0.00  0.00    +0.000 A 
ATOM     24  N   UNL     1      49.156   5.390  16.248  0.00  0.00    +0.000 NA
ATOM     25  C   UNL     1      48.698   6.280  15.347  0.00  0.00    +0.000 A 
ATOM     26  F   UNL     1      47.499   6.009  14.804  0.00  0.00    +0.000 F 
BRANCH  23  27
ATOM     27  C   UNL     1      50.881   4.787  17.762  0.00  0.00    +0.000 C 
ATOM     28  N   UNL     1      51.323   4.046  18.546  0.00  0.00    +0.000 NA
ENDBRANCH  23  27
ENDBRANCH  18  20
ENDBRANCH  15  18
ENDBRANCH   5  15
TORSDOF 6
ENDMDL
MODEL 8
REMARK VINA RESULT:    -7.051      2.494      3.654
REMARK INTER + INTRA:         -10.033
REMARK INTER:                  -9.773
REMARK INTRA:                  -0.260
REMARK UNBOUND:                -0.510
REMARK  Name = 
REMARK  6 active torsions:
REMARK  status: ('A' for Active; 'I' for Inactive)
REMARK    1  A    between atoms: C_2  and  C_3
REMARK    2  A    between atoms: C_7  and  C_8
REMARK    3  A    between atoms: C_12  and  C_13
REMARK    4  A    between atoms: C_13  and  N_14
REMARK    5  A    between atoms: N_14  and  C_15
REMARK    6  A    between atoms: C_18  and  C_19
REMARK                            x       y       z     vdW  Elec       q    Type
REMARK                         _______ _______ _______ _____ _____    ______ ____
ROOT
ATOM      1  C   UNL     1      46.964   5.624  12.968  0.00  0.00    +0.000 A 
ATOM      2  C   UNL     1      47.283   4.361  13.487  0.00  0.00    +0.000 A 
ATOM      3  C   UNL     1      46.434   3.264  13.304  0.00  0.00    +0.000 A 
ATOM      4  C   UNL     1      45.242   3.408  12.596  0.00  0.00    +0.000 A 
ATOM      5  C   UNL     1      44.876   4.645  12.053  0.00  0.00    +0.000 A 
ATOM      6  C   UNL     1      45.763   5.724  12.247  0.00  0.00    +0.000 A 
ENDROOT
BRANCH   1  11
ATOM      7  C   UNL     1      48.669   8.990  12.450  0.00  0.00    +0.000 A 
ATOM      8  C   UNL     1      49.501   9.063  13.567  0.00  0.00    +0.000 A 
ATOM      9  C   UNL     1      49.506   8.024  14.492  0.00  0.00    +0.000 A 
ATOM     10  C   UNL     1      48.671   6.918  14.304  0.00  0.00    +0.000 A 
ATOM     11  C   UNL     1      47.820   6.813  13.186  0.00  0.00    +0.000 A 
ATOM     12  C   UNL     1      47.843   7.872  12.261  0.00  0.00    +0.000 A 
BRANCH   7  14
ATOM     13  N   UNL     1      48.647  10.914  10.712  0.00  0.00    +0.000 NA
ATOM     14  C   UNL     1      48.660  10.052  11.487  0.00  0.00    +0.000 C 
ENDBRANCH   7  14
ENDBRANCH   1  11
BRANCH   5  15
ATOM     15  C   UNL     1      43.594   4.864  11.265  0.00  0.00    +0.000 C 
ATOM     16  C   UNL     1      43.252   6.334  11.024  0.00  0.00    +0.000 C 
ATOM     17  C   UNL     1      42.366   5.499  11.884  0.00  0.00    +0.000 C 
BRANCH  15  18
ATOM     18  N   UNL     1      43.426   3.920  10.145  0.00  0.00    +0.000 N 
ATOM     19  H   UNL     1      42.614   4.085   9.545  0.00  0.00    +0.000 HD
BRANCH  18  20
ATOM     20  C   UNL     1      44.510   3.421   9.391  0.00  0.00    +0.000 A 
ATOM     21  C   UNL     1      44.769   2.086   9.152  0.00  0.00    +0.000 A 
ATOM     22  N   UNL     1      45.765   1.630   8.361  0.00  0.00    +0.000 NA
ATOM     23  C   UNL     1      46.517   2.568   7.755  0.00  0.00    +0.000 A 
ATOM     24  N   UNL     1      46.357   3.892   7.872  0.00  0.00    +0.000 NA
ATOM     25  C   UNL     1      45.347   4.269   8.678  0.00  0.00    +0.000 A 
ATOM     26  F   UNL     1      45.143   5.593   8.790  0.00  0.00    +0.000 F 
BRANCH  23  27
ATOM     27  C   UNL     1      47.585   2.103   6.909  0.00  0.00    +0.000 C 
ATOM     28  N   UNL     1      48.449   1.728   6.223  0.00  0.00    +0.000 NA
ENDBRANCH  23  27
ENDBRANCH  18  20
ENDBRANCH  15  18
ENDBRANCH   5  15
TORSDOF 6
ENDMDL
MODEL 9
REMARK VINA RESULT:    -6.445      2.941      8.055
REMARK INTER + INTRA:          -9.215
REMARK INTER:                  -8.023
REMARK INTRA:                  -1.192
REMARK UNBOUND:                -0.510
REMARK  Name = 
REMARK  6 active torsions:
REMARK  status: ('A' for Active; 'I' for Inactive)
REMARK    1  A    between atoms: C_2  and  C_3
REMARK    2  A    between atoms: C_7  and  C_8
REMARK    3  A    between atoms: C_12  and  C_13
REMARK    4  A    between atoms: C_13  and  N_14
REMARK    5  A    between atoms: N_14  and  C_15
REMARK    6  A    between atoms: C_18  and  C_19
REMARK                            x       y       z     vdW  Elec       q    Type
REMARK                         _______ _______ _______ _____ _____    ______ ____
ROOT
ATOM      1  C   UNL     1      45.653   7.265  11.966  0.00  0.00    +0.000 A 
ATOM      2  C   UNL     1      44.933   8.466  11.893  0.00  0.00    +0.000 A 
ATOM      3  C   UNL     1      45.576   9.705  11.977  0.00  0.00    +0.000 A 
ATOM      4  C   UNL     1      46.960   9.770  12.138  0.00  0.00    +0.000 A 
ATOM      5  C   UNL     1      47.727   8.603  12.212  0.00  0.00    +0.000 A 
ATOM      6  C   UNL     1      47.046   7.372  12.111  0.00  0.00    +0.000 A 
ENDROOT
BRANCH   1  11
ATOM      7  C   UNL     1      44.609   3.783  10.830  0.00  0.00    +0.000 A 
ATOM      8  C   UNL     1      43.691   3.424  11.816  0.00  0.00    +0.000 A 
ATOM      9  C   UNL     1      43.413   4.309  12.854  0.00  0.00    +0.000 A 
ATOM     10  C   UNL     1      44.062   5.546  12.909  0.00  0.00    +0.000 A 
ATOM     11  C   UNL     1      44.994   5.938  11.927  0.00  0.00    +0.000 A 
ATOM     12  C   UNL     1      45.247   5.030  10.884  0.00  0.00    +0.000 A 
BRANCH   7  14
ATOM     13  N   UNL     1      45.133   2.149   8.886  0.00  0.00    +0.000 NA
ATOM     14  C   UNL     1      44.898   2.882   9.753  0.00  0.00    +0.000 C 
ENDBRANCH   7  14
ENDBRANCH   1  11
BRANCH   5  15
ATOM     15  C   UNL     1      49.240   8.607  12.379  0.00  0.00    +0.000 C 
ATOM     16  C   UNL     1      49.998   9.181  11.183  0.00  0.00    +0.000 C 
ATOM     17  C   UNL     1      50.146   7.739  11.531  0.00  0.00    +0.000 C 
BRANCH  15  18
ATOM     18  N   UNL     1      49.679   8.995  13.732  0.00  0.00    +0.000 N 
ATOM     19  H   UNL     1      49.401   9.931  14.035  0.00  0.00    +0.000 HD
BRANCH  18  20
ATOM     20  C   UNL     1      49.690   8.100  14.823  0.00  0.00    +0.000 A 
ATOM     21  C   UNL     1      50.723   7.240  15.139  0.00  0.00    +0.000 A 
ATOM     22  N   UNL     1      50.750   6.448  16.234  0.00  0.00    +0.000 NA
ATOM     23  C   UNL     1      49.698   6.553  17.068  0.00  0.00    +0.000 A 
ATOM     24  N   UNL     1      48.647   7.366  16.901  0.00  0.00    +0.000 NA
ATOM     25  C   UNL     1      48.691   8.122  15.788  0.00  0.00    +0.000 A 
ATOM     26  F   UNL     1      47.664   8.970  15.608  0.00  0.00    +0.000 F 
BRANCH  23  27
ATOM     27  C   UNL     1      49.708   5.717  18.240  0.00  0.00    +0.000 C 
ATOM     28  N   UNL     1      49.715   5.042  19.190  0.00  0.00    +0.000 NA
ENDBRANCH  23  27
ENDBRANCH  18  20
ENDBRANCH  15  18
ENDBRANCH   5  15
TORSDOF 6
ENDMDL
