MODEL 1
REMARK VINA RESULT:    -7.286      0.000      0.000
REMARK INTER + INTRA:         -12.082
REMARK INTER:                 -10.906
REMARK INTRA:                  -1.176
REMARK UNBOUND:                -1.176
REMARK  Name = 
REMARK  9 active torsions:
REMARK  status: ('A' for Active; 'I' for Inactive)
REMARK    1  A    between atoms: N_1  and  C_2
REMARK    2  A    between atoms: C_2  and  C_3
REMARK    3  A    between atoms: C_3  and  N_4
REMARK    4  A    between atoms: C_7  and  C_8
REMARK    5  A    between atoms: N_10  and  C_11
REMARK    6  A    between atoms: C_11  and  C_12
REMARK    7  A    between atoms: C_15  and  C_16
REMARK    8  A    between atoms: C_16  and  N_17
REMARK    9  A    between atoms: C_18  and  C_20
REMARK                            x       y       z     vdW  Elec       q    Type
REMARK                         _______ _______ _______ _____ _____    ______ ____
ROOT
ATOM      1  C   UNL     1      46.256   4.646  13.555  0.00  0.00    +0.000 A 
ATOM      2  C   UNL     1      46.587   4.210  14.843  0.00  0.00    +0.000 A 
ATOM      3  C   UNL     1      47.549   4.883  15.600  0.00  0.00    +0.000 A 
ATOM      4  C   UNL     1      48.186   6.022  15.091  0.00  0.00    +0.000 A 
ATOM      5  C   UNL     1      47.862   6.453  13.797  0.00  0.00    +0.000 A 
ATOM      6  C   UNL     1      46.902   5.780  13.039  0.00  0.00    +0.000 A 
ENDROOT
BRANCH   1   7
ATOM      7  C   UNL     1      45.180   3.955  12.763  0.00  0.00    +0.000 C 
BRANCH   7  10
ATOM      8  C   UNL     1      44.550   3.672  10.405  0.00  0.00    +0.000 C 
ATOM      9  O   UNL     1      43.758   2.773  10.676  0.00  0.00    +0.000 OA
ATOM     10  N   UNL     1      45.241   4.354  11.377  0.00  0.00    +0.000 N 
ATOM     11  H   UNL     1      45.827   5.142  11.137  0.00  0.00    +0.000 HD
BRANCH   8  15
ATOM     12  N   UNL     1      45.810   3.062   7.091  0.00  0.00    +0.000 NA
ATOM     13  C   UNL     1      46.388   4.407   7.254  0.00  0.00    +0.000 C 
ATOM     14  C   UNL     1      46.150   4.753   8.710  0.00  0.00    +0.000 C 
ATOM     15  C   UNL     1      44.766   4.183   8.987  0.00  0.00    +0.000 C 
ATOM     16  C   UNL     1      44.602   3.067   7.947  0.00  0.00    +0.000 C 
BRANCH  12  17
ATOM     17  C   UNL     1      46.799   2.033   7.477  0.00  0.00    +0.000 C 
BRANCH  17  18
ATOM     18  C   UNL     1      48.214   2.234   6.893  0.00  0.00    +0.000 C 
BRANCH  18  19
ATOM     19  N   UNL     1      48.274   1.791   5.495  0.00  0.00    +0.000 NA
ATOM     20  H   UNL     1      49.114   1.227   5.368  0.00  0.00    +0.000 HD
ATOM     21  H   UNL     1      48.385   2.602   4.889  0.00  0.00    +0.000 HD
ENDBRANCH  18  19
ENDBRANCH  17  18
ENDBRANCH  12  17
ENDBRANCH   8  15
ENDBRANCH   7  10
ENDBRANCH   1   7
BRANCH   4  22
ATOM     22  C   UNL     1      49.227   6.752  15.899  0.00  0.00    +0.000 C 
BRANCH  22  23
ATOM     23  N   UNL     1      50.248   5.852  16.372  0.00  0.00    +0.000 N 
ATOM     24  C   UNL     1      50.478   5.687  17.714  0.00  0.00    +0.000 C 
ATOM     25  O   UNL     1      49.801   6.262  18.564  0.00  0.00    +0.000 OA
ATOM     26  H   UNL     1      50.950   5.553  15.702  0.00  0.00    +0.000 HD
BRANCH  24  27
ATOM     27  C   UNL     1      51.534   4.738  18.091  0.00  0.00    +0.000 A 
ATOM     28  C   UNL     1      52.660   5.197  18.762  0.00  0.00    +0.000 A 
ATOM     29  S   UNL     1      53.758   3.960  19.179  0.00  0.00    +0.000 S 
ATOM     30  C   UNL     1      52.792   2.776  18.432  0.00  0.00    +0.000 A 
ATOM     31  N   UNL     1      53.178   1.472  18.410  0.00  0.00    +0.000 NA
ATOM     32  C   UNL     1      52.370   0.686  17.782  0.00  0.00    +0.000 A 
ATOM     33  N   UNL     1      51.206   1.086  17.176  0.00  0.00    +0.000 N 
ATOM     34  C   UNL     1      50.763   2.387  17.195  0.00  0.00    +0.000 A 
ATOM     35  O   UNL     1      49.699   2.705  16.675  0.00  0.00    +0.000 OA
ATOM     36  C   UNL     1      51.642   3.313  17.883  0.00  0.00    +0.000 A 
ATOM     37  H   UNL     1      50.615   0.419  16.703  0.00  0.00    +0.000 HD
ENDBRANCH  24  27
ENDBRANCH  22  23
ENDBRANCH   4  22
TORSDOF 9
ENDMDL
MODEL 2
REMARK VINA RESULT:    -6.883      3.358      9.717
REMARK INTER + INTRA:         -11.480
REMARK INTER:                 -10.088
REMARK INTRA:                  -1.392
REMARK UNBOUND:                -1.176
REMARK  Name = 
REMARK  9 active torsions:
REMARK  status: ('A' for Active; 'I' for Inactive)
REMARK    1  A    between atoms: N_1  and  C_2
REMARK    2  A    between atoms: C_2  and  C_3
REMARK    3  A    between atoms: C_3  and  N_4
REMARK    4  A    between atoms: C_7  and  C_8
REMARK    5  A    between atoms: N_10  and  C_11
REMARK    6  A    between atoms: C_11  and  C_12
REMARK    7  A    between atoms: C_15  and  C_16
REMARK    8  A    between atoms: C_16  and  N_17
REMARK    9  A    between atoms: C_18  and  C_20
REMARK                            x       y       z     vdW  Elec       q    Type
REMARK                         _______ _______ _______ _____ _____    ______ ____
ROOT
ATOM      1  C   UNL     1      50.360   7.827  14.623  0.00  0.00    +0.000 A 
ATOM      2  C   UNL     1      50.527   8.396  13.355  0.00  0.00    +0.000 A 
ATOM      3  C   UNL     1      49.465   8.445  12.448  0.00  0.00    +0.000 A 
ATOM      4  C   UNL     1      48.206   7.944  12.800  0.00  0.00    +0.000 A 
ATOM      5  C   UNL     1      48.040   7.364  14.065  0.00  0.00    +0.000 A 
ATOM      6  C   UNL     1      49.101   7.313  14.972  0.00  0.00    +0.000 A 
ENDROOT
BRANCH   1   7
ATOM      7  C   UNL     1      51.487   7.825  15.619  0.00  0.00    +0.000 C 
BRANCH   7  10
ATOM      8  C   UNL     1      52.007   5.923  17.083  0.00  0.00    +0.000 C 
ATOM      9  O   UNL     1      53.105   5.759  16.558  0.00  0.00    +0.000 OA
ATOM     10  N   UNL     1      51.175   6.957  16.729  0.00  0.00    +0.000 N 
ATOM     11  H   UNL     1      50.312   7.119  17.229  0.00  0.00    +0.000 HD
BRANCH   8  15
ATOM     12  N   UNL     1      49.286   4.135  18.614  0.00  0.00    +0.000 NA
ATOM     13  C   UNL     1      49.749   4.825  19.830  0.00  0.00    +0.000 C 
ATOM     14  C   UNL     1      50.776   5.824  19.336  0.00  0.00    +0.000 C 
ATOM     15  C   UNL     1      51.508   5.065  18.238  0.00  0.00    +0.000 C 
ATOM     16  C   UNL     1      50.496   4.011  17.770  0.00  0.00    +0.000 C 
BRANCH  12  17
ATOM     17  C   UNL     1      48.200   4.906  17.972  0.00  0.00    +0.000 C 
BRANCH  17  18
ATOM     18  C   UNL     1      47.260   4.082  17.065  0.00  0.00    +0.000 C 
BRANCH  18  19
ATOM     19  N   UNL     1      46.769   2.888  17.764  0.00  0.00    +0.000 NA
ATOM     20  H   UNL     1      46.418   3.167  18.680  0.00  0.00    +0.000 HD
ATOM     21  H   UNL     1      47.549   2.257  17.941  0.00  0.00    +0.000 HD
ENDBRANCH  18  19
ENDBRANCH  17  18
ENDBRANCH  12  17
ENDBRANCH   8  15
ENDBRANCH   7  10
ENDBRANCH   1   7
BRANCH   4  22
ATOM     22  C   UNL     1      47.056   7.989  11.827  0.00  0.00    +0.000 C 
BRANCH  22  23
ATOM     23  N   UNL     1      46.496   6.678  11.617  0.00  0.00    +0.000 N 
ATOM     24  C   UNL     1      45.146   6.504  11.451  0.00  0.00    +0.000 C 
ATOM     25  O   UNL     1      44.366   7.455  11.434  0.00  0.00    +0.000 OA
ATOM     26  H   UNL     1      47.080   5.881  11.851  0.00  0.00    +0.000 HD
BRANCH  24  27
ATOM     27  C   UNL     1      44.680   5.129  11.231  0.00  0.00    +0.000 A 
ATOM     28  C   UNL     1      43.910   4.503  12.203  0.00  0.00    +0.000 A 
ATOM     29  S   UNL     1      43.400   2.935  11.766  0.00  0.00    +0.000 S 
ATOM     30  C   UNL     1      44.235   3.017  10.286  0.00  0.00    +0.000 A 
ATOM     31  N   UNL     1      44.227   1.968   9.420  0.00  0.00    +0.000 NA
ATOM     32  C   UNL     1      44.929   2.152   8.352  0.00  0.00    +0.000 A 
ATOM     33  N   UNL     1      45.634   3.293   8.069  0.00  0.00    +0.000 N 
ATOM     34  C   UNL     1      45.650   4.387   8.900  0.00  0.00    +0.000 A 
ATOM     35  O   UNL     1      46.261   5.407   8.600  0.00  0.00    +0.000 OA
ATOM     36  C   UNL     1      44.883   4.228  10.121  0.00  0.00    +0.000 A 
ATOM     37  H   UNL     1      46.160   3.375   7.212  0.00  0.00    +0.000 HD
ENDBRANCH  24  27
ENDBRANCH  22  23
ENDBRANCH   4  22
TORSDOF 9
ENDMDL
MODEL 3
REMARK VINA RESULT:    -6.813      5.406      7.494
REMARK INTER + INTRA:         -11.375
REMARK INTER:                 -10.235
REMARK INTRA:                  -1.140
REMARK UNBOUND:                -1.176
REMARK  Name = 
REMARK  9 active torsions:
REMARK  status: ('A' for Active; 'I' for Inactive)
REMARK    1  A    between atoms: N_1  and  C_2
REMARK    2  A    between atoms: C_2  and  C_3
REMARK    3  A    between atoms: C_3  and  N_4
REMARK    4  A    between atoms: C_7  and  C_8
REMARK    5  A    between atoms: N_10  and  C_11
REMARK    6  A    between atoms: C_11  and  C_12
REMARK    7  A    between atoms: C_15  and  C_16
REMARK    8  A    between atoms: C_16  and  N_17
REMARK    9  A    between atoms: C_18  and  C_20
REMARK                            x       y       z     vdW  Elec       q    Type
REMARK                         _______ _______ _______ _____ _____    ______ ____
ROOT
ATOM      1  C   UNL     1      48.592   6.704  13.752  0.00  0.00    +0.000 A 
ATOM      2  C   UNL     1      48.402   6.993  12.396  0.00  0.00    +0.000 A 
ATOM      3  C   UNL     1      49.249   7.883  11.730  0.00  0.00    +0.000 A 
ATOM      4  C   UNL     1      50.320   8.484  12.402  0.00  0.00    +0.000 A 
ATOM      5  C   UNL     1      50.505   8.202  13.763  0.00  0.00    +0.000 A 
ATOM      6  C   UNL     1      49.657   7.315  14.431  0.00  0.00    +0.000 A 
ENDROOT
BRANCH   1   7
ATOM      7  C   UNL     1      47.715   5.704  14.454  0.00  0.00    +0.000 C 
BRANCH   7  10
ATOM      8  C   UNL     1      45.847   4.490  13.418  0.00  0.00    +0.000 C 
ATOM      9  O   UNL     1      46.372   3.401  13.639  0.00  0.00    +0.000 OA
ATOM     10  N   UNL     1      46.406   5.670  13.845  0.00  0.00    +0.000 N 
ATOM     11  H   UNL     1      45.918   6.546  13.723  0.00  0.00    +0.000 HD
BRANCH   8  15
ATOM     12  N   UNL     1      43.647   3.537  10.736  0.00  0.00    +0.000 NA
ATOM     13  C   UNL     1      43.413   4.989  10.648  0.00  0.00    +0.000 C 
ATOM     14  C   UNL     1      44.446   5.601  11.574  0.00  0.00    +0.000 C 
ATOM     15  C   UNL     1      44.489   4.630  12.746  0.00  0.00    +0.000 C 
ATOM     16  C   UNL     1      44.005   3.300  12.153  0.00  0.00    +0.000 C 
BRANCH  12  17
ATOM     17  C   UNL     1      44.708   3.134   9.787  0.00  0.00    +0.000 C 
BRANCH  17  18
ATOM     18  C   UNL     1      44.638   3.813   8.402  0.00  0.00    +0.000 C 
BRANCH  18  19
ATOM     19  N   UNL     1      45.914   4.457   8.067  0.00  0.00    +0.000 NA
ATOM     20  H   UNL     1      46.147   5.122   8.804  0.00  0.00    +0.000 HD
ATOM     21  H   UNL     1      45.800   5.007   7.217  0.00  0.00    +0.000 HD
ENDBRANCH  18  19
ENDBRANCH  17  18
ENDBRANCH  12  17
ENDBRANCH   8  15
ENDBRANCH   7  10
ENDBRANCH   1   7
BRANCH   4  22
ATOM     22  C   UNL     1      51.237   9.446  11.693  0.00  0.00    +0.000 C 
BRANCH  22  23
ATOM     23  N   UNL     1      51.535   8.996  10.356  0.00  0.00    +0.000 N 
ATOM     24  C   UNL     1      52.820   8.701   9.980  0.00  0.00    +0.000 C 
ATOM     25  O   UNL     1      53.759   8.767  10.771  0.00  0.00    +0.000 OA
ATOM     26  H   UNL     1      50.827   9.153   9.646  0.00  0.00    +0.000 HD
BRANCH  24  27
ATOM     27  C   UNL     1      53.015   8.240   8.599  0.00  0.00    +0.000 A 
ATOM     28  C   UNL     1      52.871   9.139   7.550  0.00  0.00    +0.000 A 
ATOM     29  S   UNL     1      53.189   8.459   6.019  0.00  0.00    +0.000 S 
ATOM     30  C   UNL     1      53.479   6.927   6.700  0.00  0.00    +0.000 A 
ATOM     31  N   UNL     1      53.790   5.861   5.914  0.00  0.00    +0.000 NA
ATOM     32  C   UNL     1      53.950   4.753   6.556  0.00  0.00    +0.000 A 
ATOM     33  N   UNL     1      53.832   4.614   7.915  0.00  0.00    +0.000 N 
ATOM     34  C   UNL     1      53.546   5.667   8.751  0.00  0.00    +0.000 A 
ATOM     35  O   UNL     1      53.483   5.517   9.967  0.00  0.00    +0.000 OA
ATOM     36  C   UNL     1      53.347   6.936   8.076  0.00  0.00    +0.000 A 
ATOM     37  H   UNL     1      53.974   3.719   8.357  0.00  0.00    +0.000 HD
ENDBRANCH  24  27
ENDBRANCH  22  23
ENDBRANCH   4  22
TORSDOF 9
ENDMDL
MODEL 4
REMARK VINA RESULT:    -6.547      5.669      7.964
REMARK INTER + INTRA:         -10.977
REMARK INTER:                  -9.722
REMARK INTRA:                  -1.255
REMARK UNBOUND:                -1.176
REMARK  Name = 
REMARK  9 active torsions:
REMARK  status: ('A' for Active; 'I' for Inactive)
REMARK    1  A    between atoms: N_1  and  C_2
REMARK    2  A    between atoms: C_2  and  C_3
REMARK    3  A    between atoms: C_3  and  N_4
REMARK    4  A    between atoms: C_7  and  C_8
REMARK    5  A    between atoms: N_10  and  C_11
REMARK    6  A    between atoms: C_11  and  C_12
REMARK    7  A    between atoms: C_15  and  C_16
REMARK    8  A    between atoms: C_16  and  N_17
REMARK    9  A    between atoms: C_18  and  C_20
REMARK                            x       y       z     vdW  Elec       q    Type
REMARK                         _______ _______ _______ _____ _____    ______ ____
ROOT
ATOM      1  C   UNL     1      48.625   6.693  13.730  0.00  0.00    +0.000 A 
ATOM      2  C   UNL     1      49.714   7.342  14.323  0.00  0.00    +0.000 A 
ATOM      3  C   UNL     1      50.553   8.166  13.567  0.00  0.00    +0.000 A 
ATOM      4  C   UNL     1      50.305   8.374  12.205  0.00  0.00    +0.000 A 
ATOM      5  C   UNL     1      49.220   7.716  11.608  0.00  0.00    +0.000 A 
ATOM      6  C   UNL     1      48.383   6.891  12.362  0.00  0.00    +0.000 A 
ENDROOT
BRANCH   1   7
ATOM      7  C   UNL     1      47.690   5.852  14.556  0.00  0.00    +0.000 C 
BRANCH   7  10
ATOM      8  C   UNL     1      45.786   4.682  13.535  0.00  0.00    +0.000 C 
ATOM      9  O   UNL     1      46.299   3.582  13.728  0.00  0.00    +0.000 OA
ATOM     10  N   UNL     1      46.370   5.846  13.972  0.00  0.00    +0.000 N 
ATOM     11  H   UNL     1      45.893   6.732  13.873  0.00  0.00    +0.000 HD
BRANCH   8  15
ATOM     12  N   UNL     1      43.497   3.754  10.920  0.00  0.00    +0.000 NA
ATOM     13  C   UNL     1      43.306   5.210  10.812  0.00  0.00    +0.000 C 
ATOM     14  C   UNL     1      44.378   5.805  11.703  0.00  0.00    +0.000 C 
ATOM     15  C   UNL     1      44.418   4.854  12.891  0.00  0.00    +0.000 C 
ATOM     16  C   UNL     1      43.880   3.529  12.333  0.00  0.00    +0.000 C 
BRANCH  12  17
ATOM     17  C   UNL     1      44.522   3.301   9.956  0.00  0.00    +0.000 C 
BRANCH  17  18
ATOM     18  C   UNL     1      44.476   3.997   8.578  0.00  0.00    +0.000 C 
BRANCH  18  19
ATOM     19  N   UNL     1      45.691   4.786   8.345  0.00  0.00    +0.000 NA
ATOM     20  H   UNL     1      46.262   4.762   9.190  0.00  0.00    +0.000 HD
ATOM     21  H   UNL     1      45.437   5.763   8.205  0.00  0.00    +0.000 HD
ENDBRANCH  18  19
ENDBRANCH  17  18
ENDBRANCH  12  17
ENDBRANCH   8  15
ENDBRANCH   7  10
ENDBRANCH   1   7
BRANCH   4  22
ATOM     22  C   UNL     1      51.205   9.258  11.381  0.00  0.00    +0.000 C 
BRANCH  22  23
ATOM     23  N   UNL     1      51.668   8.576  10.198  0.00  0.00    +0.000 N 
ATOM     24  C   UNL     1      52.836   7.856  10.210  0.00  0.00    +0.000 C 
ATOM     25  O   UNL     1      53.510   7.728  11.230  0.00  0.00    +0.000 OA
ATOM     26  H   UNL     1      51.258   8.853   9.313  0.00  0.00    +0.000 HD
BRANCH  24  27
ATOM     27  C   UNL     1      53.212   7.190   8.956  0.00  0.00    +0.000 A 
ATOM     28  C   UNL     1      53.499   5.831   8.961  0.00  0.00    +0.000 A 
ATOM     29  S   UNL     1      53.858   5.202   7.417  0.00  0.00    +0.000 S 
ATOM     30  C   UNL     1      53.696   6.734   6.696  0.00  0.00    +0.000 A 
ATOM     31  N   UNL     1      53.898   6.903   5.361  0.00  0.00    +0.000 NA
ATOM     32  C   UNL     1      53.776   8.121   4.952  0.00  0.00    +0.000 A 
ATOM     33  N   UNL     1      53.464   9.187   5.757  0.00  0.00    +0.000 N 
ATOM     34  C   UNL     1      53.226   9.060   7.105  0.00  0.00    +0.000 A 
ATOM     35  O   UNL     1      52.913  10.028   7.790  0.00  0.00    +0.000 OA
ATOM     36  C   UNL     1      53.360   7.710   7.617  0.00  0.00    +0.000 A 
ATOM     37  H   UNL     1      53.379  10.116   5.374  0.00  0.00    +0.000 HD
ENDBRANCH  24  27
ENDBRANCH  22  23
ENDBRANCH   4  22
TORSDOF 9
ENDMDL
MODEL 5
REMARK VINA RESULT:    -6.516      1.900      2.364
REMARK INTER + INTRA:         -10.930
REMARK INTER:                  -9.701
REMARK INTRA:                  -1.230
REMARK UNBOUND:                -1.176
REMARK  Name = 
REMARK  9 active torsions:
REMARK  status: ('A' for Active; 'I' for Inactive)
REMARK    1  A    between atoms: N_1  and  C_2
REMARK    2  A    between atoms: C_2  and  C_3
REMARK    3  A    between atoms: C_3  and  N_4
REMARK    4  A    between atoms: C_7  and  C_8
REMARK    5  A    between atoms: N_10  and  C_11
REMARK    6  A    between atoms: C_11  and  C_12
REMARK    7  A    between atoms: C_15  and  C_16
REMARK    8  A    between atoms: C_16  and  N_17
REMARK    9  A    between atoms: C_18  and  C_20
REMARK                            x       y       z     vdW  Elec       q    Type
REMARK                         _______ _______ _______ _____ _____    ______ ____
ROOT
ATOM      1  C   UNL     1      45.578   5.749  12.973  0.00  0.00    +0.000 A 
ATOM      2  C   UNL     1      46.737   5.178  13.510  0.00  0.00    +0.000 A 
ATOM      3  C   UNL     1      47.912   5.925  13.630  0.00  0.00    +0.000 A 
ATOM      4  C   UNL     1      47.944   7.268  13.233  0.00  0.00    +0.000 A 
ATOM      5  C   UNL     1      46.787   7.837  12.685  0.00  0.00    +0.000 A 
ATOM      6  C   UNL     1      45.612   7.091  12.564  0.00  0.00    +0.000 A 
ENDROOT
BRANCH   1   7
ATOM      7  C   UNL     1      44.298   4.962  12.897  0.00  0.00    +0.000 C 
BRANCH   7  10
ATOM      8  C   UNL     1      44.628   3.539  10.922  0.00  0.00    +0.000 C 
ATOM      9  O   UNL     1      45.360   2.770  11.540  0.00  0.00    +0.000 OA
ATOM     10  N   UNL     1      44.009   4.604  11.529  0.00  0.00    +0.000 N 
ATOM     11  H   UNL     1      43.349   5.176  11.019  0.00  0.00    +0.000 HD
BRANCH   8  15
ATOM     12  N   UNL     1      45.448   2.085   7.735  0.00  0.00    +0.000 NA
ATOM     13  C   UNL     1      45.103   3.426   7.233  0.00  0.00    +0.000 C 
ATOM     14  C   UNL     1      44.941   4.273   8.480  0.00  0.00    +0.000 C 
ATOM     15  C   UNL     1      44.258   3.329   9.460  0.00  0.00    +0.000 C 
ATOM     16  C   UNL     1      44.644   1.928   8.968  0.00  0.00    +0.000 C 
BRANCH  12  17
ATOM     17  C   UNL     1      46.905   1.987   7.968  0.00  0.00    +0.000 C 
BRANCH  17  18
ATOM     18  C   UNL     1      47.786   2.625   6.872  0.00  0.00    +0.000 C 
BRANCH  18  19
ATOM     19  N   UNL     1      48.368   1.598   6.000  0.00  0.00    +0.000 NA
ATOM     20  H   UNL     1      49.233   1.961   5.601  0.00  0.00    +0.000 HD
ATOM     21  H   UNL     1      47.742   1.432   5.213  0.00  0.00    +0.000 HD
ENDBRANCH  18  19
ENDBRANCH  17  18
ENDBRANCH  12  17
ENDBRANCH   8  15
ENDBRANCH   7  10
ENDBRANCH   1   7
BRANCH   4  22
ATOM     22  C   UNL     1      49.207   8.080  13.355  0.00  0.00    +0.000 C 
BRANCH  22  23
ATOM     23  N   UNL     1      50.208   7.380  14.121  0.00  0.00    +0.000 N 
ATOM     24  C   UNL     1      50.761   7.943  15.243  0.00  0.00    +0.000 C 
ATOM     25  O   UNL     1      50.401   9.041  15.663  0.00  0.00    +0.000 OA
ATOM     26  H   UNL     1      50.671   6.596  13.673  0.00  0.00    +0.000 HD
BRANCH  24  27
ATOM     27  C   UNL     1      51.763   7.142  15.958  0.00  0.00    +0.000 A 
ATOM     28  C   UNL     1      53.096   7.533  15.935  0.00  0.00    +0.000 A 
ATOM     29  S   UNL     1      54.118   6.531  16.863  0.00  0.00    +0.000 S 
ATOM     30  C   UNL     1      52.824   5.510  17.285  0.00  0.00    +0.000 A 
ATOM     31  N   UNL     1      53.025   4.416  18.068  0.00  0.00    +0.000 NA
ATOM     32  C   UNL     1      51.965   3.711  18.281  0.00  0.00    +0.000 A 
ATOM     33  N   UNL     1      50.720   4.004  17.786  0.00  0.00    +0.000 N 
ATOM     34  C   UNL     1      50.465   5.111  17.014  0.00  0.00    +0.000 A 
ATOM     35  O   UNL     1      49.332   5.365  16.617  0.00  0.00    +0.000 OA
ATOM     36  C   UNL     1      51.627   5.933  16.736  0.00  0.00    +0.000 A 
ATOM     37  H   UNL     1      49.930   3.412  17.994  0.00  0.00    +0.000 HD
ENDBRANCH  24  27
ENDBRANCH  22  23
ENDBRANCH   4  22
TORSDOF 9
ENDMDL
MODEL 6
REMARK VINA RESULT:    -6.507      5.422      6.788
REMARK INTER + INTRA:         -10.916
REMARK INTER:                  -9.622
REMARK INTRA:                  -1.294
REMARK UNBOUND:                -1.176
REMARK  Name = 
REMARK  9 active torsions:
REMARK  status: ('A' for Active; 'I' for Inactive)
REMARK    1  A    between atoms: N_1  and  C_2
REMARK    2  A    between atoms: C_2  and  C_3
REMARK    3  A    between atoms: C_3  and  N_4
REMARK    4  A    between atoms: C_7  and  C_8
REMARK    5  A    between atoms: N_10  and  C_11
REMARK    6  A    between atoms: C_11  and  C_12
REMARK    7  A    between atoms: C_15  and  C_16
REMARK    8  A    between atoms: C_16  and  N_17
REMARK    9  A    between atoms: C_18  and  C_20
REMARK                            x       y       z     vdW  Elec       q    Type
REMARK                         _______ _______ _______ _____ _____    ______ ____
ROOT
ATOM      1  C   UNL     1      47.749   6.388  13.194  0.00  0.00    +0.000 A 
ATOM      2  C   UNL     1      48.600   6.758  14.240  0.00  0.00    +0.000 A 
ATOM      3  C   UNL     1      49.451   7.861  14.114  0.00  0.00    +0.000 A 
ATOM      4  C   UNL     1      49.450   8.628  12.943  0.00  0.00    +0.000 A 
ATOM      5  C   UNL     1      48.605   8.251  11.890  0.00  0.00    +0.000 A 
ATOM      6  C   UNL     1      47.756   7.149  12.015  0.00  0.00    +0.000 A 
ENDROOT
BRANCH   1   7
ATOM      7  C   UNL     1      46.794   5.236  13.352  0.00  0.00    +0.000 C 
BRANCH   7  10
ATOM      8  C   UNL     1      45.273   3.953  11.911  0.00  0.00    +0.000 C 
ATOM      9  O   UNL     1      45.240   3.014  12.704  0.00  0.00    +0.000 OA
ATOM     10  N   UNL     1      45.958   5.112  12.182  0.00  0.00    +0.000 N 
ATOM     11  H   UNL     1      45.906   5.901  11.551  0.00  0.00    +0.000 HD
BRANCH   8  15
ATOM     12  N   UNL     1      44.672   2.479   8.685  0.00  0.00    +0.000 NA
ATOM     13  C   UNL     1      44.694   3.881   8.236  0.00  0.00    +0.000 C 
ATOM     14  C   UNL     1      45.168   4.664   9.445  0.00  0.00    +0.000 C 
ATOM     15  C   UNL     1      44.483   3.963  10.610  0.00  0.00    +0.000 C 
ATOM     16  C   UNL     1      44.217   2.543  10.093  0.00  0.00    +0.000 C 
BRANCH  12  17
ATOM     17  C   UNL     1      46.011   1.873   8.528  0.00  0.00    +0.000 C 
BRANCH  17  18
ATOM     18  C   UNL     1      46.773   2.292   7.252  0.00  0.00    +0.000 C 
BRANCH  18  19
ATOM     19  N   UNL     1      47.880   1.370   6.973  0.00  0.00    +0.000 NA
ATOM     20  H   UNL     1      48.546   1.417   7.744  0.00  0.00    +0.000 HD
ATOM     21  H   UNL     1      48.384   1.688   6.146  0.00  0.00    +0.000 HD
ENDBRANCH  18  19
ENDBRANCH  17  18
ENDBRANCH  12  17
ENDBRANCH   8  15
ENDBRANCH   7  10
ENDBRANCH   1   7
BRANCH   4  22
ATOM     22  C   UNL     1      50.365   9.816  12.796  0.00  0.00    +0.000 C 
BRANCH  22  23
ATOM     23  N   UNL     1      51.406   9.558  11.832  0.00  0.00    +0.000 N 
ATOM     24  C   UNL     1      51.421  10.201  10.620  0.00  0.00    +0.000 C 
ATOM     25  O   UNL     1      50.579  11.046  10.323  0.00  0.00    +0.000 OA
ATOM     26  H   UNL     1      51.962   8.720  11.963  0.00  0.00    +0.000 HD
BRANCH  24  27
ATOM     27  C   UNL     1      52.531   9.876   9.715  0.00  0.00    +0.000 A 
ATOM     28  C   UNL     1      53.268  10.903   9.139  0.00  0.00    +0.000 A 
ATOM     29  S   UNL     1      54.557  10.356   8.165  0.00  0.00    +0.000 S 
ATOM     30  C   UNL     1      54.142   8.728   8.435  0.00  0.00    +0.000 A 
ATOM     31  N   UNL     1      54.850   7.722   7.857  0.00  0.00    +0.000 NA
ATOM     32  C   UNL     1      54.407   6.538   8.119  0.00  0.00    +0.000 A 
ATOM     33  N   UNL     1      53.321   6.269   8.911  0.00  0.00    +0.000 N 
ATOM     34  C   UNL     1      52.591   7.251   9.537  0.00  0.00    +0.000 A 
ATOM     35  O   UNL     1      51.647   6.975  10.270  0.00  0.00    +0.000 OA
ATOM     36  C   UNL     1      53.044   8.603   9.267  0.00  0.00    +0.000 A 
ATOM     37  H   UNL     1      53.028   5.319   9.080  0.00  0.00    +0.000 HD
ENDBRANCH  24  27
ENDBRANCH  22  23
ENDBRANCH   4  22
TORSDOF 9
ENDMDL
MODEL 7
REMARK VINA RESULT:    -6.487      2.818      3.700
REMARK INTER + INTRA:         -10.887
REMARK INTER:                  -9.202
REMARK INTRA:                  -1.685
REMARK UNBOUND:                -1.176
REMARK  Name = 
REMARK  9 active torsions:
REMARK  status: ('A' for Active; 'I' for Inactive)
REMARK    1  A    between atoms: N_1  and  C_2
REMARK    2  A    between atoms: C_2  and  C_3
REMARK    3  A    between atoms: C_3  and  N_4
REMARK    4  A    between atoms: C_7  and  C_8
REMARK    5  A    between atoms: N_10  and  C_11
REMARK    6  A    between atoms: C_11  and  C_12
REMARK    7  A    between atoms: C_15  and  C_16
REMARK    8  A    between atoms: C_16  and  N_17
REMARK    9  A    between atoms: C_18  and  C_20
REMARK                            x       y       z     vdW  Elec       q    Type
REMARK                         _______ _______ _______ _____ _____    ______ ____
ROOT
ATOM      1  C   UNL     1      48.665   7.578  12.726  0.00  0.00    +0.000 A 
ATOM      2  C   UNL     1      48.104   7.146  13.933  0.00  0.00    +0.000 A 
ATOM      3  C   UNL     1      48.827   7.226  15.127  0.00  0.00    +0.000 A 
ATOM      4  C   UNL     1      50.121   7.762  15.139  0.00  0.00    +0.000 A 
ATOM      5  C   UNL     1      50.687   8.184  13.928  0.00  0.00    +0.000 A 
ATOM      6  C   UNL     1      49.966   8.103  12.735  0.00  0.00    +0.000 A 
ENDROOT
BRANCH   1   7
ATOM      7  C   UNL     1      47.865   7.544  11.453  0.00  0.00    +0.000 C 
BRANCH   7  10
ATOM      8  C   UNL     1      45.471   7.003  11.569  0.00  0.00    +0.000 C 
ATOM      9  O   UNL     1      45.150   8.170  11.360  0.00  0.00    +0.000 OA
ATOM     10  N   UNL     1      46.783   6.595  11.564  0.00  0.00    +0.000 N 
ATOM     11  H   UNL     1      47.019   5.617  11.660  0.00  0.00    +0.000 HD
BRANCH   8  15
ATOM     12  N   UNL     1      44.719   3.727  12.852  0.00  0.00    +0.000 NA
ATOM     13  C   UNL     1      44.118   3.537  11.522  0.00  0.00    +0.000 C 
ATOM     14  C   UNL     1      44.539   4.761  10.732  0.00  0.00    +0.000 C 
ATOM     15  C   UNL     1      44.453   5.887  11.753  0.00  0.00    +0.000 C 
ATOM     16  C   UNL     1      44.615   5.182  13.106  0.00  0.00    +0.000 C 
BRANCH  12  17
ATOM     17  C   UNL     1      46.111   3.229  12.859  0.00  0.00    +0.000 C 
BRANCH  17  18
ATOM     18  C   UNL     1      47.054   3.936  13.856  0.00  0.00    +0.000 C 
BRANCH  18  19
ATOM     19  N   UNL     1      47.648   2.973  14.791  0.00  0.00    +0.000 NA
ATOM     20  H   UNL     1      47.739   2.073  14.319  0.00  0.00    +0.000 HD
ATOM     21  H   UNL     1      47.008   2.820  15.569  0.00  0.00    +0.000 HD
ENDBRANCH  18  19
ENDBRANCH  17  18
ENDBRANCH  12  17
ENDBRANCH   8  15
ENDBRANCH   7  10
ENDBRANCH   1   7
BRANCH   4  22
ATOM     22  C   UNL     1      50.910   7.849  16.419  0.00  0.00    +0.000 C 
BRANCH  22  23
ATOM     23  N   UNL     1      51.527   6.587  16.741  0.00  0.00    +0.000 N 
ATOM     24  C   UNL     1      51.727   6.210  18.045  0.00  0.00    +0.000 C 
ATOM     25  O   UNL     1      51.355   6.907  18.986  0.00  0.00    +0.000 OA
ATOM     26  H   UNL     1      52.035   6.116  15.999  0.00  0.00    +0.000 HD
BRANCH  24  27
ATOM     27  C   UNL     1      52.354   4.900  18.264  0.00  0.00    +0.000 A 
ATOM     28  C   UNL     1      53.597   4.829  18.880  0.00  0.00    +0.000 A 
ATOM     29  S   UNL     1      54.154   3.234  19.114  0.00  0.00    +0.000 S 
ATOM     30  C   UNL     1      52.778   2.584  18.353  0.00  0.00    +0.000 A 
ATOM     31  N   UNL     1      52.634   1.241  18.200  0.00  0.00    +0.000 NA
ATOM     32  C   UNL     1      51.561   0.886  17.576  0.00  0.00    +0.000 A 
ATOM     33  N   UNL     1      50.615   1.755  17.095  0.00  0.00    +0.000 N 
ATOM     34  C   UNL     1      50.705   3.117  17.250  0.00  0.00    +0.000 A 
ATOM     35  O   UNL     1      49.823   3.865  16.840  0.00  0.00    +0.000 OA
ATOM     36  C   UNL     1      51.900   3.568  17.938  0.00  0.00    +0.000 A 
ATOM     37  H   UNL     1      49.795   1.412  16.619  0.00  0.00    +0.000 HD
ENDBRANCH  24  27
ENDBRANCH  22  23
ENDBRANCH   4  22
TORSDOF 9
ENDMDL
MODEL 8
REMARK VINA RESULT:    -6.139      2.820      3.174
REMARK INTER + INTRA:         -10.365
REMARK INTER:                  -9.047
REMARK INTRA:                  -1.318
REMARK UNBOUND:                -1.176
REMARK  Name = 
REMARK  9 active torsions:
REMARK  status: ('A' for Active; 'I' for Inactive)
REMARK    1  A    between atoms: N_1  and  C_2
REMARK    2  A    between atoms: C_2  and  C_3
REMARK    3  A    between atoms: C_3  and  N_4
REMARK    4  A    between atoms: C_7  and  C_8
REMARK    5  A    between atoms: N_10  and  C_11
REMARK    6  A    between atoms: C_11  and  C_12
REMARK    7  A    between atoms: C_15  and  C_16
REMARK    8  A    between atoms: C_16  and  N_17
REMARK    9  A    between atoms: C_18  and  C_20
REMARK                            x       y       z     vdW  Elec       q    Type
REMARK                         _______ _______ _______ _____ _____    ______ ____
ROOT
ATOM      1  C   UNL     1      45.462   6.186  12.510  0.00  0.00    +0.000 A 
ATOM      2  C   UNL     1      46.563   5.489  13.019  0.00  0.00    +0.000 A 
ATOM      3  C   UNL     1      47.623   6.171  13.624  0.00  0.00    +0.000 A 
ATOM      4  C   UNL     1      47.592   7.565  13.751  0.00  0.00    +0.000 A 
ATOM      5  C   UNL     1      46.494   8.264  13.231  0.00  0.00    +0.000 A 
ATOM      6  C   UNL     1      45.435   7.584  12.625  0.00  0.00    +0.000 A 
ENDROOT
BRANCH   1   7
ATOM      7  C   UNL     1      44.297   5.448  11.910  0.00  0.00    +0.000 C 
BRANCH   7  10
ATOM      8  C   UNL     1      44.915   4.174   9.903  0.00  0.00    +0.000 C 
ATOM      9  O   UNL     1      45.095   3.147  10.553  0.00  0.00    +0.000 OA
ATOM     10  N   UNL     1      44.457   5.333  10.480  0.00  0.00    +0.000 N 
ATOM     11  H   UNL     1      44.240   6.141   9.913  0.00  0.00    +0.000 HD
BRANCH   8  15
ATOM     12  N   UNL     1      46.013   2.562   6.880  0.00  0.00    +0.000 NA
ATOM     13  C   UNL     1      46.634   3.870   6.616  0.00  0.00    +0.000 C 
ATOM     14  C   UNL     1      46.470   4.641   7.912  0.00  0.00    +0.000 C 
ATOM     15  C   UNL     1      45.083   4.233   8.391  0.00  0.00    +0.000 C 
ATOM     16  C   UNL     1      44.844   2.867   7.736  0.00  0.00    +0.000 C 
BRANCH  12  17
ATOM     17  C   UNL     1      46.989   1.654   7.521  0.00  0.00    +0.000 C 
BRANCH  17  18
ATOM     18  C   UNL     1      46.397   0.334   8.061  0.00  0.00    +0.000 C 
BRANCH  18  19
ATOM     19  N   UNL     1      46.751  -0.795   7.192  0.00  0.00    +0.000 NA
ATOM     20  H   UNL     1      47.643  -0.593   6.742  0.00  0.00    +0.000 HD
ATOM     21  H   UNL     1      46.067  -0.869   6.441  0.00  0.00    +0.000 HD
ENDBRANCH  18  19
ENDBRANCH  17  18
ENDBRANCH  12  17
ENDBRANCH   8  15
ENDBRANCH   7  10
ENDBRANCH   1   7
BRANCH   4  22
ATOM     22  C   UNL     1      48.731   8.308  14.398  0.00  0.00    +0.000 C 
BRANCH  22  23
ATOM     23  N   UNL     1      49.032   7.774  15.702  0.00  0.00    +0.000 N 
ATOM     24  C   UNL     1      48.532   8.358  16.838  0.00  0.00    +0.000 C 
ATOM     25  O   UNL     1      47.780   9.330  16.791  0.00  0.00    +0.000 OA
ATOM     26  H   UNL     1      49.814   7.131  15.771  0.00  0.00    +0.000 HD
BRANCH  24  27
ATOM     27  C   UNL     1      48.888   7.729  18.116  0.00  0.00    +0.000 A 
ATOM     28  C   UNL     1      49.498   8.487  19.107  0.00  0.00    +0.000 A 
ATOM     29  S   UNL     1      49.789   7.622  20.548  0.00  0.00    +0.000 S 
ATOM     30  C   UNL     1      49.161   6.190  19.879  0.00  0.00    +0.000 A 
ATOM     31  N   UNL     1      49.134   5.036  20.598  0.00  0.00    +0.000 NA
ATOM     32  C   UNL     1      48.663   4.019  19.959  0.00  0.00    +0.000 A 
ATOM     33  N   UNL     1      48.211   4.052  18.665  0.00  0.00    +0.000 N 
ATOM     34  C   UNL     1      48.194   5.199  17.908  0.00  0.00    +0.000 A 
ATOM     35  O   UNL     1      47.748   5.203  16.766  0.00  0.00    +0.000 OA
ATOM     36  C   UNL     1      48.722   6.371  18.580  0.00  0.00    +0.000 A 
ATOM     37  H   UNL     1      47.850   3.220  18.223  0.00  0.00    +0.000 HD
ENDBRANCH  24  27
ENDBRANCH  22  23
ENDBRANCH   4  22
TORSDOF 9
ENDMDL
MODEL 9
REMARK VINA RESULT:    -6.056      2.202      3.337
REMARK INTER + INTRA:         -10.242
REMARK INTER:                  -9.408
REMARK INTRA:                  -0.834
REMARK UNBOUND:                -1.176
REMARK  Name = 
REMARK  9 active torsions:
REMARK  status: ('A' for Active; 'I' for Inactive)
REMARK    1  A    between atoms: N_1  and  C_2
REMARK    2  A    between atoms: C_2  and  C_3
REMARK    3  A    between atoms: C_3  and  N_4
REMARK    4  A    between atoms: C_7  and  C_8
REMARK    5  A    between atoms: N_10  and  C_11
REMARK    6  A    between atoms: C_11  and  C_12
REMARK    7  A    between atoms: C_15  and  C_16
REMARK    8  A    between atoms: C_16  and  N_17
REMARK    9  A    between atoms: C_18  and  C_20
REMARK                            x       y       z     vdW  Elec       q    Type
REMARK                         _______ _______ _______ _____ _____    ______ ____
ROOT
ATOM      1  C   UNL     1      48.102   8.167  14.360  0.00  0.00    +0.000 A 
ATOM      2  C   UNL     1      48.144   9.188  15.316  0.00  0.00    +0.000 A 
ATOM      3  C   UNL     1      49.113   9.184  16.323  0.00  0.00    +0.000 A 
ATOM      4  C   UNL     1      50.074   8.167  16.381  0.00  0.00    +0.000 A 
ATOM      5  C   UNL     1      50.025   7.139  15.430  0.00  0.00    +0.000 A 
ATOM      6  C   UNL     1      49.057   7.141  14.424  0.00  0.00    +0.000 A 
ENDROOT
BRANCH   1   7
ATOM      7  C   UNL     1      47.095   8.202  13.243  0.00  0.00    +0.000 C 
BRANCH   7  10
ATOM      8  C   UNL     1      45.934   6.222  12.366  0.00  0.00    +0.000 C 
ATOM      9  O   UNL     1      46.612   6.221  11.342  0.00  0.00    +0.000 OA
ATOM     10  N   UNL     1      46.150   7.119  13.384  0.00  0.00    +0.000 N 
ATOM     11  H   UNL     1      45.634   7.051  14.250  0.00  0.00    +0.000 HD
BRANCH   8  15
ATOM     12  N   UNL     1      44.418   3.079  11.490  0.00  0.00    +0.000 NA
ATOM     13  C   UNL     1      43.167   3.842  11.638  0.00  0.00    +0.000 C 
ATOM     14  C   UNL     1      43.613   5.283  11.792  0.00  0.00    +0.000 C 
ATOM     15  C   UNL     1      44.865   5.176  12.650  0.00  0.00    +0.000 C 
ATOM     16  C   UNL     1      45.378   3.752  12.394  0.00  0.00    +0.000 C 
BRANCH  12  17
ATOM     17  C   UNL     1      44.849   3.077  10.075  0.00  0.00    +0.000 C 
BRANCH  17  18
ATOM     18  C   UNL     1      44.365   4.285   9.243  0.00  0.00    +0.000 C 
BRANCH  18  19
ATOM     19  N   UNL     1      45.502   5.036   8.696  0.00  0.00    +0.000 NA
ATOM     20  H   UNL     1      45.915   5.593   9.444  0.00  0.00    +0.000 HD
ATOM     21  H   UNL     1      45.163   5.702   8.003  0.00  0.00    +0.000 HD
ENDBRANCH  18  19
ENDBRANCH  17  18
ENDBRANCH  12  17
ENDBRANCH   8  15
ENDBRANCH   7  10
ENDBRANCH   1   7
BRANCH   4  22
ATOM     22  C   UNL     1      51.119   8.153  17.466  0.00  0.00    +0.000 C 
BRANCH  22  23
ATOM     23  N   UNL     1      51.722   6.849  17.595  0.00  0.00    +0.000 N 
ATOM     24  C   UNL     1      51.835   6.242  18.819  0.00  0.00    +0.000 C 
ATOM     25  O   UNL     1      51.395   6.759  19.844  0.00  0.00    +0.000 OA
ATOM     26  H   UNL     1      52.281   6.518  16.816  0.00  0.00    +0.000 HD
BRANCH  24  27
ATOM     27  C   UNL     1      52.453   4.910  18.840  0.00  0.00    +0.000 A 
ATOM     28  C   UNL     1      53.670   4.729  19.485  0.00  0.00    +0.000 A 
ATOM     29  S   UNL     1      54.219   3.114  19.469  0.00  0.00    +0.000 S 
ATOM     30  C   UNL     1      52.876   2.610  18.554  0.00  0.00    +0.000 A 
ATOM     31  N   UNL     1      52.740   1.312  18.171  0.00  0.00    +0.000 NA
ATOM     32  C   UNL     1      51.694   1.074  17.454  0.00  0.00    +0.000 A 
ATOM     33  N   UNL     1      50.767   2.016  17.088  0.00  0.00    +0.000 N 
ATOM     34  C   UNL     1      50.849   3.333  17.473  0.00  0.00    +0.000 A 
ATOM     35  O   UNL     1      49.984   4.144  17.160  0.00  0.00    +0.000 OA
ATOM     36  C   UNL     1      52.014   3.655  18.275  0.00  0.00    +0.000 A 
ATOM     37  H   UNL     1      49.967   1.764  16.528  0.00  0.00    +0.000 HD
ENDBRANCH  24  27
ENDBRANCH  22  23
ENDBRANCH   4  22
TORSDOF 9
ENDMDL
