MODEL 1
REMARK VINA RESULT:    -8.672      0.000      0.000
REMARK INTER + INTRA:         -13.376
REMARK INTER:                 -12.474
REMARK INTRA:                  -0.901
REMARK UNBOUND:                -0.901
REMARK  Name = 
REMARK  8 active torsions:
REMARK  status: ('A' for Active; 'I' for Inactive)
REMARK    1  A    between atoms: N_1  and  C_2
REMARK    2  A    between atoms: C_2  and  N_3
REMARK    3  A    between atoms: C_2  and  C_25
REMARK    4  A    between atoms: N_3  and  C_4
REMARK    5  A    between atoms: C_4  and  C_5
REMARK    6  A    between atoms: C_8  and  C_9
REMARK    7  A    between atoms: C_9  and  N_10
REMARK    8  A    between atoms: C_11  and  C_13
REMARK                            x       y       z     vdW  Elec       q    Type
REMARK                         _______ _______ _______ _____ _____    ______ ____
ROOT
ATOM      1  C   UNL     1      46.047   4.674  12.934  0.00  0.00    +0.000 A 
ATOM      2  C   UNL     1      46.246   6.005  12.555  0.00  0.00    +0.000 A 
ATOM      3  C   UNL     1      47.134   6.806  13.269  0.00  0.00    +0.000 A 
ATOM      4  C   UNL     1      47.801   6.264  14.363  0.00  0.00    +0.000 A 
ATOM      5  N   UNL     1      47.645   4.969  14.738  0.00  0.00    +0.000 NA
ATOM      6  C   UNL     1      46.788   4.213  14.017  0.00  0.00    +0.000 A 
ENDROOT
BRANCH   1   7
ATOM      7  C   UNL     1      45.115   3.767  12.177  0.00  0.00    +0.000 C 
BRANCH   7   8
ATOM      8  N   UNL     1      44.562   4.426  10.986  0.00  0.00    +0.000 NA
ATOM      9  H   UNL     1      43.716   4.915  11.274  0.00  0.00    +0.000 HD
BRANCH   8  10
ATOM     10  C   UNL     1      44.128   3.462   9.989  0.00  0.00    +0.000 C 
BRANCH  10  11
ATOM     11  C   UNL     1      45.194   3.089   8.955  0.00  0.00    +0.000 A 
ATOM     12  C   UNL     1      45.769   4.089   8.170  0.00  0.00    +0.000 A 
ATOM     13  C   UNL     1      46.691   3.732   7.189  0.00  0.00    +0.000 A 
ATOM     14  C   UNL     1      47.014   2.391   7.017  0.00  0.00    +0.000 A 
ATOM     15  C   UNL     1      46.391   1.464   7.836  0.00  0.00    +0.000 A 
ATOM     16 CL   UNL     1      46.736  -0.210   7.691  0.00  0.00    +0.000 Cl
ATOM     17  N   UNL     1      45.493   1.769   8.794  0.00  0.00    +0.000 NA
ENDBRANCH  10  11
BRANCH  10  18
ATOM     18  N   UNL     1      43.785   2.314  10.800  0.00  0.00    +0.000 NA
ATOM     19  H   UNL     1      44.342   1.541  10.436  0.00  0.00    +0.000 HD
ATOM     20  H   UNL     1      42.825   2.067  10.574  0.00  0.00    +0.000 HD
ENDBRANCH  10  18
ENDBRANCH   8  10
ENDBRANCH   7   8
ENDBRANCH   1   7
BRANCH   4  21
ATOM     21  C   UNL     1      48.751   7.105  15.178  0.00  0.00    +0.000 C 
BRANCH  21  22
ATOM     22  N   UNL     1      49.819   6.316  15.747  0.00  0.00    +0.000 N 
ATOM     23  C   UNL     1      49.827   5.922  17.054  0.00  0.00    +0.000 C 
ATOM     24  O   UNL     1      48.916   6.208  17.826  0.00  0.00    +0.000 OA
ATOM     25  H   UNL     1      50.670   6.267  15.191  0.00  0.00    +0.000 HD
BRANCH  23  26
ATOM     26  C   UNL     1      50.948   5.065  17.481  0.00  0.00    +0.000 A 
ATOM     27  C   UNL     1      52.100   5.651  17.986  0.00  0.00    +0.000 A 
ATOM     28  S   UNL     1      53.281   4.525  18.476  0.00  0.00    +0.000 S 
ATOM     29  C   UNL     1      52.311   3.214  17.993  0.00  0.00    +0.000 A 
ATOM     30  N   UNL     1      52.754   1.934  18.120  0.00  0.00    +0.000 NA
ATOM     31  C   UNL     1      51.931   1.039  17.685  0.00  0.00    +0.000 A 
ATOM     32  N   UNL     1      50.703   1.309  17.140  0.00  0.00    +0.000 N 
ATOM     33  C   UNL     1      50.193   2.581  17.041  0.00  0.00    +0.000 A 
ATOM     34  O   UNL     1      49.057   2.780  16.625  0.00  0.00    +0.000 OA
ATOM     35  C   UNL     1      51.093   3.629  17.485  0.00  0.00    +0.000 A 
ATOM     36  H   UNL     1      50.095   0.563  16.835  0.00  0.00    +0.000 HD
ENDBRANCH  23  26
ENDBRANCH  21  22
ENDBRANCH   4  21
TORSDOF 8
ENDMDL
MODEL 2
REMARK VINA RESULT:    -8.152      2.353      2.892
REMARK INTER + INTRA:         -12.628
REMARK INTER:                 -11.775
REMARK INTRA:                  -0.853
REMARK UNBOUND:                -0.901
REMARK  Name = 
REMARK  8 active torsions:
REMARK  status: ('A' for Active; 'I' for Inactive)
REMARK    1  A    between atoms: N_1  and  C_2
REMARK    2  A    between atoms: C_2  and  N_3
REMARK    3  A    between atoms: C_2  and  C_25
REMARK    4  A    between atoms: N_3  and  C_4
REMARK    5  A    between atoms: C_4  and  C_5
REMARK    6  A    between atoms: C_8  and  C_9
REMARK    7  A    between atoms: C_9  and  N_10
REMARK    8  A    between atoms: C_11  and  C_13
REMARK                            x       y       z     vdW  Elec       q    Type
REMARK                         _______ _______ _______ _____ _____    ______ ____
ROOT
ATOM      1  C   UNL     1      45.054   4.597  12.186  0.00  0.00    +0.000 A 
ATOM      2  C   UNL     1      46.075   4.012  12.942  0.00  0.00    +0.000 A 
ATOM      3  C   UNL     1      47.063   4.809  13.513  0.00  0.00    +0.000 A 
ATOM      4  C   UNL     1      47.021   6.185  13.308  0.00  0.00    +0.000 A 
ATOM      5  N   UNL     1      46.029   6.782  12.600  0.00  0.00    +0.000 NA
ATOM      6  C   UNL     1      45.077   5.984  12.071  0.00  0.00    +0.000 A 
ENDROOT
BRANCH   1   7
ATOM      7  C   UNL     1      43.955   3.775  11.571  0.00  0.00    +0.000 C 
BRANCH   7   8
ATOM      8  N   UNL     1      44.432   3.003  10.417  0.00  0.00    +0.000 NA
ATOM      9  H   UNL     1      45.218   2.437  10.734  0.00  0.00    +0.000 HD
BRANCH   8  10
ATOM     10  C   UNL     1      44.973   3.863   9.378  0.00  0.00    +0.000 C 
BRANCH  10  11
ATOM     11  C   UNL     1      45.837   3.143   8.339  0.00  0.00    +0.000 A 
ATOM     12  C   UNL     1      46.423   3.876   7.306  0.00  0.00    +0.000 A 
ATOM     13  C   UNL     1      47.154   3.203   6.330  0.00  0.00    +0.000 A 
ATOM     14  C   UNL     1      47.281   1.822   6.409  0.00  0.00    +0.000 A 
ATOM     15  C   UNL     1      46.663   1.173   7.465  0.00  0.00    +0.000 A 
ATOM     16 CL   UNL     1      46.774  -0.530   7.639  0.00  0.00    +0.000 Cl
ATOM     17  N   UNL     1      45.945   1.787   8.428  0.00  0.00    +0.000 NA
ENDBRANCH  10  11
BRANCH  10  18
ATOM     18  N   UNL     1      43.775   4.391   8.762  0.00  0.00    +0.000 NA
ATOM     19  H   UNL     1      43.208   3.579   8.517  0.00  0.00    +0.000 HD
ATOM     20  H   UNL     1      44.052   4.789   7.868  0.00  0.00    +0.000 HD
ENDBRANCH  10  18
ENDBRANCH   8  10
ENDBRANCH   7   8
ENDBRANCH   1   7
BRANCH   4  21
ATOM     21  C   UNL     1      48.086   7.081  13.889  0.00  0.00    +0.000 C 
BRANCH  21  22
ATOM     22  N   UNL     1      48.050   7.097  15.333  0.00  0.00    +0.000 N 
ATOM     23  C   UNL     1      49.098   6.676  16.100  0.00  0.00    +0.000 C 
ATOM     24  O   UNL     1      50.144   6.266  15.605  0.00  0.00    +0.000 OA
ATOM     25  H   UNL     1      47.128   7.216  15.746  0.00  0.00    +0.000 HD
BRANCH  23  26
ATOM     26  C   UNL     1      48.947   6.809  17.560  0.00  0.00    +0.000 A 
ATOM     27  C   UNL     1      48.898   8.073  18.128  0.00  0.00    +0.000 A 
ATOM     28  S   UNL     1      48.676   8.057  19.817  0.00  0.00    +0.000 S 
ATOM     29  C   UNL     1      48.678   6.356  19.855  0.00  0.00    +0.000 A 
ATOM     30  N   UNL     1      48.550   5.684  21.031  0.00  0.00    +0.000 NA
ATOM     31  C   UNL     1      48.601   4.399  20.920  0.00  0.00    +0.000 A 
ATOM     32  N   UNL     1      48.762   3.725  19.737  0.00  0.00    +0.000 N 
ATOM     33  C   UNL     1      48.842   4.359  18.521  0.00  0.00    +0.000 A 
ATOM     34  O   UNL     1      48.902   3.723  17.475  0.00  0.00    +0.000 OA
ATOM     35  C   UNL     1      48.824   5.808  18.593  0.00  0.00    +0.000 A 
ATOM     36  H   UNL     1      48.774   2.716  19.713  0.00  0.00    +0.000 HD
ENDBRANCH  23  26
ENDBRANCH  21  22
ENDBRANCH   4  21
TORSDOF 8
ENDMDL
MODEL 3
REMARK VINA RESULT:    -7.823      3.331      4.073
REMARK INTER + INTRA:         -12.154
REMARK INTER:                 -11.269
REMARK INTRA:                  -0.885
REMARK UNBOUND:                -0.901
REMARK  Name = 
REMARK  8 active torsions:
REMARK  status: ('A' for Active; 'I' for Inactive)
REMARK    1  A    between atoms: N_1  and  C_2
REMARK    2  A    between atoms: C_2  and  N_3
REMARK    3  A    between atoms: C_2  and  C_25
REMARK    4  A    between atoms: N_3  and  C_4
REMARK    5  A    between atoms: C_4  and  C_5
REMARK    6  A    between atoms: C_8  and  C_9
REMARK    7  A    between atoms: C_9  and  N_10
REMARK    8  A    between atoms: C_11  and  C_13
REMARK                            x       y       z     vdW  Elec       q    Type
REMARK                         _______ _______ _______ _____ _____    ______ ____
ROOT
ATOM      1  C   UNL     1      45.311   6.469  11.763  0.00  0.00    +0.000 A 
ATOM      2  C   UNL     1      46.449   5.954  12.391  0.00  0.00    +0.000 A 
ATOM      3  C   UNL     1      47.253   6.785  13.167  0.00  0.00    +0.000 A 
ATOM      4  C   UNL     1      46.910   8.128  13.292  0.00  0.00    +0.000 A 
ATOM      5  N   UNL     1      45.799   8.649  12.714  0.00  0.00    +0.000 NA
ATOM      6  C   UNL     1      45.031   7.815  11.980  0.00  0.00    +0.000 A 
ENDROOT
BRANCH   1   7
ATOM      7  C   UNL     1      44.402   5.601  10.935  0.00  0.00    +0.000 C 
BRANCH   7   8
ATOM      8  N   UNL     1      44.683   4.173  11.134  0.00  0.00    +0.000 NA
ATOM      9  H   UNL     1      45.696   4.057  11.111  0.00  0.00    +0.000 HD
BRANCH   8  10
ATOM     10  C   UNL     1      44.179   3.366  10.036  0.00  0.00    +0.000 C 
BRANCH  10  11
ATOM     11  C   UNL     1      45.219   3.025   8.965  0.00  0.00    +0.000 A 
ATOM     12  C   UNL     1      45.739   4.043   8.164  0.00  0.00    +0.000 A 
ATOM     13  C   UNL     1      46.636   3.714   7.151  0.00  0.00    +0.000 A 
ATOM     14  C   UNL     1      46.988   2.383   6.962  0.00  0.00    +0.000 A 
ATOM     15  C   UNL     1      46.419   1.437   7.798  0.00  0.00    +0.000 A 
ATOM     16 CL   UNL     1      46.803  -0.227   7.634  0.00  0.00    +0.000 Cl
ATOM     17  N   UNL     1      45.547   1.714   8.788  0.00  0.00    +0.000 NA
ENDBRANCH  10  11
BRANCH  10  18
ATOM     18  N   UNL     1      43.738   2.166  10.714  0.00  0.00    +0.000 NA
ATOM     19  H   UNL     1      42.870   1.890  10.253  0.00  0.00    +0.000 HD
ATOM     20  H   UNL     1      43.453   2.442  11.651  0.00  0.00    +0.000 HD
ENDBRANCH  10  18
ENDBRANCH   8  10
ENDBRANCH   7   8
ENDBRANCH   1   7
BRANCH   4  21
ATOM     21  C   UNL     1      47.768   9.067  14.102  0.00  0.00    +0.000 C 
BRANCH  21  22
ATOM     22  N   UNL     1      47.602   8.861  15.522  0.00  0.00    +0.000 N 
ATOM     23  C   UNL     1      48.283   9.587  16.456  0.00  0.00    +0.000 C 
ATOM     24  O   UNL     1      49.074  10.472  16.142  0.00  0.00    +0.000 OA
ATOM     25  H   UNL     1      47.133   7.998  15.787  0.00  0.00    +0.000 HD
BRANCH  23  26
ATOM     26  C   UNL     1      47.966   9.314  17.869  0.00  0.00    +0.000 A 
ATOM     27  C   UNL     1      47.598  10.361  18.700  0.00  0.00    +0.000 A 
ATOM     28  S   UNL     1      47.221   9.874  20.289  0.00  0.00    +0.000 S 
ATOM     29  C   UNL     1      47.577   8.250  19.933  0.00  0.00    +0.000 A 
ATOM     30  N   UNL     1      47.479   7.288  20.890  0.00  0.00    +0.000 NA
ATOM     31  C   UNL     1      47.809   6.104  20.494  0.00  0.00    +0.000 A 
ATOM     32  N   UNL     1      48.222   5.795  19.224  0.00  0.00    +0.000 N 
ATOM     33  C   UNL     1      48.285   6.723  18.213  0.00  0.00    +0.000 A 
ATOM     34  O   UNL     1      48.578   6.396  17.068  0.00  0.00    +0.000 OA
ATOM     35  C   UNL     1      47.956   8.078  18.614  0.00  0.00    +0.000 A 
ATOM     36  H   UNL     1      48.448   4.845  18.969  0.00  0.00    +0.000 HD
ENDBRANCH  23  26
ENDBRANCH  21  22
ENDBRANCH   4  21
TORSDOF 8
ENDMDL
MODEL 4
REMARK VINA RESULT:    -7.442      3.942      8.802
REMARK INTER + INTRA:         -11.607
REMARK INTER:                 -10.113
REMARK INTRA:                  -1.493
REMARK UNBOUND:                -0.901
REMARK  Name = 
REMARK  8 active torsions:
REMARK  status: ('A' for Active; 'I' for Inactive)
REMARK    1  A    between atoms: N_1  and  C_2
REMARK    2  A    between atoms: C_2  and  N_3
REMARK    3  A    between atoms: C_2  and  C_25
REMARK    4  A    between atoms: N_3  and  C_4
REMARK    5  A    between atoms: C_4  and  C_5
REMARK    6  A    between atoms: C_8  and  C_9
REMARK    7  A    between atoms: C_9  and  N_10
REMARK    8  A    between atoms: C_11  and  C_13
REMARK                            x       y       z     vdW  Elec       q    Type
REMARK                         _______ _______ _______ _____ _____    ______ ____
ROOT
ATOM      1  C   UNL     1      49.344   7.737  16.344  0.00  0.00    +0.000 A 
ATOM      2  C   UNL     1      48.617   8.828  15.859  0.00  0.00    +0.000 A 
ATOM      3  C   UNL     1      48.133   8.817  14.553  0.00  0.00    +0.000 A 
ATOM      4  C   UNL     1      48.398   7.714  13.746  0.00  0.00    +0.000 A 
ATOM      5  N   UNL     1      49.081   6.632  14.198  0.00  0.00    +0.000 NA
ATOM      6  C   UNL     1      49.524   6.667  15.474  0.00  0.00    +0.000 A 
ENDROOT
BRANCH   1   7
ATOM      7  C   UNL     1      49.864   7.698  17.756  0.00  0.00    +0.000 C 
BRANCH   7   8
ATOM      8  N   UNL     1      48.791   7.438  18.725  0.00  0.00    +0.000 NA
ATOM      9  H   UNL     1      48.880   8.129  19.469  0.00  0.00    +0.000 HD
BRANCH   8  10
ATOM     10  C   UNL     1      48.953   6.149  19.375  0.00  0.00    +0.000 C 
BRANCH  10  11
ATOM     11  C   UNL     1      48.668   4.941  18.478  0.00  0.00    +0.000 A 
ATOM     12  C   UNL     1      47.376   4.736  17.992  0.00  0.00    +0.000 A 
ATOM     13  C   UNL     1      47.112   3.601  17.229  0.00  0.00    +0.000 A 
ATOM     14  C   UNL     1      48.140   2.702  16.974  0.00  0.00    +0.000 A 
ATOM     15  C   UNL     1      49.391   2.980  17.501  0.00  0.00    +0.000 A 
ATOM     16 CL   UNL     1      50.714   1.923  17.229  0.00  0.00    +0.000 Cl
ATOM     17  N   UNL     1      49.686   4.065  18.244  0.00  0.00    +0.000 NA
ENDBRANCH  10  11
BRANCH  10  18
ATOM     18  N   UNL     1      50.347   6.173  19.764  0.00  0.00    +0.000 NA
ATOM     19  H   UNL     1      50.683   7.108  19.531  0.00  0.00    +0.000 HD
ATOM     20  H   UNL     1      50.844   5.556  19.126  0.00  0.00    +0.000 HD
ENDBRANCH  10  18
ENDBRANCH   8  10
ENDBRANCH   7   8
ENDBRANCH   1   7
BRANCH   4  21
ATOM     21  C   UNL     1      47.915   7.674  12.318  0.00  0.00    +0.000 C 
BRANCH  21  22
ATOM     22  N   UNL     1      47.149   6.481  12.041  0.00  0.00    +0.000 N 
ATOM     23  C   UNL     1      45.794   6.423  12.201  0.00  0.00    +0.000 C 
ATOM     24  O   UNL     1      45.141   7.391  12.582  0.00  0.00    +0.000 OA
ATOM     25  H   UNL     1      47.690   5.625  11.946  0.00  0.00    +0.000 HD
BRANCH  23  26
ATOM     26  C   UNL     1      45.134   5.162  11.819  0.00  0.00    +0.000 A 
ATOM     27  C   UNL     1      44.428   4.445  12.773  0.00  0.00    +0.000 A 
ATOM     28  S   UNL     1      43.689   3.036  12.163  0.00  0.00    +0.000 S 
ATOM     29  C   UNL     1      44.321   3.313  10.608  0.00  0.00    +0.000 A 
ATOM     30  N   UNL     1      44.078   2.443   9.591  0.00  0.00    +0.000 NA
ATOM     31  C   UNL     1      44.644   2.756   8.474  0.00  0.00    +0.000 A 
ATOM     32  N   UNL     1      45.425   3.866   8.280  0.00  0.00    +0.000 N 
ATOM     33  C   UNL     1      45.654   4.799   9.263  0.00  0.00    +0.000 A 
ATOM     34  O   UNL     1      46.289   5.821   9.032  0.00  0.00    +0.000 OA
ATOM     35  C   UNL     1      45.067   4.476  10.550  0.00  0.00    +0.000 A 
ATOM     36  H   UNL     1      45.825   4.067   7.376  0.00  0.00    +0.000 HD
ENDBRANCH  23  26
ENDBRANCH  21  22
ENDBRANCH   4  21
TORSDOF 8
ENDMDL
MODEL 5
REMARK VINA RESULT:    -7.147      2.480      2.952
REMARK INTER + INTRA:         -11.181
REMARK INTER:                 -10.087
REMARK INTRA:                  -1.095
REMARK UNBOUND:                -0.901
REMARK  Name = 
REMARK  8 active torsions:
REMARK  status: ('A' for Active; 'I' for Inactive)
REMARK    1  A    between atoms: N_1  and  C_2
REMARK    2  A    between atoms: C_2  and  N_3
REMARK    3  A    between atoms: C_2  and  C_25
REMARK    4  A    between atoms: N_3  and  C_4
REMARK    5  A    between atoms: C_4  and  C_5
REMARK    6  A    between atoms: C_8  and  C_9
REMARK    7  A    between atoms: C_9  and  N_10
REMARK    8  A    between atoms: C_11  and  C_13
REMARK                            x       y       z     vdW  Elec       q    Type
REMARK                         _______ _______ _______ _____ _____    ______ ____
ROOT
ATOM      1  C   UNL     1      45.931   6.856  11.798  0.00  0.00    +0.000 A 
ATOM      2  C   UNL     1      47.293   6.679  11.534  0.00  0.00    +0.000 A 
ATOM      3  C   UNL     1      48.240   7.424  12.231  0.00  0.00    +0.000 A 
ATOM      4  C   UNL     1      47.808   8.348  13.178  0.00  0.00    +0.000 A 
ATOM      5  N   UNL     1      46.495   8.523  13.472  0.00  0.00    +0.000 NA
ATOM      6  C   UNL     1      45.600   7.776  12.789  0.00  0.00    +0.000 A 
ENDROOT
BRANCH   1   7
ATOM      7  C   UNL     1      44.876   6.055  11.085  0.00  0.00    +0.000 C 
BRANCH   7   8
ATOM      8  N   UNL     1      45.437   4.853  10.455  0.00  0.00    +0.000 NA
ATOM      9  H   UNL     1      46.451   4.962  10.443  0.00  0.00    +0.000 HD
BRANCH   8  10
ATOM     10  C   UNL     1      45.046   4.741   9.061  0.00  0.00    +0.000 C 
BRANCH  10  11
ATOM     11  C   UNL     1      45.615   3.520   8.334  0.00  0.00    +0.000 A 
ATOM     12  C   UNL     1      45.516   2.260   8.927  0.00  0.00    +0.000 A 
ATOM     13  C   UNL     1      46.093   1.165   8.288  0.00  0.00    +0.000 A 
ATOM     14  C   UNL     1      46.753   1.355   7.080  0.00  0.00    +0.000 A 
ATOM     15  C   UNL     1      46.809   2.640   6.566  0.00  0.00    +0.000 A 
ATOM     16 CL   UNL     1      47.601   2.959   5.079  0.00  0.00    +0.000 Cl
ATOM     17  N   UNL     1      46.266   3.725   7.154  0.00  0.00    +0.000 NA
ENDBRANCH  10  11
BRANCH  10  18
ATOM     18  N   UNL     1      43.604   4.650   9.153  0.00  0.00    +0.000 NA
ATOM     19  H   UNL     1      43.255   5.594   8.985  0.00  0.00    +0.000 HD
ATOM     20  H   UNL     1      43.380   4.463  10.127  0.00  0.00    +0.000 HD
ENDBRANCH  10  18
ENDBRANCH   8  10
ENDBRANCH   7   8
ENDBRANCH   1   7
BRANCH   4  21
ATOM     21  C   UNL     1      48.800   9.193  13.936  0.00  0.00    +0.000 C 
BRANCH  21  22
ATOM     22  N   UNL     1      49.293   8.518  15.115  0.00  0.00    +0.000 N 
ATOM     23  C   UNL     1      48.746   8.703  16.352  0.00  0.00    +0.000 C 
ATOM     24  O   UNL     1      47.789   9.450  16.535  0.00  0.00    +0.000 OA
ATOM     25  H   UNL     1      50.208   8.083  15.019  0.00  0.00    +0.000 HD
BRANCH  23  26
ATOM     26  C   UNL     1      49.308   7.901  17.453  0.00  0.00    +0.000 A 
ATOM     27  C   UNL     1      49.878   8.543  18.542  0.00  0.00    +0.000 A 
ATOM     28  S   UNL     1      50.441   7.477  19.747  0.00  0.00    +0.000 S 
ATOM     29  C   UNL     1      49.979   6.117  18.836  0.00  0.00    +0.000 A 
ATOM     30  N   UNL     1      50.206   4.858  19.298  0.00  0.00    +0.000 NA
ATOM     31  C   UNL     1      49.836   3.919  18.492  0.00  0.00    +0.000 A 
ATOM     32  N   UNL     1      49.252   4.126  17.270  0.00  0.00    +0.000 N 
ATOM     33  C   UNL     1      48.956   5.378  16.786  0.00  0.00    +0.000 A 
ATOM     34  O   UNL     1      48.359   5.524  15.726  0.00  0.00    +0.000 OA
ATOM     35  C   UNL     1      49.383   6.471  17.639  0.00  0.00    +0.000 A 
ATOM     36  H   UNL     1      48.966   3.349  16.693  0.00  0.00    +0.000 HD
ENDBRANCH  23  26
ENDBRANCH  21  22
ENDBRANCH   4  21
TORSDOF 8
ENDMDL
MODEL 6
REMARK VINA RESULT:    -6.868      4.085      8.370
REMARK INTER + INTRA:         -10.780
REMARK INTER:                  -9.175
REMARK INTRA:                  -1.605
REMARK UNBOUND:                -0.901
REMARK  Name = 
REMARK  8 active torsions:
REMARK  status: ('A' for Active; 'I' for Inactive)
REMARK    1  A    between atoms: N_1  and  C_2
REMARK    2  A    between atoms: C_2  and  N_3
REMARK    3  A    between atoms: C_2  and  C_25
REMARK    4  A    between atoms: N_3  and  C_4
REMARK    5  A    between atoms: C_4  and  C_5
REMARK    6  A    between atoms: C_8  and  C_9
REMARK    7  A    between atoms: C_9  and  N_10
REMARK    8  A    between atoms: C_11  and  C_13
REMARK                            x       y       z     vdW  Elec       q    Type
REMARK                         _______ _______ _______ _____ _____    ______ ____
ROOT
ATOM      1  C   UNL     1      49.674   7.543  17.340  0.00  0.00    +0.000 A 
ATOM      2  C   UNL     1      48.916   8.649  16.945  0.00  0.00    +0.000 A 
ATOM      3  C   UNL     1      48.594   8.829  15.602  0.00  0.00    +0.000 A 
ATOM      4  C   UNL     1      49.048   7.901  14.670  0.00  0.00    +0.000 A 
ATOM      5  N   UNL     1      49.764   6.805  15.028  0.00  0.00    +0.000 NA
ATOM      6  C   UNL     1      50.048   6.651  16.339  0.00  0.00    +0.000 A 
ENDROOT
BRANCH   1   7
ATOM      7  C   UNL     1      50.025   7.298  18.783  0.00  0.00    +0.000 C 
BRANCH   7   8
ATOM      8  N   UNL     1      48.843   6.937  19.577  0.00  0.00    +0.000 NA
ATOM      9  H   UNL     1      48.922   7.415  20.474  0.00  0.00    +0.000 HD
BRANCH   8  10
ATOM     10  C   UNL     1      48.821   5.520  19.897  0.00  0.00    +0.000 C 
BRANCH  10  11
ATOM     11  C   UNL     1      48.584   4.598  18.698  0.00  0.00    +0.000 A 
ATOM     12  C   UNL     1      47.364   4.650  18.022  0.00  0.00    +0.000 A 
ATOM     13  C   UNL     1      47.135   3.763  16.973  0.00  0.00    +0.000 A 
ATOM     14  C   UNL     1      48.124   2.851  16.627  0.00  0.00    +0.000 A 
ATOM     15  C   UNL     1      49.302   2.865  17.354  0.00  0.00    +0.000 A 
ATOM     16 CL   UNL     1      50.575   1.775  16.989  0.00  0.00    +0.000 Cl
ATOM     17  N   UNL     1      49.562   3.705  18.377  0.00  0.00    +0.000 NA
ENDBRANCH  10  11
BRANCH  10  18
ATOM     18  N   UNL     1      50.143   5.308  20.446  0.00  0.00    +0.000 NA
ATOM     19  H   UNL     1      50.779   5.838  19.849  0.00  0.00    +0.000 HD
ATOM     20  H   UNL     1      50.383   4.335  20.275  0.00  0.00    +0.000 HD
ENDBRANCH  10  18
ENDBRANCH   8  10
ENDBRANCH   7   8
ENDBRANCH   1   7
BRANCH   4  21
ATOM     21  C   UNL     1      48.743   8.073  13.204  0.00  0.00    +0.000 C 
BRANCH  21  22
ATOM     22  N   UNL     1      47.649   7.230  12.778  0.00  0.00    +0.000 N 
ATOM     23  C   UNL     1      46.343   7.616  12.872  0.00  0.00    +0.000 C 
ATOM     24  O   UNL     1      46.019   8.713  13.317  0.00  0.00    +0.000 OA
ATOM     25  H   UNL     1      47.884   6.253  12.623  0.00  0.00    +0.000 HD
BRANCH  23  26
ATOM     26  C   UNL     1      45.335   6.682  12.339  0.00  0.00    +0.000 A 
ATOM     27  C   UNL     1      44.233   7.182  11.661  0.00  0.00    +0.000 A 
ATOM     28  S   UNL     1      43.187   5.973  11.070  0.00  0.00    +0.000 S 
ATOM     29  C   UNL     1      44.150   4.739  11.736  0.00  0.00    +0.000 A 
ATOM     30  N   UNL     1      43.794   3.432  11.610  0.00  0.00    +0.000 NA
ATOM     31  C   UNL     1      44.596   2.602  12.190  0.00  0.00    +0.000 A 
ATOM     32  N   UNL     1      45.724   2.962  12.879  0.00  0.00    +0.000 N 
ATOM     33  C   UNL     1      46.150   4.263  12.988  0.00  0.00    +0.000 A 
ATOM     34  O   UNL     1      47.208   4.542  13.541  0.00  0.00    +0.000 OA
ATOM     35  C   UNL     1      45.266   5.241  12.381  0.00  0.00    +0.000 A 
ATOM     36  H   UNL     1      46.322   2.263  13.295  0.00  0.00    +0.000 HD
ENDBRANCH  23  26
ENDBRANCH  21  22
ENDBRANCH   4  21
TORSDOF 8
ENDMDL
MODEL 7
REMARK VINA RESULT:    -6.839      1.617      2.253
REMARK INTER + INTRA:         -10.739
REMARK INTER:                 -10.082
REMARK INTRA:                  -0.657
REMARK UNBOUND:                -0.901
REMARK  Name = 
REMARK  8 active torsions:
REMARK  status: ('A' for Active; 'I' for Inactive)
REMARK    1  A    between atoms: N_1  and  C_2
REMARK    2  A    between atoms: C_2  and  N_3
REMARK    3  A    between atoms: C_2  and  C_25
REMARK    4  A    between atoms: N_3  and  C_4
REMARK    5  A    between atoms: C_4  and  C_5
REMARK    6  A    between atoms: C_8  and  C_9
REMARK    7  A    between atoms: C_9  and  N_10
REMARK    8  A    between atoms: C_11  and  C_13
REMARK                            x       y       z     vdW  Elec       q    Type
REMARK                         _______ _______ _______ _____ _____    ______ ____
ROOT
ATOM      1  C   UNL     1      47.094   6.619  12.814  0.00  0.00    +0.000 A 
ATOM      2  C   UNL     1      47.298   7.973  13.094  0.00  0.00    +0.000 A 
ATOM      3  C   UNL     1      47.989   8.349  14.243  0.00  0.00    +0.000 A 
ATOM      4  C   UNL     1      48.456   7.360  15.103  0.00  0.00    +0.000 A 
ATOM      5  N   UNL     1      48.294   6.038  14.843  0.00  0.00    +0.000 NA
ATOM      6  C   UNL     1      47.632   5.704  13.714  0.00  0.00    +0.000 A 
ENDROOT
BRANCH   1   7
ATOM      7  C   UNL     1      46.372   6.168  11.572  0.00  0.00    +0.000 C 
BRANCH   7   8
ATOM      8  N   UNL     1      45.185   6.990  11.303  0.00  0.00    +0.000 NA
ATOM      9  H   UNL     1      45.071   7.626  12.092  0.00  0.00    +0.000 HD
BRANCH   8  10
ATOM     10  C   UNL     1      43.972   6.192  11.273  0.00  0.00    +0.000 C 
BRANCH  10  11
ATOM     11  C   UNL     1      44.128   4.817  10.617  0.00  0.00    +0.000 A 
ATOM     12  C   UNL     1      43.726   3.675  11.310  0.00  0.00    +0.000 A 
ATOM     13  C   UNL     1      43.930   2.425  10.731  0.00  0.00    +0.000 A 
ATOM     14  C   UNL     1      44.529   2.348   9.480  0.00  0.00    +0.000 A 
ATOM     15  C   UNL     1      44.903   3.531   8.865  0.00  0.00    +0.000 A 
ATOM     16 CL   UNL     1      45.644   3.523   7.318  0.00  0.00    +0.000 Cl
ATOM     17  N   UNL     1      44.724   4.759   9.392  0.00  0.00    +0.000 NA
ENDBRANCH  10  11
BRANCH  10  18
ATOM     18  N   UNL     1      43.663   6.049  12.680  0.00  0.00    +0.000 NA
ATOM     19  H   UNL     1      44.193   5.237  12.999  0.00  0.00    +0.000 HD
ATOM     20  H   UNL     1      42.690   5.761  12.743  0.00  0.00    +0.000 HD
ENDBRANCH  10  18
ENDBRANCH   8  10
ENDBRANCH   7   8
ENDBRANCH   1   7
BRANCH   4  21
ATOM     21  C   UNL     1      49.187   7.726  16.370  0.00  0.00    +0.000 C 
BRANCH  21  22
ATOM     22  N   UNL     1      50.214   6.764  16.698  0.00  0.00    +0.000 N 
ATOM     23  C   UNL     1      50.219   6.064  17.870  0.00  0.00    +0.000 C 
ATOM     24  O   UNL     1      49.341   6.204  18.716  0.00  0.00    +0.000 OA
ATOM     25  H   UNL     1      51.051   6.804  16.122  0.00  0.00    +0.000 HD
BRANCH  23  26
ATOM     26  C   UNL     1      51.292   5.068  18.044  0.00  0.00    +0.000 A 
ATOM     27  C   UNL     1      52.518   5.469  18.555  0.00  0.00    +0.000 A 
ATOM     28  S   UNL     1      53.633   4.194  18.735  0.00  0.00    +0.000 S 
ATOM     29  C   UNL     1      52.531   3.067  18.098  0.00  0.00    +0.000 A 
ATOM     30  N   UNL     1      52.876   1.759  17.952  0.00  0.00    +0.000 NA
ATOM     31  C   UNL     1      51.957   1.020  17.426  0.00  0.00    +0.000 A 
ATOM     32  N   UNL     1      50.722   1.470  17.039  0.00  0.00    +0.000 N 
ATOM     33  C   UNL     1      50.311   2.770  17.215  0.00  0.00    +0.000 A 
ATOM     34  O   UNL     1      49.171   3.119  16.934  0.00  0.00    +0.000 OA
ATOM     35  C   UNL     1      51.320   3.651  17.772  0.00  0.00    +0.000 A 
ATOM     36  H   UNL     1      50.037   0.838  16.651  0.00  0.00    +0.000 HD
ENDBRANCH  23  26
ENDBRANCH  21  22
ENDBRANCH   4  21
TORSDOF 8
ENDMDL
MODEL 8
REMARK VINA RESULT:    -6.645      3.063      4.419
REMARK INTER + INTRA:         -10.460
REMARK INTER:                  -9.305
REMARK INTRA:                  -1.155
REMARK UNBOUND:                -0.901
REMARK  Name = 
REMARK  8 active torsions:
REMARK  status: ('A' for Active; 'I' for Inactive)
REMARK    1  A    between atoms: N_1  and  C_2
REMARK    2  A    between atoms: C_2  and  N_3
REMARK    3  A    between atoms: C_2  and  C_25
REMARK    4  A    between atoms: N_3  and  C_4
REMARK    5  A    between atoms: C_4  and  C_5
REMARK    6  A    between atoms: C_8  and  C_9
REMARK    7  A    between atoms: C_9  and  N_10
REMARK    8  A    between atoms: C_11  and  C_13
REMARK                            x       y       z     vdW  Elec       q    Type
REMARK                         _______ _______ _______ _____ _____    ______ ____
ROOT
ATOM      1  C   UNL     1      46.161   7.669  12.083  0.00  0.00    +0.000 A 
ATOM      2  C   UNL     1      47.085   6.663  11.785  0.00  0.00    +0.000 A 
ATOM      3  C   UNL     1      48.248   6.540  12.541  0.00  0.00    +0.000 A 
ATOM      4  C   UNL     1      48.474   7.437  13.581  0.00  0.00    +0.000 A 
ATOM      5  N   UNL     1      47.583   8.407  13.907  0.00  0.00    +0.000 NA
ATOM      6  C   UNL     1      46.458   8.492  13.165  0.00  0.00    +0.000 A 
ENDROOT
BRANCH   1   7
ATOM      7  C   UNL     1      44.881   7.823  11.306  0.00  0.00    +0.000 C 
BRANCH   7   8
ATOM      8  N   UNL     1      43.759   7.141  11.965  0.00  0.00    +0.000 NA
ATOM      9  H   UNL     1      44.153   6.524  12.674  0.00  0.00    +0.000 HD
BRANCH   8  10
ATOM     10  C   UNL     1      43.046   6.268  11.049  0.00  0.00    +0.000 C 
BRANCH  10  11
ATOM     11  C   UNL     1      43.759   4.948  10.740  0.00  0.00    +0.000 A 
ATOM     12  C   UNL     1      44.073   4.076  11.784  0.00  0.00    +0.000 A 
ATOM     13  C   UNL     1      44.777   2.909  11.502  0.00  0.00    +0.000 A 
ATOM     14  C   UNL     1      45.150   2.642  10.190  0.00  0.00    +0.000 A 
ATOM     15  C   UNL     1      44.803   3.564   9.217  0.00  0.00    +0.000 A 
ATOM     16 CL   UNL     1      45.222   3.309   7.574  0.00  0.00    +0.000 Cl
ATOM     17  N   UNL     1      44.124   4.706   9.450  0.00  0.00    +0.000 NA
ENDBRANCH  10  11
BRANCH  10  18
ATOM     18  N   UNL     1      41.809   6.022  11.758  0.00  0.00    +0.000 NA
ATOM     19  H   UNL     1      41.329   5.290  11.233  0.00  0.00    +0.000 HD
ATOM     20  H   UNL     1      41.228   6.847  11.636  0.00  0.00    +0.000 HD
ENDBRANCH  10  18
ENDBRANCH   8  10
ENDBRANCH   7   8
ENDBRANCH   1   7
BRANCH   4  21
ATOM     21  C   UNL     1      49.733   7.354  14.407  0.00  0.00    +0.000 C 
BRANCH  21  22
ATOM     22  N   UNL     1      49.445   7.179  15.812  0.00  0.00    +0.000 N 
ATOM     23  C   UNL     1      48.829   6.064  16.304  0.00  0.00    +0.000 C 
ATOM     24  O   UNL     1      48.490   5.134  15.578  0.00  0.00    +0.000 OA
ATOM     25  H   UNL     1      49.512   8.020  16.380  0.00  0.00    +0.000 HD
BRANCH  23  26
ATOM     26  C   UNL     1      48.658   5.991  17.766  0.00  0.00    +0.000 A 
ATOM     27  C   UNL     1      48.928   4.802  18.426  0.00  0.00    +0.000 A 
ATOM     28  S   UNL     1      48.725   4.895  20.115  0.00  0.00    +0.000 S 
ATOM     29  C   UNL     1      48.228   6.519  20.020  0.00  0.00    +0.000 A 
ATOM     30  N   UNL     1      47.874   7.207  21.139  0.00  0.00    +0.000 NA
ATOM     31  C   UNL     1      47.486   8.420  20.920  0.00  0.00    +0.000 A 
ATOM     32  N   UNL     1      47.428   9.007  19.683  0.00  0.00    +0.000 N 
ATOM     33  C   UNL     1      47.826   8.369  18.534  0.00  0.00    +0.000 A 
ATOM     34  O   UNL     1      47.839   8.952  17.455  0.00  0.00    +0.000 OA
ATOM     35  C   UNL     1      48.239   6.991  18.720  0.00  0.00    +0.000 A 
ATOM     36  H   UNL     1      47.135   9.968  19.579  0.00  0.00    +0.000 HD
ENDBRANCH  23  26
ENDBRANCH  21  22
ENDBRANCH   4  21
TORSDOF 8
ENDMDL
MODEL 9
REMARK VINA RESULT:    -6.564      1.655      2.076
REMARK INTER + INTRA:         -10.343
REMARK INTER:                 -10.313
REMARK INTRA:                  -0.030
REMARK UNBOUND:                -0.901
REMARK  Name = 
REMARK  8 active torsions:
REMARK  status: ('A' for Active; 'I' for Inactive)
REMARK    1  A    between atoms: N_1  and  C_2
REMARK    2  A    between atoms: C_2  and  N_3
REMARK    3  A    between atoms: C_2  and  C_25
REMARK    4  A    between atoms: N_3  and  C_4
REMARK    5  A    between atoms: C_4  and  C_5
REMARK    6  A    between atoms: C_8  and  C_9
REMARK    7  A    between atoms: C_9  and  N_10
REMARK    8  A    between atoms: C_11  and  C_13
REMARK                            x       y       z     vdW  Elec       q    Type
REMARK                         _______ _______ _______ _____ _____    ______ ____
ROOT
ATOM      1  C   UNL     1      45.592   4.111  12.256  0.00  0.00    +0.000 A 
ATOM      2  C   UNL     1      45.214   5.420  11.939  0.00  0.00    +0.000 A 
ATOM      3  C   UNL     1      45.906   6.497  12.488  0.00  0.00    +0.000 A 
ATOM      4  C   UNL     1      46.961   6.246  13.360  0.00  0.00    +0.000 A 
ATOM      5  N   UNL     1      47.365   4.987  13.666  0.00  0.00    +0.000 NA
ATOM      6  C   UNL     1      46.684   3.963  13.107  0.00  0.00    +0.000 A 
ENDROOT
BRANCH   1   7
ATOM      7  C   UNL     1      44.887   2.920  11.667  0.00  0.00    +0.000 C 
BRANCH   7   8
ATOM      8  N   UNL     1      44.026   3.298  10.539  0.00  0.00    +0.000 NA
ATOM      9  H   UNL     1      43.663   2.437  10.132  0.00  0.00    +0.000 HD
BRANCH   8  10
ATOM     10  C   UNL     1      44.781   3.938   9.475  0.00  0.00    +0.000 C 
BRANCH  10  11
ATOM     11  C   UNL     1      45.485   2.969   8.521  0.00  0.00    +0.000 A 
ATOM     12  C   UNL     1      45.604   1.624   8.872  0.00  0.00    +0.000 A 
ATOM     13  C   UNL     1      46.300   0.764   8.027  0.00  0.00    +0.000 A 
ATOM     14  C   UNL     1      46.861   1.266   6.859  0.00  0.00    +0.000 A 
ATOM     15  C   UNL     1      46.700   2.616   6.591  0.00  0.00    +0.000 A 
ATOM     16 CL   UNL     1      47.356   3.315   5.169  0.00  0.00    +0.000 Cl
ATOM     17  N   UNL     1      46.035   3.481   7.383  0.00  0.00    +0.000 NA
ENDBRANCH  10  11
BRANCH  10  18
ATOM     18  N   UNL     1      43.756   4.683   8.776  0.00  0.00    +0.000 NA
ATOM     19  H   UNL     1      44.194   5.560   8.495  0.00  0.00    +0.000 HD
ATOM     20  H   UNL     1      43.062   4.954   9.469  0.00  0.00    +0.000 HD
ENDBRANCH  10  18
ENDBRANCH   8  10
ENDBRANCH   7   8
ENDBRANCH   1   7
BRANCH   4  21
ATOM     21  C   UNL     1      47.719   7.384  13.996  0.00  0.00    +0.000 C 
BRANCH  21  22
ATOM     22  N   UNL     1      48.982   6.949  14.548  0.00  0.00    +0.000 N 
ATOM     23  C   UNL     1      49.381   7.271  15.814  0.00  0.00    +0.000 C 
ATOM     24  O   UNL     1      48.682   7.943  16.566  0.00  0.00    +0.000 OA
ATOM     25  H   UNL     1      49.655   6.593  13.873  0.00  0.00    +0.000 HD
BRANCH  23  26
ATOM     26  C   UNL     1      50.664   6.705  16.268  0.00  0.00    +0.000 A 
ATOM     27  C   UNL     1      51.844   7.373  15.977  0.00  0.00    +0.000 A 
ATOM     28  S   UNL     1      53.233   6.615  16.609  0.00  0.00    +0.000 S 
ATOM     29  C   UNL     1      52.309   5.344  17.260  0.00  0.00    +0.000 A 
ATOM     30  N   UNL     1      52.905   4.318  17.926  0.00  0.00    +0.000 NA
ATOM     31  C   UNL     1      52.090   3.405  18.339  0.00  0.00    +0.000 A 
ATOM     32  N   UNL     1      50.733   3.429  18.151  0.00  0.00    +0.000 N 
ATOM     33  C   UNL     1      50.083   4.469  17.531  0.00  0.00    +0.000 A 
ATOM     34  O   UNL     1      48.860   4.498  17.454  0.00  0.00    +0.000 OA
ATOM     35  C   UNL     1      50.957   5.507  17.018  0.00  0.00    +0.000 A 
ATOM     36  H   UNL     1      50.146   2.693  18.516  0.00  0.00    +0.000 HD
ENDBRANCH  23  26
ENDBRANCH  21  22
ENDBRANCH   4  21
TORSDOF 8
ENDMDL
