MODEL 1
REMARK VINA RESULT:    -8.254      0.000      0.000
REMARK INTER + INTRA:         -11.649
REMARK INTER:                 -11.149
REMARK INTRA:                  -0.500
REMARK UNBOUND:                -0.500
REMARK  Name = 
REMARK  8 active torsions:
REMARK  status: ('A' for Active; 'I' for Inactive)
REMARK    1  A    between atoms: C_1  and  O_2
REMARK    2  A    between atoms: O_2  and  C_3
REMARK    3  A    between atoms: C_5  and  C_6
REMARK    4  A    between atoms: C_11  and  N_12
REMARK    5  A    between atoms: N_12  and  C_13
REMARK    6  A    between atoms: C_13  and  C_14
REMARK    7  A    between atoms: C_18  and  N_19
REMARK    8  A    between atoms: N_22  and  C_23
REMARK                            x       y       z     vdW  Elec       q    Type
REMARK                         _______ _______ _______ _____ _____    ______ ____
ROOT
ATOM      1  N   UNL     1      43.807   5.523  10.252  0.00  0.00    +0.000 N 
ATOM      2  H   UNL     1      43.989   6.394   9.764  0.00  0.00    +0.000 HD
ENDROOT
BRANCH   1   8
ATOM      3  C   UNL     1      44.298   3.077   9.980  0.00  0.00    +0.000 A 
ATOM      4  C   UNL     1      45.048   2.085   9.331  0.00  0.00    +0.000 A 
ATOM      5  C   UNL     1      46.027   2.415   8.385  0.00  0.00    +0.000 A 
ATOM      6  C   UNL     1      46.230   3.756   8.063  0.00  0.00    +0.000 A 
ATOM      7  C   UNL     1      45.480   4.750   8.706  0.00  0.00    +0.000 A 
ATOM      8  C   UNL     1      44.531   4.444   9.701  0.00  0.00    +0.000 A 
BRANCH   5   9
ATOM      9  C   UNL     1      46.771   1.286   7.748  0.00  0.00    +0.000 C 
ATOM     10  N   UNL     1      47.800   1.571   6.891  0.00  0.00    +0.000 N 
ATOM     11  O   UNL     1      46.482   0.115   7.977  0.00  0.00    +0.000 OA
ATOM     12  H   UNL     1      48.096   2.494   6.620  0.00  0.00    +0.000 HD
ATOM     13  H   UNL     1      48.275   0.779   6.473  0.00  0.00    +0.000 HD
ENDBRANCH   5   9
BRANCH   3  15
ATOM     14  C   UNL     1      43.613   2.403  12.166  0.00  0.00    +0.000 C 
ATOM     15  O   UNL     1      43.272   2.764  10.834  0.00  0.00    +0.000 OA
ENDBRANCH   3  15
ENDBRANCH   1   8
BRANCH   1  16
ATOM     16  C   UNL     1      43.852   5.725  11.699  0.00  0.00    +0.000 C 
BRANCH  16  17
ATOM     17  C   UNL     1      45.270   6.023  12.137  0.00  0.00    +0.000 A 
ATOM     18  C   UNL     1      46.105   6.851  11.380  0.00  0.00    +0.000 A 
ATOM     19  C   UNL     1      47.414   7.080  11.795  0.00  0.00    +0.000 A 
ATOM     20  C   UNL     1      47.890   6.497  12.974  0.00  0.00    +0.000 A 
ATOM     21  C   UNL     1      47.072   5.693  13.781  0.00  0.00    +0.000 A 
ATOM     22  C   UNL     1      45.763   5.467  13.334  0.00  0.00    +0.000 A 
BRANCH  21  23
ATOM     23  N   UNL     1      47.544   5.239  15.002  0.00  0.00    +0.000 N 
ATOM     24  C   UNL     1      47.506   3.807  15.329  0.00  0.00    +0.000 C 
ATOM     25  C   UNL     1      47.400   3.649  16.863  0.00  0.00    +0.000 C 
ATOM     26  N   UNL     1      48.507   4.314  17.591  0.00  0.00    +0.000 NA
ATOM     27  C   UNL     1      48.301   4.195  19.034  0.00  0.00    +0.000 C 
ATOM     28  C   UNL     1      48.574   5.742  17.190  0.00  0.00    +0.000 C 
ATOM     29  C   UNL     1      48.659   5.949  15.656  0.00  0.00    +0.000 C 
ENDBRANCH  21  23
ENDBRANCH  16  17
ENDBRANCH   1  16
TORSDOF 6
ENDMDL
MODEL 2
REMARK VINA RESULT:    -7.528      2.178      3.430
REMARK INTER + INTRA:         -10.668
REMARK INTER:                 -10.504
REMARK INTRA:                  -0.164
REMARK UNBOUND:                -0.500
REMARK  Name = 
REMARK  8 active torsions:
REMARK  status: ('A' for Active; 'I' for Inactive)
REMARK    1  A    between atoms: C_1  and  O_2
REMARK    2  A    between atoms: O_2  and  C_3
REMARK    3  A    between atoms: C_5  and  C_6
REMARK    4  A    between atoms: C_11  and  N_12
REMARK    5  A    between atoms: N_12  and  C_13
REMARK    6  A    between atoms: C_13  and  C_14
REMARK    7  A    between atoms: C_18  and  N_19
REMARK    8  A    between atoms: N_22  and  C_23
REMARK                            x       y       z     vdW  Elec       q    Type
REMARK                         _______ _______ _______ _____ _____    ______ ____
ROOT
ATOM      1  N   UNL     1      43.960   5.000  10.299  0.00  0.00    +0.000 N 
ATOM      2  H   UNL     1      43.048   5.127   9.872  0.00  0.00    +0.000 HD
ENDROOT
BRANCH   1   8
ATOM      3  C   UNL     1      44.703   2.737   9.509  0.00  0.00    +0.000 A 
ATOM      4  C   UNL     1      45.549   1.994   8.671  0.00  0.00    +0.000 A 
ATOM      5  C   UNL     1      46.481   2.623   7.836  0.00  0.00    +0.000 A 
ATOM      6  C   UNL     1      46.539   4.016   7.817  0.00  0.00    +0.000 A 
ATOM      7  C   UNL     1      45.694   4.762   8.649  0.00  0.00    +0.000 A 
ATOM      8  C   UNL     1      44.789   4.149   9.538  0.00  0.00    +0.000 A 
BRANCH   5   9
ATOM      9  C   UNL     1      47.334   1.744   6.980  0.00  0.00    +0.000 C 
ATOM     10  N   UNL     1      48.355   2.308   6.263  0.00  0.00    +0.000 N 
ATOM     11  O   UNL     1      47.142   0.534   6.908  0.00  0.00    +0.000 OA
ATOM     12  H   UNL     1      48.577   3.289   6.235  0.00  0.00    +0.000 HD
ATOM     13  H   UNL     1      48.906   1.681   5.688  0.00  0.00    +0.000 HD
ENDBRANCH   5   9
BRANCH   3  15
ATOM     14  C   UNL     1      43.682   2.442  11.646  0.00  0.00    +0.000 C 
ATOM     15  O   UNL     1      43.722   2.140  10.258  0.00  0.00    +0.000 OA
ENDBRANCH   3  15
ENDBRANCH   1   8
BRANCH   1  16
ATOM     16  C   UNL     1      44.501   6.283  10.745  0.00  0.00    +0.000 C 
BRANCH  16  17
ATOM     17  C   UNL     1      45.542   6.061  11.822  0.00  0.00    +0.000 A 
ATOM     18  C   UNL     1      45.349   5.117  12.834  0.00  0.00    +0.000 A 
ATOM     19  C   UNL     1      46.312   4.960  13.828  0.00  0.00    +0.000 A 
ATOM     20  C   UNL     1      47.477   5.733  13.806  0.00  0.00    +0.000 A 
ATOM     21  C   UNL     1      47.726   6.663  12.786  0.00  0.00    +0.000 A 
ATOM     22  C   UNL     1      46.734   6.811  11.806  0.00  0.00    +0.000 A 
BRANCH  21  23
ATOM     23  N   UNL     1      48.947   7.316  12.733  0.00  0.00    +0.000 N 
ATOM     24  C   UNL     1      49.407   7.933  11.481  0.00  0.00    +0.000 C 
ATOM     25  C   UNL     1      50.952   7.944  11.469  0.00  0.00    +0.000 C 
ATOM     26  N   UNL     1      51.534   8.650  12.635  0.00  0.00    +0.000 NA
ATOM     27  C   UNL     1      52.993   8.552  12.604  0.00  0.00    +0.000 C 
ATOM     28  C   UNL     1      50.999   8.060  13.888  0.00  0.00    +0.000 C 
ATOM     29  C   UNL     1      49.450   8.008  13.933  0.00  0.00    +0.000 C 
ENDBRANCH  21  23
ENDBRANCH  16  17
ENDBRANCH   1  16
TORSDOF 6
ENDMDL
MODEL 3
REMARK VINA RESULT:    -7.243      3.195      7.630
REMARK INTER + INTRA:         -10.283
REMARK INTER:                  -9.511
REMARK INTRA:                  -0.772
REMARK UNBOUND:                -0.500
REMARK  Name = 
REMARK  8 active torsions:
REMARK  status: ('A' for Active; 'I' for Inactive)
REMARK    1  A    between atoms: C_1  and  O_2
REMARK    2  A    between atoms: O_2  and  C_3
REMARK    3  A    between atoms: C_5  and  C_6
REMARK    4  A    between atoms: C_11  and  N_12
REMARK    5  A    between atoms: N_12  and  C_13
REMARK    6  A    between atoms: C_13  and  C_14
REMARK    7  A    between atoms: C_18  and  N_19
REMARK    8  A    between atoms: N_22  and  C_23
REMARK                            x       y       z     vdW  Elec       q    Type
REMARK                         _______ _______ _______ _____ _____    ______ ____
ROOT
ATOM      1  N   UNL     1      46.191   5.938  13.712  0.00  0.00    +0.000 N 
ATOM      2  H   UNL     1      46.366   4.945  13.833  0.00  0.00    +0.000 HD
ENDROOT
BRANCH   1   8
ATOM      3  C   UNL     1      48.532   6.742  14.132  0.00  0.00    +0.000 A 
ATOM      4  C   UNL     1      49.654   7.426  13.643  0.00  0.00    +0.000 A 
ATOM      5  C   UNL     1      49.653   8.008  12.370  0.00  0.00    +0.000 A 
ATOM      6  C   UNL     1      48.523   7.872  11.565  0.00  0.00    +0.000 A 
ATOM      7  C   UNL     1      47.400   7.186  12.048  0.00  0.00    +0.000 A 
ATOM      8  C   UNL     1      47.359   6.641  13.347  0.00  0.00    +0.000 A 
BRANCH   5   9
ATOM      9  C   UNL     1      50.899   8.713  11.939  0.00  0.00    +0.000 C 
ATOM     10  N   UNL     1      51.314   9.813  12.640  0.00  0.00    +0.000 N 
ATOM     11  O   UNL     1      51.555   8.327  10.976  0.00  0.00    +0.000 OA
ATOM     12  H   UNL     1      50.833  10.221  13.425  0.00  0.00    +0.000 HD
ATOM     13  H   UNL     1      52.158  10.269  12.312  0.00  0.00    +0.000 HD
ENDBRANCH   5   9
BRANCH   3  15
ATOM     14  C   UNL     1      49.554   6.463  16.272  0.00  0.00    +0.000 C 
ATOM     15  O   UNL     1      48.553   6.085  15.336  0.00  0.00    +0.000 OA
ENDBRANCH   3  15
ENDBRANCH   1   8
BRANCH   1  16
ATOM     16  C   UNL     1      44.975   6.154  12.930  0.00  0.00    +0.000 C 
BRANCH  16  17
ATOM     17  C   UNL     1      44.578   4.876  12.222  0.00  0.00    +0.000 A 
ATOM     18  C   UNL     1      43.572   4.049  12.728  0.00  0.00    +0.000 A 
ATOM     19  C   UNL     1      43.252   2.864  12.070  0.00  0.00    +0.000 A 
ATOM     20  C   UNL     1      43.926   2.509  10.897  0.00  0.00    +0.000 A 
ATOM     21  C   UNL     1      44.914   3.331  10.336  0.00  0.00    +0.000 A 
ATOM     22  C   UNL     1      45.226   4.510  11.025  0.00  0.00    +0.000 A 
BRANCH  21  23
ATOM     23  N   UNL     1      45.465   3.003   9.107  0.00  0.00    +0.000 N 
ATOM     24  C   UNL     1      45.532   1.601   8.672  0.00  0.00    +0.000 C 
ATOM     25  C   UNL     1      46.733   1.434   7.713  0.00  0.00    +0.000 C 
ATOM     26  N   UNL     1      46.662   2.334   6.537  0.00  0.00    +0.000 NA
ATOM     27  C   UNL     1      47.863   2.184   5.717  0.00  0.00    +0.000 C 
ATOM     28  C   UNL     1      46.520   3.738   6.998  0.00  0.00    +0.000 C 
ATOM     29  C   UNL     1      45.340   3.948   7.983  0.00  0.00    +0.000 C 
ENDBRANCH  21  23
ENDBRANCH  16  17
ENDBRANCH   1  16
TORSDOF 6
ENDMDL
MODEL 4
REMARK VINA RESULT:    -7.235      2.089      2.656
REMARK INTER + INTRA:         -10.273
REMARK INTER:                  -9.504
REMARK INTRA:                  -0.769
REMARK UNBOUND:                -0.500
REMARK  Name = 
REMARK  8 active torsions:
REMARK  status: ('A' for Active; 'I' for Inactive)
REMARK    1  A    between atoms: C_1  and  O_2
REMARK    2  A    between atoms: O_2  and  C_3
REMARK    3  A    between atoms: C_5  and  C_6
REMARK    4  A    between atoms: C_11  and  N_12
REMARK    5  A    between atoms: N_12  and  C_13
REMARK    6  A    between atoms: C_13  and  C_14
REMARK    7  A    between atoms: C_18  and  N_19
REMARK    8  A    between atoms: N_22  and  C_23
REMARK                            x       y       z     vdW  Elec       q    Type
REMARK                         _______ _______ _______ _____ _____    ______ ____
ROOT
ATOM      1  N   UNL     1      43.893   5.778  10.730  0.00  0.00    +0.000 N 
ATOM      2  H   UNL     1      43.932   6.649  10.210  0.00  0.00    +0.000 HD
ENDROOT
BRANCH   1   8
ATOM      3  C   UNL     1      44.181   3.348  10.171  0.00  0.00    +0.000 A 
ATOM      4  C   UNL     1      44.832   2.382   9.388  0.00  0.00    +0.000 A 
ATOM      5  C   UNL     1      45.804   2.743   8.448  0.00  0.00    +0.000 A 
ATOM      6  C   UNL     1      46.103   4.093   8.268  0.00  0.00    +0.000 A 
ATOM      7  C   UNL     1      45.454   5.061   9.045  0.00  0.00    +0.000 A 
ATOM      8  C   UNL     1      44.513   4.717  10.036  0.00  0.00    +0.000 A 
BRANCH   5   9
ATOM      9  C   UNL     1      46.437   1.640   7.662  0.00  0.00    +0.000 C 
ATOM     10  N   UNL     1      47.039   1.939   6.469  0.00  0.00    +0.000 N 
ATOM     11  O   UNL     1      46.431   0.480   8.062  0.00  0.00    +0.000 OA
ATOM     12  H   UNL     1      47.074   2.851   6.044  0.00  0.00    +0.000 HD
ATOM     13  H   UNL     1      47.449   1.164   5.961  0.00  0.00    +0.000 HD
ENDBRANCH   5   9
BRANCH   3  15
ATOM     14  C   UNL     1      43.513   2.519  12.308  0.00  0.00    +0.000 C 
ATOM     15  O   UNL     1      43.160   3.019  11.025  0.00  0.00    +0.000 OA
ENDBRANCH   3  15
ENDBRANCH   1   8
BRANCH   1  16
ATOM     16  C   UNL     1      44.253   5.999  12.130  0.00  0.00    +0.000 C 
BRANCH  16  17
ATOM     17  C   UNL     1      45.224   7.156  12.240  0.00  0.00    +0.000 A 
ATOM     18  C   UNL     1      44.881   8.435  11.795  0.00  0.00    +0.000 A 
ATOM     19  C   UNL     1      45.808   9.471  11.882  0.00  0.00    +0.000 A 
ATOM     20  C   UNL     1      47.074   9.236  12.428  0.00  0.00    +0.000 A 
ATOM     21  C   UNL     1      47.442   7.976  12.922  0.00  0.00    +0.000 A 
ATOM     22  C   UNL     1      46.496   6.948  12.809  0.00  0.00    +0.000 A 
BRANCH  21  23
ATOM     23  N   UNL     1      48.658   7.819  13.568  0.00  0.00    +0.000 N 
ATOM     24  C   UNL     1      48.764   6.958  14.754  0.00  0.00    +0.000 C 
ATOM     25  C   UNL     1      49.917   7.476  15.644  0.00  0.00    +0.000 C 
ATOM     26  N   UNL     1      51.216   7.533  14.932  0.00  0.00    +0.000 NA
ATOM     27  C   UNL     1      52.240   8.106  15.804  0.00  0.00    +0.000 C 
ATOM     28  C   UNL     1      51.068   8.345  13.699  0.00  0.00    +0.000 C 
ATOM     29  C   UNL     1      49.906   7.874  12.785  0.00  0.00    +0.000 C 
ENDBRANCH  21  23
ENDBRANCH  16  17
ENDBRANCH   1  16
TORSDOF 6
ENDMDL
MODEL 5
REMARK VINA RESULT:    -7.114      3.001      7.899
REMARK INTER + INTRA:         -10.109
REMARK INTER:                  -9.271
REMARK INTRA:                  -0.838
REMARK UNBOUND:                -0.500
REMARK  Name = 
REMARK  8 active torsions:
REMARK  status: ('A' for Active; 'I' for Inactive)
REMARK    1  A    between atoms: C_1  and  O_2
REMARK    2  A    between atoms: O_2  and  C_3
REMARK    3  A    between atoms: C_5  and  C_6
REMARK    4  A    between atoms: C_11  and  N_12
REMARK    5  A    between atoms: N_12  and  C_13
REMARK    6  A    between atoms: C_13  and  C_14
REMARK    7  A    between atoms: C_18  and  N_19
REMARK    8  A    between atoms: N_22  and  C_23
REMARK                            x       y       z     vdW  Elec       q    Type
REMARK                         _______ _______ _______ _____ _____    ______ ____
ROOT
ATOM      1  N   UNL     1      47.314   6.551  13.002  0.00  0.00    +0.000 N 
ATOM      2  H   UNL     1      48.021   7.204  12.681  0.00  0.00    +0.000 HD
ENDROOT
BRANCH   1   8
ATOM      3  C   UNL     1      48.475   6.538  15.227  0.00  0.00    +0.000 A 
ATOM      4  C   UNL     1      48.718   5.861  16.432  0.00  0.00    +0.000 A 
ATOM      5  C   UNL     1      48.160   4.602  16.685  0.00  0.00    +0.000 A 
ATOM      6  C   UNL     1      47.320   4.031  15.729  0.00  0.00    +0.000 A 
ATOM      7  C   UNL     1      47.071   4.705  14.526  0.00  0.00    +0.000 A 
ATOM      8  C   UNL     1      47.667   5.946  14.227  0.00  0.00    +0.000 A 
BRANCH   5   9
ATOM      9  C   UNL     1      48.476   3.964  17.999  0.00  0.00    +0.000 C 
ATOM     10  N   UNL     1      47.614   3.030  18.506  0.00  0.00    +0.000 N 
ATOM     11  O   UNL     1      49.489   4.257  18.628  0.00  0.00    +0.000 OA
ATOM     12  H   UNL     1      46.749   2.742  18.081  0.00  0.00    +0.000 HD
ATOM     13  H   UNL     1      47.859   2.626  19.403  0.00  0.00    +0.000 HD
ENDBRANCH   5   9
BRANCH   3  15
ATOM     14  C   UNL     1      48.295   8.870  15.706  0.00  0.00    +0.000 C 
ATOM     15  O   UNL     1      48.935   7.811  15.008  0.00  0.00    +0.000 OA
ENDBRANCH   3  15
ENDBRANCH   1   8
BRANCH   1  16
ATOM     16  C   UNL     1      45.979   7.133  12.873  0.00  0.00    +0.000 C 
BRANCH  16  17
ATOM     17  C   UNL     1      45.073   6.192  12.107  0.00  0.00    +0.000 A 
ATOM     18  C   UNL     1      43.702   6.129  12.373  0.00  0.00    +0.000 A 
ATOM     19  C   UNL     1      42.902   5.229  11.672  0.00  0.00    +0.000 A 
ATOM     20  C   UNL     1      43.464   4.403  10.695  0.00  0.00    +0.000 A 
ATOM     21  C   UNL     1      44.828   4.464  10.372  0.00  0.00    +0.000 A 
ATOM     22  C   UNL     1      45.613   5.367  11.101  0.00  0.00    +0.000 A 
BRANCH  21  23
ATOM     23  N   UNL     1      45.318   3.719   9.312  0.00  0.00    +0.000 N 
ATOM     24  C   UNL     1      44.877   2.331   9.111  0.00  0.00    +0.000 C 
ATOM     25  C   UNL     1      46.000   1.550   8.392  0.00  0.00    +0.000 C 
ATOM     26  N   UNL     1      46.390   2.158   7.098  0.00  0.00    +0.000 NA
ATOM     27  C   UNL     1      47.508   1.419   6.514  0.00  0.00    +0.000 C 
ATOM     28  C   UNL     1      46.761   3.580   7.312  0.00  0.00    +0.000 C 
ATOM     29  C   UNL     1      45.671   4.397   8.052  0.00  0.00    +0.000 C 
ENDBRANCH  21  23
ENDBRANCH  16  17
ENDBRANCH   1  16
TORSDOF 6
ENDMDL
MODEL 6
REMARK VINA RESULT:    -6.887      2.972      7.879
REMARK INTER + INTRA:          -9.803
REMARK INTER:                  -8.773
REMARK INTRA:                  -1.030
REMARK UNBOUND:                -0.500
REMARK  Name = 
REMARK  8 active torsions:
REMARK  status: ('A' for Active; 'I' for Inactive)
REMARK    1  A    between atoms: C_1  and  O_2
REMARK    2  A    between atoms: O_2  and  C_3
REMARK    3  A    between atoms: C_5  and  C_6
REMARK    4  A    between atoms: C_11  and  N_12
REMARK    5  A    between atoms: N_12  and  C_13
REMARK    6  A    between atoms: C_13  and  C_14
REMARK    7  A    between atoms: C_18  and  N_19
REMARK    8  A    between atoms: N_22  and  C_23
REMARK                            x       y       z     vdW  Elec       q    Type
REMARK                         _______ _______ _______ _____ _____    ______ ____
ROOT
ATOM      1  N   UNL     1      46.646   7.654  12.283  0.00  0.00    +0.000 N 
ATOM      2  H   UNL     1      46.995   8.401  11.692  0.00  0.00    +0.000 HD
ENDROOT
BRANCH   1   8
ATOM      3  C   UNL     1      47.892   6.392  14.060  0.00  0.00    +0.000 A 
ATOM      4  C   UNL     1      48.615   6.442  15.261  0.00  0.00    +0.000 A 
ATOM      5  C   UNL     1      48.832   7.653  15.930  0.00  0.00    +0.000 A 
ATOM      6  C   UNL     1      48.344   8.832  15.368  0.00  0.00    +0.000 A 
ATOM      7  C   UNL     1      47.624   8.788  14.167  0.00  0.00    +0.000 A 
ATOM      8  C   UNL     1      47.346   7.574  13.506  0.00  0.00    +0.000 A 
BRANCH   5   9
ATOM      9  C   UNL     1      49.617   7.602  17.201  0.00  0.00    +0.000 C 
ATOM     10  N   UNL     1      49.173   8.314  18.283  0.00  0.00    +0.000 N 
ATOM     11  O   UNL     1      50.644   6.936  17.295  0.00  0.00    +0.000 OA
ATOM     12  H   UNL     1      48.360   8.907  18.298  0.00  0.00    +0.000 HD
ATOM     13  H   UNL     1      49.737   8.260  19.123  0.00  0.00    +0.000 HD
ENDBRANCH   5   9
BRANCH   3  15
ATOM     14  C   UNL     1      46.916   4.220  13.889  0.00  0.00    +0.000 C 
ATOM     15  O   UNL     1      47.756   5.229  13.346  0.00  0.00    +0.000 OA
ENDBRANCH   3  15
ENDBRANCH   1   8
BRANCH   1  16
ATOM     16  C   UNL     1      45.185   7.664  12.317  0.00  0.00    +0.000 C 
BRANCH  16  17
ATOM     17  C   UNL     1      44.647   6.300  11.939  0.00  0.00    +0.000 A 
ATOM     18  C   UNL     1      43.566   5.734  12.620  0.00  0.00    +0.000 A 
ATOM     19  C   UNL     1      43.115   4.463  12.268  0.00  0.00    +0.000 A 
ATOM     20  C   UNL     1      43.731   3.763  11.227  0.00  0.00    +0.000 A 
ATOM     21  C   UNL     1      44.793   4.313  10.494  0.00  0.00    +0.000 A 
ATOM     22  C   UNL     1      45.236   5.586  10.878  0.00  0.00    +0.000 A 
BRANCH  21  23
ATOM     23  N   UNL     1      45.291   3.638   9.391  0.00  0.00    +0.000 N 
ATOM     24  C   UNL     1      44.880   2.254   9.119  0.00  0.00    +0.000 C 
ATOM     25  C   UNL     1      46.015   1.540   8.350  0.00  0.00    +0.000 C 
ATOM     26  N   UNL     1      46.378   2.226   7.087  0.00  0.00    +0.000 NA
ATOM     27  C   UNL     1      47.508   1.547   6.454  0.00  0.00    +0.000 C 
ATOM     28  C   UNL     1      46.718   3.643   7.375  0.00  0.00    +0.000 C 
ATOM     29  C   UNL     1      45.615   4.393   8.167  0.00  0.00    +0.000 C 
ENDBRANCH  21  23
ENDBRANCH  16  17
ENDBRANCH   1  16
TORSDOF 6
ENDMDL
MODEL 7
REMARK VINA RESULT:    -6.836      3.724      7.721
REMARK INTER + INTRA:          -9.733
REMARK INTER:                  -8.805
REMARK INTRA:                  -0.928
REMARK UNBOUND:                -0.500
REMARK  Name = 
REMARK  8 active torsions:
REMARK  status: ('A' for Active; 'I' for Inactive)
REMARK    1  A    between atoms: C_1  and  O_2
REMARK    2  A    between atoms: O_2  and  C_3
REMARK    3  A    between atoms: C_5  and  C_6
REMARK    4  A    between atoms: C_11  and  N_12
REMARK    5  A    between atoms: N_12  and  C_13
REMARK    6  A    between atoms: C_13  and  C_14
REMARK    7  A    between atoms: C_18  and  N_19
REMARK    8  A    between atoms: N_22  and  C_23
REMARK                            x       y       z     vdW  Elec       q    Type
REMARK                         _______ _______ _______ _____ _____    ______ ____
ROOT
ATOM      1  N   UNL     1      49.371   6.292  17.160  0.00  0.00    +0.000 N 
ATOM      2  H   UNL     1      48.386   6.165  16.950  0.00  0.00    +0.000 HD
ENDROOT
BRANCH   1   8
ATOM      3  C   UNL     1      49.448   3.783  17.195  0.00  0.00    +0.000 A 
ATOM      4  C   UNL     1      50.226   2.624  17.336  0.00  0.00    +0.000 A 
ATOM      5  C   UNL     1      51.600   2.697  17.592  0.00  0.00    +0.000 A 
ATOM      6  C   UNL     1      52.206   3.950  17.675  0.00  0.00    +0.000 A 
ATOM      7  C   UNL     1      51.434   5.111  17.532  0.00  0.00    +0.000 A 
ATOM      8  C   UNL     1      50.040   5.061  17.330  0.00  0.00    +0.000 A 
BRANCH   5   9
ATOM      9  C   UNL     1      52.342   1.406  17.723  0.00  0.00    +0.000 C 
ATOM     10  N   UNL     1      51.654   0.282  18.092  0.00  0.00    +0.000 N 
ATOM     11  O   UNL     1      53.547   1.333  17.505  0.00  0.00    +0.000 OA
ATOM     12  H   UNL     1      50.673   0.244  18.317  0.00  0.00    +0.000 HD
ATOM     13  H   UNL     1      52.193  -0.572  18.178  0.00  0.00    +0.000 HD
ENDBRANCH   5   9
BRANCH   3  15
ATOM     14  C   UNL     1      47.280   2.874  17.612  0.00  0.00    +0.000 C 
ATOM     15  O   UNL     1      48.122   3.726  16.848  0.00  0.00    +0.000 OA
ENDBRANCH   3  15
ENDBRANCH   1   8
BRANCH   1  16
ATOM     16  C   UNL     1      49.962   7.288  16.268  0.00  0.00    +0.000 C 
BRANCH  16  17
ATOM     17  C   UNL     1      49.389   7.142  14.873  0.00  0.00    +0.000 A 
ATOM     18  C   UNL     1      50.002   7.744  13.771  0.00  0.00    +0.000 A 
ATOM     19  C   UNL     1      49.432   7.617  12.507  0.00  0.00    +0.000 A 
ATOM     20  C   UNL     1      48.258   6.875  12.337  0.00  0.00    +0.000 A 
ATOM     21  C   UNL     1      47.636   6.223  13.411  0.00  0.00    +0.000 A 
ATOM     22  C   UNL     1      48.222   6.379  14.675  0.00  0.00    +0.000 A 
BRANCH  21  23
ATOM     23  N   UNL     1      46.548   5.397  13.177  0.00  0.00    +0.000 N 
ATOM     24  C   UNL     1      46.574   3.993  13.611  0.00  0.00    +0.000 C 
ATOM     25  C   UNL     1      45.660   3.167  12.678  0.00  0.00    +0.000 C 
ATOM     26  N   UNL     1      44.265   3.669  12.642  0.00  0.00    +0.000 NA
ATOM     27  C   UNL     1      43.479   2.896  11.682  0.00  0.00    +0.000 C 
ATOM     28  C   UNL     1      44.267   5.107  12.275  0.00  0.00    +0.000 C 
ATOM     29  C   UNL     1      45.190   5.972  13.172  0.00  0.00    +0.000 C 
ENDBRANCH  21  23
ENDBRANCH  16  17
ENDBRANCH   1  16
TORSDOF 6
ENDMDL
MODEL 8
REMARK VINA RESULT:    -6.572      2.081      3.029
REMARK INTER + INTRA:          -9.378
REMARK INTER:                  -8.233
REMARK INTRA:                  -1.145
REMARK UNBOUND:                -0.500
REMARK  Name = 
REMARK  8 active torsions:
REMARK  status: ('A' for Active; 'I' for Inactive)
REMARK    1  A    between atoms: C_1  and  O_2
REMARK    2  A    between atoms: O_2  and  C_3
REMARK    3  A    between atoms: C_5  and  C_6
REMARK    4  A    between atoms: C_11  and  N_12
REMARK    5  A    between atoms: N_12  and  C_13
REMARK    6  A    between atoms: C_13  and  C_14
REMARK    7  A    between atoms: C_18  and  N_19
REMARK    8  A    between atoms: N_22  and  C_23
REMARK                            x       y       z     vdW  Elec       q    Type
REMARK                         _______ _______ _______ _____ _____    ______ ____
ROOT
ATOM      1  N   UNL     1      44.802   6.780  13.131  0.00  0.00    +0.000 N 
ATOM      2  H   UNL     1      43.855   6.970  13.442  0.00  0.00    +0.000 HD
ENDROOT
BRANCH   1   8
ATOM      3  C   UNL     1      45.321   4.380  12.609  0.00  0.00    +0.000 A 
ATOM      4  C   UNL     1      45.285   3.338  11.670  0.00  0.00    +0.000 A 
ATOM      5  C   UNL     1      44.783   3.540  10.379  0.00  0.00    +0.000 A 
ATOM      6  C   UNL     1      44.279   4.794  10.038  0.00  0.00    +0.000 A 
ATOM      7  C   UNL     1      44.309   5.837  10.973  0.00  0.00    +0.000 A 
ATOM      8  C   UNL     1      44.862   5.672  12.259  0.00  0.00    +0.000 A 
BRANCH   5   9
ATOM      9  C   UNL     1      44.785   2.367   9.452  0.00  0.00    +0.000 C 
ATOM     10  N   UNL     1      45.873   2.160   8.647  0.00  0.00    +0.000 N 
ATOM     11  O   UNL     1      43.839   1.587   9.401  0.00  0.00    +0.000 OA
ATOM     12  H   UNL     1      46.684   2.755   8.598  0.00  0.00    +0.000 HD
ATOM     13  H   UNL     1      45.834   1.360   8.028  0.00  0.00    +0.000 HD
ENDBRANCH   5   9
BRANCH   3  15
ATOM     14  C   UNL     1      47.034   3.673  14.114  0.00  0.00    +0.000 C 
ATOM     15  O   UNL     1      45.720   4.172  13.904  0.00  0.00    +0.000 OA
ENDBRANCH   3  15
ENDBRANCH   1   8
BRANCH   1  16
ATOM     16  C   UNL     1      45.471   8.017  12.732  0.00  0.00    +0.000 C 
BRANCH  16  17
ATOM     17  C   UNL     1      46.974   7.839  12.795  0.00  0.00    +0.000 A 
ATOM     18  C   UNL     1      47.790   8.172  11.711  0.00  0.00    +0.000 A 
ATOM     19  C   UNL     1      49.165   7.967  11.790  0.00  0.00    +0.000 A 
ATOM     20  C   UNL     1      49.731   7.444  12.957  0.00  0.00    +0.000 A 
ATOM     21  C   UNL     1      48.950   7.134  14.081  0.00  0.00    +0.000 A 
ATOM     22  C   UNL     1      47.568   7.337  13.969  0.00  0.00    +0.000 A 
BRANCH  21  23
ATOM     23  N   UNL     1      49.566   6.738  15.257  0.00  0.00    +0.000 N 
ATOM     24  C   UNL     1      50.809   7.384  15.701  0.00  0.00    +0.000 C 
ATOM     25  C   UNL     1      51.619   6.377  16.549  0.00  0.00    +0.000 C 
ATOM     26  N   UNL     1      50.861   5.863  17.715  0.00  0.00    +0.000 NA
ATOM     27  C   UNL     1      51.653   4.859  18.424  0.00  0.00    +0.000 C 
ATOM     28  C   UNL     1      49.576   5.282  17.253  0.00  0.00    +0.000 C 
ATOM     29  C   UNL     1      48.740   6.252  16.378  0.00  0.00    +0.000 C 
ENDBRANCH  21  23
ENDBRANCH  16  17
ENDBRANCH   1  16
TORSDOF 6
ENDMDL
MODEL 9
REMARK VINA RESULT:    -6.324      2.136      3.814
REMARK INTER + INTRA:          -9.043
REMARK INTER:                  -8.187
REMARK INTRA:                  -0.856
REMARK UNBOUND:                -0.500
REMARK  Name = 
REMARK  8 active torsions:
REMARK  status: ('A' for Active; 'I' for Inactive)
REMARK    1  A    between atoms: C_1  and  O_2
REMARK    2  A    between atoms: O_2  and  C_3
REMARK    3  A    between atoms: C_5  and  C_6
REMARK    4  A    between atoms: C_11  and  N_12
REMARK    5  A    between atoms: N_12  and  C_13
REMARK    6  A    between atoms: C_13  and  C_14
REMARK    7  A    between atoms: C_18  and  N_19
REMARK    8  A    between atoms: N_22  and  C_23
REMARK                            x       y       z     vdW  Elec       q    Type
REMARK                         _______ _______ _______ _____ _____    ______ ____
ROOT
ATOM      1  N   UNL     1      46.541   7.092  13.604  0.00  0.00    +0.000 N 
ATOM      2  H   UNL     1      45.799   7.634  14.034  0.00  0.00    +0.000 HD
ENDROOT
BRANCH   1   8
ATOM      3  C   UNL     1      45.765   4.771  13.046  0.00  0.00    +0.000 A 
ATOM      4  C   UNL     1      45.217   3.904  12.088  0.00  0.00    +0.000 A 
ATOM      5  C   UNL     1      44.913   4.347  10.796  0.00  0.00    +0.000 A 
ATOM      6  C   UNL     1      45.130   5.685  10.471  0.00  0.00    +0.000 A 
ATOM      7  C   UNL     1      45.673   6.556  11.425  0.00  0.00    +0.000 A 
ATOM      8  C   UNL     1      46.040   6.119  12.713  0.00  0.00    +0.000 A 
BRANCH   5   9
ATOM      9  C   UNL     1      44.330   3.348   9.849  0.00  0.00    +0.000 C 
ATOM     10  N   UNL     1      44.313   3.634   8.511  0.00  0.00    +0.000 N 
ATOM     11  O   UNL     1      43.870   2.280  10.245  0.00  0.00    +0.000 OA
ATOM     12  H   UNL     1      44.641   4.489   8.092  0.00  0.00    +0.000 HD
ATOM     13  H   UNL     1      43.903   2.935   7.902  0.00  0.00    +0.000 HD
ENDBRANCH   5   9
BRANCH   3  15
ATOM     14  C   UNL     1      47.190   3.693  14.629  0.00  0.00    +0.000 C 
ATOM     15  O   UNL     1      45.977   4.376  14.342  0.00  0.00    +0.000 OA
ENDBRANCH   3  15
ENDBRANCH   1   8
BRANCH   1  16
ATOM     16  C   UNL     1      47.618   7.968  13.144  0.00  0.00    +0.000 C 
BRANCH  16  17
ATOM     17  C   UNL     1      48.856   7.757  13.989  0.00  0.00    +0.000 A 
ATOM     18  C   UNL     1      50.102   8.243  13.583  0.00  0.00    +0.000 A 
ATOM     19  C   UNL     1      51.228   8.005  14.369  0.00  0.00    +0.000 A 
ATOM     20  C   UNL     1      51.110   7.296  15.568  0.00  0.00    +0.000 A 
ATOM     21  C   UNL     1      49.871   6.827  16.029  0.00  0.00    +0.000 A 
ATOM     22  C   UNL     1      48.757   7.067  15.213  0.00  0.00    +0.000 A 
BRANCH  21  23
ATOM     23  N   UNL     1      49.780   6.241  17.281  0.00  0.00    +0.000 N 
ATOM     24  C   UNL     1      49.953   4.790  17.438  0.00  0.00    +0.000 C 
ATOM     25  C   UNL     1      49.152   4.323  18.675  0.00  0.00    +0.000 C 
ATOM     26  N   UNL     1      49.548   5.026  19.919  0.00  0.00    +0.000 NA
ATOM     27  C   UNL     1      48.698   4.597  21.029  0.00  0.00    +0.000 C 
ATOM     28  C   UNL     1      49.437   6.492  19.715  0.00  0.00    +0.000 C 
ATOM     29  C   UNL     1      50.208   7.002  18.469  0.00  0.00    +0.000 C 
ENDBRANCH  21  23
ENDBRANCH  16  17
ENDBRANCH   1  16
TORSDOF 6
ENDMDL
