MODEL 1
REMARK VINA RESULT:    -8.257      0.000      0.000
REMARK INTER + INTRA:         -13.846
REMARK INTER:                 -12.360
REMARK INTRA:                  -1.486
REMARK UNBOUND:                -1.486
REMARK  Name = 
REMARK  10 active torsions:
REMARK  status: ('A' for Active; 'I' for Inactive)
REMARK    1  A    between atoms: C_1  and  C_2
REMARK    2  A    between atoms: C_2  and  O_3
REMARK    3  A    between atoms: C_5  and  O_6
REMARK    4  A    between atoms: O_6  and  C_7
REMARK    5  A    between atoms: C_9  and  N_10
REMARK    6  A    between atoms: N_10  and  C_11
REMARK    7  A    between atoms: C_11  and  C_12
REMARK    8  A    between atoms: C_12  and  C_15
REMARK    9  A    between atoms: C_18  and  C_19
REMARK   10  A    between atoms: C_25  and  C_26
REMARK                            x       y       z     vdW  Elec       q    Type
REMARK                         _______ _______ _______ _____ _____    ______ ____
ROOT
ATOM      1  C   UNL     1      47.802   6.721  13.200  0.00  0.00    +0.000 A 
ATOM      2  C   UNL     1      47.009   5.568  13.331  0.00  0.00    +0.000 A 
ATOM      3  C   UNL     1      45.663   5.561  12.934  0.00  0.00    +0.000 A 
ATOM      4  C   UNL     1      45.125   6.768  12.469  0.00  0.00    +0.000 A 
ATOM      5  C   UNL     1      45.898   7.930  12.336  0.00  0.00    +0.000 A 
ATOM      6  C   UNL     1      47.246   7.896  12.703  0.00  0.00    +0.000 A 
ENDROOT
BRANCH   5   7
ATOM      7  C   UNL     1      45.281   9.203  11.818  0.00  0.00    +0.000 C 
ATOM      8  F   UNL     1      46.197  10.128  11.415  0.00  0.00    +0.000 F 
ATOM      9  F   UNL     1      44.468   8.991  10.747  0.00  0.00    +0.000 F 
ATOM     10  F   UNL     1      44.514   9.825  12.756  0.00  0.00    +0.000 F 
ENDBRANCH   5   7
BRANCH   3  11
ATOM     11  N   UNL     1      44.880   4.418  13.139  0.00  0.00    +0.000 N 
ATOM     12  H   UNL     1      44.741   4.184  14.121  0.00  0.00    +0.000 HD
BRANCH  11  13
ATOM     13  C   UNL     1      45.038   3.261  12.229  0.00  0.00    +0.000 C 
BRANCH  13  14
ATOM     14  C   UNL     1      44.085   3.237  11.008  0.00  0.00    +0.000 C 
ATOM     15  F   UNL     1      43.239   2.173  11.146  0.00  0.00    +0.000 F 
ATOM     16  F   UNL     1      43.284   4.342  11.038  0.00  0.00    +0.000 F 
BRANCH  14  17
ATOM     17  C   UNL     1      44.887   3.163   9.726  0.00  0.00    +0.000 A 
ATOM     18  C   UNL     1      45.296   4.319   9.049  0.00  0.00    +0.000 A 
ATOM     19  C   UNL     1      46.069   4.215   7.894  0.00  0.00    +0.000 A 
ATOM     20  C   UNL     1      46.416   2.948   7.448  0.00  0.00    +0.000 A 
ATOM     21  N   UNL     1      46.042   1.798   8.080  0.00  0.00    +0.000 NA
ATOM     22  C   UNL     1      45.285   1.938   9.196  0.00  0.00    +0.000 A 
BRANCH  20  23
ATOM     23  C   UNL     1      47.246   2.802   6.209  0.00  0.00    +0.000 C 
ATOM     24  N   UNL     1      48.560   2.472   6.413  0.00  0.00    +0.000 N 
ATOM     25  O   UNL     1      46.791   2.965   5.085  0.00  0.00    +0.000 OA
ATOM     26  H   UNL     1      48.899   2.332   7.358  0.00  0.00    +0.000 HD
ATOM     27  H   UNL     1      49.171   2.342   5.621  0.00  0.00    +0.000 HD
ENDBRANCH  20  23
ENDBRANCH  14  17
ENDBRANCH  13  14
ENDBRANCH  11  13
ENDBRANCH   3  11
BRANCH   1  28
ATOM     28  O   UNL     1      49.107   6.626  13.629  0.00  0.00    +0.000 OA
BRANCH  28  32
ATOM     29  C   UNL     1      50.026   6.805  18.039  0.00  0.00    +0.000 C 
ATOM     30  C   UNL     1      49.664   6.544  16.587  0.00  0.00    +0.000 C 
ATOM     31  C   UNL     1      50.719   7.038  15.562  0.00  0.00    +0.000 C 
ATOM     32  C   UNL     1      49.552   7.531  14.672  0.00  0.00    +0.000 C 
ATOM     33  C   UNL     1      48.682   7.561  15.952  0.00  0.00    +0.000 C 
BRANCH  30  34
ATOM     34  O   UNL     1      49.258   5.164  16.451  0.00  0.00    +0.000 OA
ATOM     35  H   UNL     1      49.971   4.641  16.852  0.00  0.00    +0.000 HD
ENDBRANCH  30  34
ENDBRANCH  28  32
ENDBRANCH   1  28
TORSDOF 9
ENDMDL
MODEL 2
REMARK VINA RESULT:    -8.149      1.829      2.522
REMARK INTER + INTRA:         -13.684
REMARK INTER:                 -12.444
REMARK INTRA:                  -1.240
REMARK UNBOUND:                -1.486
REMARK  Name = 
REMARK  10 active torsions:
REMARK  status: ('A' for Active; 'I' for Inactive)
REMARK    1  A    between atoms: C_1  and  C_2
REMARK    2  A    between atoms: C_2  and  O_3
REMARK    3  A    between atoms: C_5  and  O_6
REMARK    4  A    between atoms: O_6  and  C_7
REMARK    5  A    between atoms: C_9  and  N_10
REMARK    6  A    between atoms: N_10  and  C_11
REMARK    7  A    between atoms: C_11  and  C_12
REMARK    8  A    between atoms: C_12  and  C_15
REMARK    9  A    between atoms: C_18  and  C_19
REMARK   10  A    between atoms: C_25  and  C_26
REMARK                            x       y       z     vdW  Elec       q    Type
REMARK                         _______ _______ _______ _____ _____    ______ ____
ROOT
ATOM      1  C   UNL     1      48.008   5.431  15.090  0.00  0.00    +0.000 A 
ATOM      2  C   UNL     1      46.872   4.680  14.746  0.00  0.00    +0.000 A 
ATOM      3  C   UNL     1      46.122   4.979  13.598  0.00  0.00    +0.000 A 
ATOM      4  C   UNL     1      46.511   6.098  12.850  0.00  0.00    +0.000 A 
ATOM      5  C   UNL     1      47.638   6.864  13.181  0.00  0.00    +0.000 A 
ATOM      6  C   UNL     1      48.388   6.518  14.308  0.00  0.00    +0.000 A 
ENDROOT
BRANCH   5   7
ATOM      7  C   UNL     1      48.028   8.051  12.341  0.00  0.00    +0.000 C 
ATOM      8  F   UNL     1      48.925   8.878  12.948  0.00  0.00    +0.000 F 
ATOM      9  F   UNL     1      48.594   7.690  11.157  0.00  0.00    +0.000 F 
ATOM     10  F   UNL     1      46.959   8.834  12.024  0.00  0.00    +0.000 F 
ENDBRANCH   5   7
BRANCH   3  11
ATOM     11  N   UNL     1      44.956   4.255  13.316  0.00  0.00    +0.000 N 
ATOM     12  H   UNL     1      44.443   3.961  14.147  0.00  0.00    +0.000 HD
BRANCH  11  13
ATOM     13  C   UNL     1      44.959   3.285  12.198  0.00  0.00    +0.000 C 
BRANCH  13  14
ATOM     14  C   UNL     1      44.183   3.725  10.931  0.00  0.00    +0.000 C 
ATOM     15  F   UNL     1      42.988   3.061  10.910  0.00  0.00    +0.000 F 
ATOM     16  F   UNL     1      43.861   5.046  11.034  0.00  0.00    +0.000 F 
BRANCH  14  17
ATOM     17  C   UNL     1      45.010   3.445   9.695  0.00  0.00    +0.000 A 
ATOM     18  C   UNL     1      45.317   2.137   9.298  0.00  0.00    +0.000 A 
ATOM     19  C   UNL     1      46.046   1.913   8.132  0.00  0.00    +0.000 A 
ATOM     20  C   UNL     1      46.449   3.013   7.388  0.00  0.00    +0.000 A 
ATOM     21  N   UNL     1      46.168   4.302   7.738  0.00  0.00    +0.000 NA
ATOM     22  C   UNL     1      45.463   4.481   8.881  0.00  0.00    +0.000 A 
BRANCH  20  23
ATOM     23  C   UNL     1      47.235   2.807   6.130  0.00  0.00    +0.000 C 
ATOM     24  N   UNL     1      48.569   2.543   6.302  0.00  0.00    +0.000 N 
ATOM     25  O   UNL     1      46.730   2.868   5.017  0.00  0.00    +0.000 OA
ATOM     26  H   UNL     1      48.950   2.487   7.239  0.00  0.00    +0.000 HD
ATOM     27  H   UNL     1      49.153   2.379   5.496  0.00  0.00    +0.000 HD
ENDBRANCH  20  23
ENDBRANCH  14  17
ENDBRANCH  13  14
ENDBRANCH  11  13
ENDBRANCH   3  11
BRANCH   1  28
ATOM     28  O   UNL     1      48.667   5.062  16.242  0.00  0.00    +0.000 OA
BRANCH  28  32
ATOM     29  C   UNL     1      48.686   4.563  20.722  0.00  0.00    +0.000 C 
ATOM     30  C   UNL     1      48.869   4.820  19.236  0.00  0.00    +0.000 C 
ATOM     31  C   UNL     1      47.647   5.478  18.542  0.00  0.00    +0.000 C 
ATOM     32  C   UNL     1      47.881   4.532  17.339  0.00  0.00    +0.000 C 
ATOM     33  C   UNL     1      48.637   3.595  18.314  0.00  0.00    +0.000 C 
BRANCH  30  34
ATOM     34  O   UNL     1      50.136   5.483  19.033  0.00  0.00    +0.000 OA
ATOM     35  H   UNL     1      50.671   4.866  18.507  0.00  0.00    +0.000 HD
ENDBRANCH  30  34
ENDBRANCH  28  32
ENDBRANCH   1  28
TORSDOF 9
ENDMDL
MODEL 3
REMARK VINA RESULT:    -7.904      2.937      3.953
REMARK INTER + INTRA:         -13.318
REMARK INTER:                 -12.272
REMARK INTRA:                  -1.045
REMARK UNBOUND:                -1.486
REMARK  Name = 
REMARK  10 active torsions:
REMARK  status: ('A' for Active; 'I' for Inactive)
REMARK    1  A    between atoms: C_1  and  C_2
REMARK    2  A    between atoms: C_2  and  O_3
REMARK    3  A    between atoms: C_5  and  O_6
REMARK    4  A    between atoms: O_6  and  C_7
REMARK    5  A    between atoms: C_9  and  N_10
REMARK    6  A    between atoms: N_10  and  C_11
REMARK    7  A    between atoms: C_11  and  C_12
REMARK    8  A    between atoms: C_12  and  C_15
REMARK    9  A    between atoms: C_18  and  C_19
REMARK   10  A    between atoms: C_25  and  C_26
REMARK                            x       y       z     vdW  Elec       q    Type
REMARK                         _______ _______ _______ _____ _____    ______ ____
ROOT
ATOM      1  C   UNL     1      48.018   7.039  13.850  0.00  0.00    +0.000 A 
ATOM      2  C   UNL     1      46.993   6.724  12.941  0.00  0.00    +0.000 A 
ATOM      3  C   UNL     1      46.178   5.596  13.127  0.00  0.00    +0.000 A 
ATOM      4  C   UNL     1      46.474   4.762  14.212  0.00  0.00    +0.000 A 
ATOM      5  C   UNL     1      47.496   5.056  15.126  0.00  0.00    +0.000 A 
ATOM      6  C   UNL     1      48.266   6.207  14.937  0.00  0.00    +0.000 A 
ENDROOT
BRANCH   5   7
ATOM      7  C   UNL     1      47.770   4.138  16.287  0.00  0.00    +0.000 C 
ATOM      8  F   UNL     1      48.920   4.433  16.956  0.00  0.00    +0.000 F 
ATOM      9  F   UNL     1      46.779   4.164  17.220  0.00  0.00    +0.000 F 
ATOM     10  F   UNL     1      47.890   2.837  15.901  0.00  0.00    +0.000 F 
ENDBRANCH   5   7
BRANCH   3  11
ATOM     11  N   UNL     1      45.209   5.270  12.170  0.00  0.00    +0.000 N 
ATOM     12  H   UNL     1      44.414   5.908  12.154  0.00  0.00    +0.000 HD
BRANCH  11  13
ATOM     13  C   UNL     1      44.881   3.846  11.928  0.00  0.00    +0.000 C 
BRANCH  13  14
ATOM     14  C   UNL     1      44.022   3.563  10.671  0.00  0.00    +0.000 C 
ATOM     15  F   UNL     1      43.190   2.515  10.948  0.00  0.00    +0.000 F 
ATOM     16  F   UNL     1      43.200   4.626  10.436  0.00  0.00    +0.000 F 
BRANCH  14  17
ATOM     17  C   UNL     1      44.920   3.277   9.485  0.00  0.00    +0.000 A 
ATOM     18  C   UNL     1      45.468   4.311   8.715  0.00  0.00    +0.000 A 
ATOM     19  C   UNL     1      46.324   4.013   7.655  0.00  0.00    +0.000 A 
ATOM     20  C   UNL     1      46.610   2.681   7.397  0.00  0.00    +0.000 A 
ATOM     21  N   UNL     1      46.100   1.645   8.125  0.00  0.00    +0.000 NA
ATOM     22  C   UNL     1      45.268   1.972   9.143  0.00  0.00    +0.000 A 
BRANCH  20  23
ATOM     23  C   UNL     1      47.526   2.328   6.264  0.00  0.00    +0.000 C 
ATOM     24  N   UNL     1      47.355   3.056   5.117  0.00  0.00    +0.000 N 
ATOM     25  O   UNL     1      48.373   1.449   6.348  0.00  0.00    +0.000 OA
ATOM     26  H   UNL     1      46.652   3.786   5.088  0.00  0.00    +0.000 HD
ATOM     27  H   UNL     1      47.949   2.880   4.321  0.00  0.00    +0.000 HD
ENDBRANCH  20  23
ENDBRANCH  14  17
ENDBRANCH  13  14
ENDBRANCH  11  13
ENDBRANCH   3  11
BRANCH   1  28
ATOM     28  O   UNL     1      48.767   8.161  13.571  0.00  0.00    +0.000 OA
BRANCH  28  32
ATOM     29  C   UNL     1      52.166   8.609  10.642  0.00  0.00    +0.000 C 
ATOM     30  C   UNL     1      51.168   8.419  11.773  0.00  0.00    +0.000 C 
ATOM     31  C   UNL     1      49.981   7.480  11.433  0.00  0.00    +0.000 C 
ATOM     32  C   UNL     1      49.050   8.466  12.181  0.00  0.00    +0.000 C 
ATOM     33  C   UNL     1      50.126   9.554  11.939  0.00  0.00    +0.000 C 
BRANCH  30  34
ATOM     34  O   UNL     1      51.893   8.100  12.981  0.00  0.00    +0.000 OA
ATOM     35  H   UNL     1      51.216   7.955  13.662  0.00  0.00    +0.000 HD
ENDBRANCH  30  34
ENDBRANCH  28  32
ENDBRANCH   1  28
TORSDOF 9
ENDMDL
MODEL 4
REMARK VINA RESULT:    -7.414      2.889      4.324
REMARK INTER + INTRA:         -12.584
REMARK INTER:                 -11.265
REMARK INTRA:                  -1.318
REMARK UNBOUND:                -1.486
REMARK  Name = 
REMARK  10 active torsions:
REMARK  status: ('A' for Active; 'I' for Inactive)
REMARK    1  A    between atoms: C_1  and  C_2
REMARK    2  A    between atoms: C_2  and  O_3
REMARK    3  A    between atoms: C_5  and  O_6
REMARK    4  A    between atoms: O_6  and  C_7
REMARK    5  A    between atoms: C_9  and  N_10
REMARK    6  A    between atoms: N_10  and  C_11
REMARK    7  A    between atoms: C_11  and  C_12
REMARK    8  A    between atoms: C_12  and  C_15
REMARK    9  A    between atoms: C_18  and  C_19
REMARK   10  A    between atoms: C_25  and  C_26
REMARK                            x       y       z     vdW  Elec       q    Type
REMARK                         _______ _______ _______ _____ _____    ______ ____
ROOT
ATOM      1  C   UNL     1      47.838   6.269  13.576  0.00  0.00    +0.000 A 
ATOM      2  C   UNL     1      47.040   5.364  12.855  0.00  0.00    +0.000 A 
ATOM      3  C   UNL     1      46.470   4.242  13.477  0.00  0.00    +0.000 A 
ATOM      4  C   UNL     1      46.787   4.024  14.824  0.00  0.00    +0.000 A 
ATOM      5  C   UNL     1      47.586   4.912  15.558  0.00  0.00    +0.000 A 
ATOM      6  C   UNL     1      48.107   6.042  14.922  0.00  0.00    +0.000 A 
ENDROOT
BRANCH   5   7
ATOM      7  C   UNL     1      47.889   4.646  17.009  0.00  0.00    +0.000 C 
ATOM      8  F   UNL     1      48.820   5.491  17.535  0.00  0.00    +0.000 F 
ATOM      9  F   UNL     1      46.789   4.762  17.803  0.00  0.00    +0.000 F 
ATOM     10  F   UNL     1      48.372   3.389  17.214  0.00  0.00    +0.000 F 
ENDBRANCH   5   7
BRANCH   3  11
ATOM     11  N   UNL     1      45.735   3.321  12.719  0.00  0.00    +0.000 N 
ATOM     12  H   UNL     1      46.237   2.960  11.909  0.00  0.00    +0.000 HD
BRANCH  11  13
ATOM     13  C   UNL     1      44.286   3.546  12.516  0.00  0.00    +0.000 C 
BRANCH  13  14
ATOM     14  C   UNL     1      43.904   4.321  11.230  0.00  0.00    +0.000 C 
ATOM     15  F   UNL     1      42.556   4.197  11.040  0.00  0.00    +0.000 F 
ATOM     16  F   UNL     1      44.121   5.654  11.425  0.00  0.00    +0.000 F 
BRANCH  14  17
ATOM     17  C   UNL     1      44.695   3.791  10.053  0.00  0.00    +0.000 A 
ATOM     18  C   UNL     1      44.765   2.420   9.775  0.00  0.00    +0.000 A 
ATOM     19  C   UNL     1      45.469   1.969   8.659  0.00  0.00    +0.000 A 
ATOM     20  C   UNL     1      46.084   2.910   7.846  0.00  0.00    +0.000 A 
ATOM     21  N   UNL     1      46.037   4.254   8.080  0.00  0.00    +0.000 NA
ATOM     22  C   UNL     1      45.349   4.654   9.177  0.00  0.00    +0.000 A 
BRANCH  20  23
ATOM     23  C   UNL     1      46.849   2.458   6.640  0.00  0.00    +0.000 C 
ATOM     24  N   UNL     1      47.079   3.420   5.692  0.00  0.00    +0.000 N 
ATOM     25  O   UNL     1      47.245   1.309   6.500  0.00  0.00    +0.000 OA
ATOM     26  H   UNL     1      46.748   4.365   5.847  0.00  0.00    +0.000 HD
ATOM     27  H   UNL     1      47.602   3.187   4.861  0.00  0.00    +0.000 HD
ENDBRANCH  20  23
ENDBRANCH  14  17
ENDBRANCH  13  14
ENDBRANCH  11  13
ENDBRANCH   3  11
BRANCH   1  28
ATOM     28  O   UNL     1      48.359   7.331  12.870  0.00  0.00    +0.000 OA
BRANCH  28  32
ATOM     29  C   UNL     1      45.107  10.327  11.990  0.00  0.00    +0.000 C 
ATOM     30  C   UNL     1      46.107   9.193  12.146  0.00  0.00    +0.000 C 
ATOM     31  C   UNL     1      46.420   8.810  13.617  0.00  0.00    +0.000 C 
ATOM     32  C   UNL     1      47.907   8.666  13.211  0.00  0.00    +0.000 C 
ATOM     33  C   UNL     1      47.597   9.597  12.013  0.00  0.00    +0.000 C 
BRANCH  30  34
ATOM     34  O   UNL     1      45.709   8.103  11.287  0.00  0.00    +0.000 OA
ATOM     35  H   UNL     1      46.296   8.152  10.514  0.00  0.00    +0.000 HD
ENDBRANCH  30  34
ENDBRANCH  28  32
ENDBRANCH   1  28
TORSDOF 9
ENDMDL
MODEL 5
REMARK VINA RESULT:    -7.351      3.194      7.994
REMARK INTER + INTRA:         -12.489
REMARK INTER:                 -10.906
REMARK INTRA:                  -1.582
REMARK UNBOUND:                -1.486
REMARK  Name = 
REMARK  10 active torsions:
REMARK  status: ('A' for Active; 'I' for Inactive)
REMARK    1  A    between atoms: C_1  and  C_2
REMARK    2  A    between atoms: C_2  and  O_3
REMARK    3  A    between atoms: C_5  and  O_6
REMARK    4  A    between atoms: O_6  and  C_7
REMARK    5  A    between atoms: C_9  and  N_10
REMARK    6  A    between atoms: N_10  and  C_11
REMARK    7  A    between atoms: C_11  and  C_12
REMARK    8  A    between atoms: C_12  and  C_15
REMARK    9  A    between atoms: C_18  and  C_19
REMARK   10  A    between atoms: C_25  and  C_26
REMARK                            x       y       z     vdW  Elec       q    Type
REMARK                         _______ _______ _______ _____ _____    ______ ____
ROOT
ATOM      1  C   UNL     1      45.631   5.293   9.687  0.00  0.00    +0.000 A 
ATOM      2  C   UNL     1      46.417   6.328  10.221  0.00  0.00    +0.000 A 
ATOM      3  C   UNL     1      46.130   6.886  11.476  0.00  0.00    +0.000 A 
ATOM      4  C   UNL     1      44.990   6.417  12.142  0.00  0.00    +0.000 A 
ATOM      5  C   UNL     1      44.190   5.389  11.624  0.00  0.00    +0.000 A 
ATOM      6  C   UNL     1      44.524   4.826  10.388  0.00  0.00    +0.000 A 
ENDROOT
BRANCH   5   7
ATOM      7  C   UNL     1      42.982   4.906  12.380  0.00  0.00    +0.000 C 
ATOM      8  F   UNL     1      42.931   3.551  12.520  0.00  0.00    +0.000 F 
ATOM      9  F   UNL     1      42.917   5.413  13.641  0.00  0.00    +0.000 F 
ATOM     10  F   UNL     1      41.815   5.259  11.772  0.00  0.00    +0.000 F 
ENDBRANCH   5   7
BRANCH   3  11
ATOM     11  N   UNL     1      46.889   7.962  11.953  0.00  0.00    +0.000 N 
ATOM     12  H   UNL     1      47.619   8.268  11.311  0.00  0.00    +0.000 HD
BRANCH  11  13
ATOM     13  C   UNL     1      47.247   8.015  13.388  0.00  0.00    +0.000 C 
BRANCH  13  14
ATOM     14  C   UNL     1      48.543   7.263  13.781  0.00  0.00    +0.000 C 
ATOM     15  F   UNL     1      49.086   6.725  12.648  0.00  0.00    +0.000 F 
ATOM     16  F   UNL     1      49.467   8.159  14.234  0.00  0.00    +0.000 F 
BRANCH  14  17
ATOM     17  C   UNL     1      48.233   6.206  14.820  0.00  0.00    +0.000 A 
ATOM     18  C   UNL     1      47.338   5.161  14.558  0.00  0.00    +0.000 A 
ATOM     19  C   UNL     1      47.106   4.182  15.522  0.00  0.00    +0.000 A 
ATOM     20  C   UNL     1      47.784   4.276  16.730  0.00  0.00    +0.000 A 
ATOM     21  N   UNL     1      48.666   5.275  17.023  0.00  0.00    +0.000 NA
ATOM     22  C   UNL     1      48.861   6.212  16.064  0.00  0.00    +0.000 A 
BRANCH  20  23
ATOM     23  C   UNL     1      47.556   3.239  17.788  0.00  0.00    +0.000 C 
ATOM     24  N   UNL     1      48.397   3.303  18.868  0.00  0.00    +0.000 N 
ATOM     25  O   UNL     1      46.681   2.389  17.703  0.00  0.00    +0.000 OA
ATOM     26  H   UNL     1      49.102   4.030  18.910  0.00  0.00    +0.000 HD
ATOM     27  H   UNL     1      48.288   2.645  19.624  0.00  0.00    +0.000 HD
ENDBRANCH  20  23
ENDBRANCH  14  17
ENDBRANCH  13  14
ENDBRANCH  11  13
ENDBRANCH   3  11
BRANCH   1  28
ATOM     28  O   UNL     1      45.990   4.823   8.443  0.00  0.00    +0.000 OA
BRANCH  28  32
ATOM     29  C   UNL     1      47.122   0.959   6.416  0.00  0.00    +0.000 C 
ATOM     30  C   UNL     1      46.941   2.319   7.070  0.00  0.00    +0.000 C 
ATOM     31  C   UNL     1      46.210   2.282   8.438  0.00  0.00    +0.000 C 
ATOM     32  C   UNL     1      45.440   3.554   8.006  0.00  0.00    +0.000 C 
ATOM     33  C   UNL     1      45.750   3.158   6.541  0.00  0.00    +0.000 C 
BRANCH  30  34
ATOM     34  O   UNL     1      48.207   3.012   7.055  0.00  0.00    +0.000 OA
ATOM     35  H   UNL     1      48.510   2.984   6.133  0.00  0.00    +0.000 HD
ENDBRANCH  30  34
ENDBRANCH  28  32
ENDBRANCH   1  28
TORSDOF 9
ENDMDL
MODEL 6
REMARK VINA RESULT:    -7.204      4.066      7.734
REMARK INTER + INTRA:         -12.269
REMARK INTER:                 -11.206
REMARK INTRA:                  -1.063
REMARK UNBOUND:                -1.486
REMARK  Name = 
REMARK  10 active torsions:
REMARK  status: ('A' for Active; 'I' for Inactive)
REMARK    1  A    between atoms: C_1  and  C_2
REMARK    2  A    between atoms: C_2  and  O_3
REMARK    3  A    between atoms: C_5  and  O_6
REMARK    4  A    between atoms: O_6  and  C_7
REMARK    5  A    between atoms: C_9  and  N_10
REMARK    6  A    between atoms: N_10  and  C_11
REMARK    7  A    between atoms: C_11  and  C_12
REMARK    8  A    between atoms: C_12  and  C_15
REMARK    9  A    between atoms: C_18  and  C_19
REMARK   10  A    between atoms: C_25  and  C_26
REMARK                            x       y       z     vdW  Elec       q    Type
REMARK                         _______ _______ _______ _____ _____    ______ ____
ROOT
ATOM      1  C   UNL     1      45.195   6.059  12.555  0.00  0.00    +0.000 A 
ATOM      2  C   UNL     1      45.953   5.492  13.594  0.00  0.00    +0.000 A 
ATOM      3  C   UNL     1      46.273   4.125  13.600  0.00  0.00    +0.000 A 
ATOM      4  C   UNL     1      45.748   3.339  12.567  0.00  0.00    +0.000 A 
ATOM      5  C   UNL     1      44.985   3.885  11.524  0.00  0.00    +0.000 A 
ATOM      6  C   UNL     1      44.716   5.256  11.525  0.00  0.00    +0.000 A 
ENDROOT
BRANCH   5   7
ATOM      7  C   UNL     1      44.451   3.004  10.426  0.00  0.00    +0.000 C 
ATOM      8  F   UNL     1      43.872   3.696   9.405  0.00  0.00    +0.000 F 
ATOM      9  F   UNL     1      45.419   2.236   9.855  0.00  0.00    +0.000 F 
ATOM     10  F   UNL     1      43.499   2.138  10.873  0.00  0.00    +0.000 F 
ENDBRANCH   5   7
BRANCH   3  11
ATOM     11  N   UNL     1      46.972   3.576  14.682  0.00  0.00    +0.000 N 
ATOM     12  H   UNL     1      46.605   2.678  14.996  0.00  0.00    +0.000 HD
BRANCH  11  13
ATOM     13  C   UNL     1      47.461   4.469  15.756  0.00  0.00    +0.000 C 
BRANCH  13  14
ATOM     14  C   UNL     1      47.597   3.819  17.155  0.00  0.00    +0.000 C 
ATOM     15  F   UNL     1      47.155   4.715  18.088  0.00  0.00    +0.000 F 
ATOM     16  F   UNL     1      46.747   2.755  17.244  0.00  0.00    +0.000 F 
BRANCH  14  17
ATOM     17  C   UNL     1      49.034   3.409  17.398  0.00  0.00    +0.000 A 
ATOM     18  C   UNL     1      49.522   2.165  16.977  0.00  0.00    +0.000 A 
ATOM     19  C   UNL     1      50.861   1.835  17.179  0.00  0.00    +0.000 A 
ATOM     20  C   UNL     1      51.680   2.767  17.800  0.00  0.00    +0.000 A 
ATOM     21  N   UNL     1      51.245   3.991  18.221  0.00  0.00    +0.000 NA
ATOM     22  C   UNL     1      49.937   4.273  18.013  0.00  0.00    +0.000 A 
BRANCH  20  23
ATOM     23  C   UNL     1      53.125   2.444  18.033  0.00  0.00    +0.000 C 
ATOM     24  N   UNL     1      53.378   1.186  18.514  0.00  0.00    +0.000 N 
ATOM     25  O   UNL     1      54.025   3.241  17.811  0.00  0.00    +0.000 OA
ATOM     26  H   UNL     1      52.608   0.547  18.674  0.00  0.00    +0.000 HD
ATOM     27  H   UNL     1      54.331   0.898  18.679  0.00  0.00    +0.000 HD
ENDBRANCH  20  23
ENDBRANCH  14  17
ENDBRANCH  13  14
ENDBRANCH  11  13
ENDBRANCH   3  11
BRANCH   1  28
ATOM     28  O   UNL     1      44.928   7.406  12.650  0.00  0.00    +0.000 OA
BRANCH  28  32
ATOM     29  C   UNL     1      48.301  10.376  13.012  0.00  0.00    +0.000 C 
ATOM     30  C   UNL     1      47.182   9.351  13.098  0.00  0.00    +0.000 C 
ATOM     31  C   UNL     1      47.272   8.211  12.049  0.00  0.00    +0.000 C 
ATOM     32  C   UNL     1      45.738   8.322  11.870  0.00  0.00    +0.000 C 
ATOM     33  C   UNL     1      45.848   9.763  12.426  0.00  0.00    +0.000 C 
BRANCH  30  34
ATOM     34  O   UNL     1      47.047   8.927  14.472  0.00  0.00    +0.000 OA
ATOM     35  H   UNL     1      47.764   9.370  14.954  0.00  0.00    +0.000 HD
ENDBRANCH  30  34
ENDBRANCH  28  32
ENDBRANCH   1  28
TORSDOF 9
ENDMDL
MODEL 7
REMARK VINA RESULT:    -7.181      3.691      7.289
REMARK INTER + INTRA:         -12.235
REMARK INTER:                 -10.776
REMARK INTRA:                  -1.459
REMARK UNBOUND:                -1.486
REMARK  Name = 
REMARK  10 active torsions:
REMARK  status: ('A' for Active; 'I' for Inactive)
REMARK    1  A    between atoms: C_1  and  C_2
REMARK    2  A    between atoms: C_2  and  O_3
REMARK    3  A    between atoms: C_5  and  O_6
REMARK    4  A    between atoms: O_6  and  C_7
REMARK    5  A    between atoms: C_9  and  N_10
REMARK    6  A    between atoms: N_10  and  C_11
REMARK    7  A    between atoms: C_11  and  C_12
REMARK    8  A    between atoms: C_12  and  C_15
REMARK    9  A    between atoms: C_18  and  C_19
REMARK   10  A    between atoms: C_25  and  C_26
REMARK                            x       y       z     vdW  Elec       q    Type
REMARK                         _______ _______ _______ _____ _____    ______ ____
ROOT
ATOM      1  C   UNL     1      44.243   7.014  11.768  0.00  0.00    +0.000 A 
ATOM      2  C   UNL     1      45.222   7.270  12.743  0.00  0.00    +0.000 A 
ATOM      3  C   UNL     1      45.697   8.571  12.974  0.00  0.00    +0.000 A 
ATOM      4  C   UNL     1      45.207   9.589  12.148  0.00  0.00    +0.000 A 
ATOM      5  C   UNL     1      44.234   9.353  11.165  0.00  0.00    +0.000 A 
ATOM      6  C   UNL     1      43.752   8.054  10.985  0.00  0.00    +0.000 A 
ENDROOT
BRANCH   5   7
ATOM      7  C   UNL     1      43.725  10.482  10.308  0.00  0.00    +0.000 C 
ATOM      8  F   UNL     1      42.722  10.114   9.462  0.00  0.00    +0.000 F 
ATOM      9  F   UNL     1      43.233  11.516  11.043  0.00  0.00    +0.000 F 
ATOM     10  F   UNL     1      44.700  11.011   9.518  0.00  0.00    +0.000 F 
ENDBRANCH   5   7
BRANCH   3  11
ATOM     11  N   UNL     1      46.721   8.785  13.905  0.00  0.00    +0.000 N 
ATOM     12  H   UNL     1      46.500   9.491  14.607  0.00  0.00    +0.000 HD
BRANCH  11  13
ATOM     13  C   UNL     1      48.129   8.769  13.449  0.00  0.00    +0.000 C 
BRANCH  13  14
ATOM     14  C   UNL     1      48.740   7.364  13.220  0.00  0.00    +0.000 C 
ATOM     15  F   UNL     1      48.332   6.913  11.996  0.00  0.00    +0.000 F 
ATOM     16  F   UNL     1      50.098   7.470  13.132  0.00  0.00    +0.000 F 
BRANCH  14  17
ATOM     17  C   UNL     1      48.324   6.431  14.338  0.00  0.00    +0.000 A 
ATOM     18  C   UNL     1      47.447   5.361  14.111  0.00  0.00    +0.000 A 
ATOM     19  C   UNL     1      47.117   4.497  15.153  0.00  0.00    +0.000 A 
ATOM     20  C   UNL     1      47.678   4.728  16.401  0.00  0.00    +0.000 A 
ATOM     21  N   UNL     1      48.538   5.755  16.662  0.00  0.00    +0.000 NA
ATOM     22  C   UNL     1      48.832   6.578  15.626  0.00  0.00    +0.000 A 
BRANCH  20  23
ATOM     23  C   UNL     1      47.343   3.817  17.542  0.00  0.00    +0.000 C 
ATOM     24  N   UNL     1      47.926   4.132  18.741  0.00  0.00    +0.000 N 
ATOM     25  O   UNL     1      46.598   2.854  17.423  0.00  0.00    +0.000 OA
ATOM     26  H   UNL     1      48.527   4.945  18.806  0.00  0.00    +0.000 HD
ATOM     27  H   UNL     1      47.730   3.569  19.555  0.00  0.00    +0.000 HD
ENDBRANCH  20  23
ENDBRANCH  14  17
ENDBRANCH  13  14
ENDBRANCH  11  13
ENDBRANCH   3  11
BRANCH   1  28
ATOM     28  O   UNL     1      43.854   5.703  11.613  0.00  0.00    +0.000 OA
BRANCH  28  32
ATOM     29  C   UNL     1      45.370   3.020   8.322  0.00  0.00    +0.000 C 
ATOM     30  C   UNL     1      44.710   3.984   9.295  0.00  0.00    +0.000 C 
ATOM     31  C   UNL     1      45.695   4.938  10.022  0.00  0.00    +0.000 C 
ATOM     32  C   UNL     1      44.875   4.716  11.317  0.00  0.00    +0.000 C 
ATOM     33  C   UNL     1      44.370   3.395  10.687  0.00  0.00    +0.000 C 
BRANCH  30  34
ATOM     34  O   UNL     1      43.596   4.621   8.632  0.00  0.00    +0.000 OA
ATOM     35  H   UNL     1      42.974   3.906   8.422  0.00  0.00    +0.000 HD
ENDBRANCH  30  34
ENDBRANCH  28  32
ENDBRANCH   1  28
TORSDOF 9
ENDMDL
MODEL 8
REMARK VINA RESULT:    -6.976      3.507      7.003
REMARK INTER + INTRA:         -11.928
REMARK INTER:                 -10.310
REMARK INTRA:                  -1.618
REMARK UNBOUND:                -1.486
REMARK  Name = 
REMARK  10 active torsions:
REMARK  status: ('A' for Active; 'I' for Inactive)
REMARK    1  A    between atoms: C_1  and  C_2
REMARK    2  A    between atoms: C_2  and  O_3
REMARK    3  A    between atoms: C_5  and  O_6
REMARK    4  A    between atoms: O_6  and  C_7
REMARK    5  A    between atoms: C_9  and  N_10
REMARK    6  A    between atoms: N_10  and  C_11
REMARK    7  A    between atoms: C_11  and  C_12
REMARK    8  A    between atoms: C_12  and  C_15
REMARK    9  A    between atoms: C_18  and  C_19
REMARK   10  A    between atoms: C_25  and  C_26
REMARK                            x       y       z     vdW  Elec       q    Type
REMARK                         _______ _______ _______ _____ _____    ______ ____
ROOT
ATOM      1  C   UNL     1      45.784   4.462  13.501  0.00  0.00    +0.000 A 
ATOM      2  C   UNL     1      46.021   5.818  13.220  0.00  0.00    +0.000 A 
ATOM      3  C   UNL     1      45.771   6.351  11.945  0.00  0.00    +0.000 A 
ATOM      4  C   UNL     1      45.343   5.463  10.950  0.00  0.00    +0.000 A 
ATOM      5  C   UNL     1      45.106   4.105  11.210  0.00  0.00    +0.000 A 
ATOM      6  C   UNL     1      45.328   3.611  12.499  0.00  0.00    +0.000 A 
ENDROOT
BRANCH   5   7
ATOM      7  C   UNL     1      44.633   3.189  10.113  0.00  0.00    +0.000 C 
ATOM      8  F   UNL     1      44.112   3.847   9.040  0.00  0.00    +0.000 F 
ATOM      9  F   UNL     1      45.631   2.404   9.621  0.00  0.00    +0.000 F 
ATOM     10  F   UNL     1      43.658   2.337  10.535  0.00  0.00    +0.000 F 
ENDBRANCH   5   7
BRANCH   3  11
ATOM     11  N   UNL     1      46.080   7.690  11.675  0.00  0.00    +0.000 N 
ATOM     12  H   UNL     1      46.077   7.922  10.682  0.00  0.00    +0.000 HD
BRANCH  11  13
ATOM     13  C   UNL     1      47.121   8.369  12.479  0.00  0.00    +0.000 C 
BRANCH  13  14
ATOM     14  C   UNL     1      48.552   8.329  11.888  0.00  0.00    +0.000 C 
ATOM     15  F   UNL     1      48.588   7.367  10.917  0.00  0.00    +0.000 F 
ATOM     16  F   UNL     1      48.808   9.504  11.243  0.00  0.00    +0.000 F 
BRANCH  14  17
ATOM     17  C   UNL     1      49.559   8.063  12.988  0.00  0.00    +0.000 A 
ATOM     18  C   UNL     1      50.810   8.693  13.004  0.00  0.00    +0.000 A 
ATOM     19  C   UNL     1      51.697   8.457  14.053  0.00  0.00    +0.000 A 
ATOM     20  C   UNL     1      51.302   7.594  15.065  0.00  0.00    +0.000 A 
ATOM     21  N   UNL     1      50.091   6.964  15.089  0.00  0.00    +0.000 NA
ATOM     22  C   UNL     1      49.259   7.213  14.049  0.00  0.00    +0.000 A 
BRANCH  20  23
ATOM     23  C   UNL     1      52.232   7.319  16.207  0.00  0.00    +0.000 C 
ATOM     24  N   UNL     1      52.484   8.383  17.034  0.00  0.00    +0.000 N 
ATOM     25  O   UNL     1      52.739   6.222  16.398  0.00  0.00    +0.000 OA
ATOM     26  H   UNL     1      52.036   9.273  16.853  0.00  0.00    +0.000 HD
ATOM     27  H   UNL     1      53.090   8.262  17.832  0.00  0.00    +0.000 HD
ENDBRANCH  20  23
ENDBRANCH  14  17
ENDBRANCH  13  14
ENDBRANCH  11  13
ENDBRANCH   3  11
BRANCH   1  28
ATOM     28  O   UNL     1      46.073   4.037  14.779  0.00  0.00    +0.000 OA
BRANCH  28  32
ATOM     29  C   UNL     1      48.710   3.204  18.340  0.00  0.00    +0.000 C 
ATOM     30  C   UNL     1      47.667   3.396  17.251  0.00  0.00    +0.000 C 
ATOM     31  C   UNL     1      48.123   2.949  15.837  0.00  0.00    +0.000 C 
ATOM     32  C   UNL     1      47.428   4.210  15.268  0.00  0.00    +0.000 C 
ATOM     33  C   UNL     1      47.558   4.832  16.679  0.00  0.00    +0.000 C 
BRANCH  30  34
ATOM     34  O   UNL     1      46.414   2.843  17.708  0.00  0.00    +0.000 OA
ATOM     35  H   UNL     1      46.635   2.298  18.481  0.00  0.00    +0.000 HD
ENDBRANCH  30  34
ENDBRANCH  28  32
ENDBRANCH   1  28
TORSDOF 9
ENDMDL
MODEL 9
REMARK VINA RESULT:    -6.883      3.138      4.218
REMARK INTER + INTRA:         -11.790
REMARK INTER:                 -10.750
REMARK INTRA:                  -1.039
REMARK UNBOUND:                -1.486
REMARK  Name = 
REMARK  10 active torsions:
REMARK  status: ('A' for Active; 'I' for Inactive)
REMARK    1  A    between atoms: C_1  and  C_2
REMARK    2  A    between atoms: C_2  and  O_3
REMARK    3  A    between atoms: C_5  and  O_6
REMARK    4  A    between atoms: O_6  and  C_7
REMARK    5  A    between atoms: C_9  and  N_10
REMARK    6  A    between atoms: N_10  and  C_11
REMARK    7  A    between atoms: C_11  and  C_12
REMARK    8  A    between atoms: C_12  and  C_15
REMARK    9  A    between atoms: C_18  and  C_19
REMARK   10  A    between atoms: C_25  and  C_26
REMARK                            x       y       z     vdW  Elec       q    Type
REMARK                         _______ _______ _______ _____ _____    ______ ____
ROOT
ATOM      1  C   UNL     1      48.305   6.306  15.343  0.00  0.00    +0.000 A 
ATOM      2  C   UNL     1      47.610   6.053  14.148  0.00  0.00    +0.000 A 
ATOM      3  C   UNL     1      46.959   4.829  13.930  0.00  0.00    +0.000 A 
ATOM      4  C   UNL     1      47.089   3.847  14.920  0.00  0.00    +0.000 A 
ATOM      5  C   UNL     1      47.784   4.078  16.117  0.00  0.00    +0.000 A 
ATOM      6  C   UNL     1      48.389   5.321  16.322  0.00  0.00    +0.000 A 
ENDROOT
BRANCH   5   7
ATOM      7  C   UNL     1      47.887   2.998  17.161  0.00  0.00    +0.000 C 
ATOM      8  F   UNL     1      46.679   2.522  17.575  0.00  0.00    +0.000 F 
ATOM      9  F   UNL     1      48.586   1.915  16.725  0.00  0.00    +0.000 F 
ATOM     10  F   UNL     1      48.521   3.427  18.287  0.00  0.00    +0.000 F 
ENDBRANCH   5   7
BRANCH   3  11
ATOM     11  N   UNL     1      46.331   4.580  12.703  0.00  0.00    +0.000 N 
ATOM     12  H   UNL     1      46.729   5.101  11.923  0.00  0.00    +0.000 HD
BRANCH  11  13
ATOM     13  C   UNL     1      44.861   4.409  12.664  0.00  0.00    +0.000 C 
BRANCH  13  14
ATOM     14  C   UNL     1      44.171   4.855  11.351  0.00  0.00    +0.000 C 
ATOM     15  F   UNL     1      42.848   4.520  11.427  0.00  0.00    +0.000 F 
ATOM     16  F   UNL     1      44.195   6.217  11.269  0.00  0.00    +0.000 F 
BRANCH  14  17
ATOM     17  C   UNL     1      44.854   4.211  10.163  0.00  0.00    +0.000 A 
ATOM     18  C   UNL     1      44.773   2.831   9.932  0.00  0.00    +0.000 A 
ATOM     19  C   UNL     1      45.379   2.276   8.806  0.00  0.00    +0.000 A 
ATOM     20  C   UNL     1      46.051   3.123   7.936  0.00  0.00    +0.000 A 
ATOM     21  N   UNL     1      46.149   4.472   8.124  0.00  0.00    +0.000 NA
ATOM     22  C   UNL     1      45.553   4.975   9.232  0.00  0.00    +0.000 A 
BRANCH  20  23
ATOM     23  C   UNL     1      46.713   2.558   6.717  0.00  0.00    +0.000 C 
ATOM     24  N   UNL     1      46.974   3.456   5.716  0.00  0.00    +0.000 N 
ATOM     25  O   UNL     1      47.006   1.375   6.613  0.00  0.00    +0.000 OA
ATOM     26  H   UNL     1      46.729   4.431   5.843  0.00  0.00    +0.000 HD
ATOM     27  H   UNL     1      47.433   3.145   4.873  0.00  0.00    +0.000 HD
ENDBRANCH  20  23
ENDBRANCH  14  17
ENDBRANCH  13  14
ENDBRANCH  11  13
ENDBRANCH   3  11
BRANCH   1  28
ATOM     28  O   UNL     1      48.919   7.534  15.452  0.00  0.00    +0.000 OA
BRANCH  28  32
ATOM     29  C   UNL     1      53.023   9.132  16.414  0.00  0.00    +0.000 C 
ATOM     30  C   UNL     1      51.584   8.663  16.280  0.00  0.00    +0.000 C 
ATOM     31  C   UNL     1      51.427   7.204  15.776  0.00  0.00    +0.000 C 
ATOM     32  C   UNL     1      50.249   7.686  14.894  0.00  0.00    +0.000 C 
ATOM     33  C   UNL     1      50.856   9.108  14.986  0.00  0.00    +0.000 C 
BRANCH  30  34
ATOM     34  O   UNL     1      50.877   8.984  17.497  0.00  0.00    +0.000 OA
ATOM     35  H   UNL     1      51.562   9.224  18.142  0.00  0.00    +0.000 HD
ENDBRANCH  30  34
ENDBRANCH  28  32
ENDBRANCH   1  28
TORSDOF 9
ENDMDL
