MODEL 1
REMARK VINA RESULT:    -7.621      0.000      0.000
REMARK INTER + INTRA:          -9.564
REMARK INTER:                  -8.958
REMARK INTRA:                  -0.606
REMARK UNBOUND:                -0.606
REMARK  Name = 
REMARK  3 active torsions:
REMARK  status: ('A' for Active; 'I' for Inactive)
REMARK    1  A    between atoms: C_2  and  C_3
REMARK    2  A    between atoms: N_5  and  C_6
REMARK    3  A    between atoms: C_6  and  C_7
REMARK                            x       y       z     vdW  Elec       q    Type
REMARK                         _______ _______ _______ _____ _____    ______ ____
ROOT
ATOM      1  C   UNL     1      46.168   4.194  13.162  0.00  0.00    +0.000 A 
ATOM      2  C   UNL     1      45.632   3.354  12.211  0.00  0.00    +0.000 A 
ATOM      3  N   UNL     1      45.016   4.129  11.260  0.00  0.00    +0.000 N 
ATOM      4  C   UNL     1      45.166   5.469  11.571  0.00  0.00    +0.000 A 
ATOM      5  C   UNL     1      44.734   6.627  10.905  0.00  0.00    +0.000 A 
ATOM      6  C   UNL     1      45.038   7.868  11.474  0.00  0.00    +0.000 A 
ATOM      7  C   UNL     1      45.746   7.955  12.667  0.00  0.00    +0.000 A 
ATOM      8  C   UNL     1      46.173   6.798  13.325  0.00  0.00    +0.000 A 
ATOM      9  C   UNL     1      45.885   5.532  12.771  0.00  0.00    +0.000 A 
ENDROOT
BRANCH   1  11
ATOM     10  N   UNL     1      47.469   3.427  15.267  0.00  0.00    +0.000 NA
ATOM     11  C   UNL     1      46.880   3.769  14.323  0.00  0.00    +0.000 C 
ENDBRANCH   1  11
BRANCH   3  12
ATOM     12  C   UNL     1      44.282   3.597  10.107  0.00  0.00    +0.000 C 
BRANCH  12  13
ATOM     13  C   UNL     1      45.222   3.154   9.011  0.00  0.00    +0.000 A 
ATOM     14  C   UNL     1      45.718   4.076   8.075  0.00  0.00    +0.000 A 
ATOM     15  C   UNL     1      46.480   3.649   6.988  0.00  0.00    +0.000 A 
ATOM     16  C   UNL     1      46.782   2.298   6.835  0.00  0.00    +0.000 A 
ATOM     17  C   UNL     1      46.348   1.383   7.793  0.00  0.00    +0.000 A 
ATOM     18 CL   UNL     1      46.736  -0.284   7.615  0.00  0.00    +0.000 Cl
ATOM     19  C   UNL     1      45.583   1.804   8.881  0.00  0.00    +0.000 A 
ENDBRANCH  12  13
ENDBRANCH   3  12
TORSDOF 3
ENDMDL
MODEL 2
REMARK VINA RESULT:    -7.366      1.378      2.906
REMARK INTER + INTRA:          -9.264
REMARK INTER:                  -8.671
REMARK INTRA:                  -0.593
REMARK UNBOUND:                -0.606
REMARK  Name = 
REMARK  3 active torsions:
REMARK  status: ('A' for Active; 'I' for Inactive)
REMARK    1  A    between atoms: C_2  and  C_3
REMARK    2  A    between atoms: N_5  and  C_6
REMARK    3  A    between atoms: C_6  and  C_7
REMARK                            x       y       z     vdW  Elec       q    Type
REMARK                         _______ _______ _______ _____ _____    ______ ____
ROOT
ATOM      1  C   UNL     1      45.118   6.777  11.805  0.00  0.00    +0.000 A 
ATOM      2  C   UNL     1      44.422   6.149  10.796  0.00  0.00    +0.000 A 
ATOM      3  N   UNL     1      44.625   4.796  10.921  0.00  0.00    +0.000 N 
ATOM      4  C   UNL     1      45.427   4.536  12.017  0.00  0.00    +0.000 A 
ATOM      5  C   UNL     1      45.892   3.328  12.558  0.00  0.00    +0.000 A 
ATOM      6  C   UNL     1      46.706   3.381  13.694  0.00  0.00    +0.000 A 
ATOM      7  C   UNL     1      47.049   4.598  14.273  0.00  0.00    +0.000 A 
ATOM      8  C   UNL     1      46.582   5.799  13.730  0.00  0.00    +0.000 A 
ATOM      9  C   UNL     1      45.754   5.773  12.587  0.00  0.00    +0.000 A 
ENDROOT
BRANCH   1  11
ATOM     10  N   UNL     1      45.212   9.340  12.166  0.00  0.00    +0.000 NA
ATOM     11  C   UNL     1      45.169   8.189  12.009  0.00  0.00    +0.000 C 
ENDBRANCH   1  11
BRANCH   3  12
ATOM     12  C   UNL     1      44.088   3.790   9.998  0.00  0.00    +0.000 C 
BRANCH  12  13
ATOM     13  C   UNL     1      45.132   3.336   9.008  0.00  0.00    +0.000 A 
ATOM     14  C   UNL     1      45.767   4.258   8.160  0.00  0.00    +0.000 A 
ATOM     15  C   UNL     1      46.636   3.826   7.158  0.00  0.00    +0.000 A 
ATOM     16  C   UNL     1      46.905   2.468   7.005  0.00  0.00    +0.000 A 
ATOM     17  C   UNL     1      46.330   1.550   7.881  0.00  0.00    +0.000 A 
ATOM     18 CL   UNL     1      46.675  -0.127   7.706  0.00  0.00    +0.000 Cl
ATOM     19  C   UNL     1      45.457   1.976   8.885  0.00  0.00    +0.000 A 
ENDBRANCH  12  13
ENDBRANCH   3  12
TORSDOF 3
ENDMDL
MODEL 3
REMARK VINA RESULT:    -6.826      1.838      2.508
REMARK INTER + INTRA:          -8.629
REMARK INTER:                  -8.145
REMARK INTRA:                  -0.485
REMARK UNBOUND:                -0.606
REMARK  Name = 
REMARK  3 active torsions:
REMARK  status: ('A' for Active; 'I' for Inactive)
REMARK    1  A    between atoms: C_2  and  C_3
REMARK    2  A    between atoms: N_5  and  C_6
REMARK    3  A    between atoms: C_6  and  C_7
REMARK                            x       y       z     vdW  Elec       q    Type
REMARK                         _______ _______ _______ _____ _____    ______ ____
ROOT
ATOM      1  C   UNL     1      46.740   4.918  13.974  0.00  0.00    +0.000 A 
ATOM      2  C   UNL     1      45.661   4.685  13.149  0.00  0.00    +0.000 A 
ATOM      3  N   UNL     1      45.740   5.557  12.091  0.00  0.00    +0.000 N 
ATOM      4  C   UNL     1      46.874   6.340  12.207  0.00  0.00    +0.000 A 
ATOM      5  C   UNL     1      47.391   7.349  11.379  0.00  0.00    +0.000 A 
ATOM      6  C   UNL     1      48.579   7.978  11.764  0.00  0.00    +0.000 A 
ATOM      7  C   UNL     1      49.231   7.618  12.939  0.00  0.00    +0.000 A 
ATOM      8  C   UNL     1      48.711   6.613  13.760  0.00  0.00    +0.000 A 
ATOM      9  C   UNL     1      47.517   5.958  13.391  0.00  0.00    +0.000 A 
ENDROOT
BRANCH   1  11
ATOM     10  N   UNL     1      47.217   3.649  16.181  0.00  0.00    +0.000 NA
ATOM     11  C   UNL     1      47.008   4.221  15.190  0.00  0.00    +0.000 C 
ENDBRANCH   1  11
BRANCH   3  12
ATOM     12  C   UNL     1      44.742   5.653  11.022  0.00  0.00    +0.000 C 
BRANCH  12  13
ATOM     13  C   UNL     1      44.851   4.495  10.059  0.00  0.00    +0.000 A 
ATOM     14  C   UNL     1      44.269   3.253  10.362  0.00  0.00    +0.000 A 
ATOM     15  C   UNL     1      44.478   2.147   9.537  0.00  0.00    +0.000 A 
ATOM     16  C   UNL     1      45.248   2.273   8.384  0.00  0.00    +0.000 A 
ATOM     17  C   UNL     1      45.777   3.515   8.041  0.00  0.00    +0.000 A 
ATOM     18 CL   UNL     1      46.714   3.676   6.606  0.00  0.00    +0.000 Cl
ATOM     19  C   UNL     1      45.574   4.625   8.863  0.00  0.00    +0.000 A 
ENDBRANCH  12  13
ENDBRANCH   3  12
TORSDOF 3
ENDMDL
MODEL 4
REMARK VINA RESULT:    -6.236      1.926      2.768
REMARK INTER + INTRA:          -7.937
REMARK INTER:                  -7.401
REMARK INTRA:                  -0.535
REMARK UNBOUND:                -0.606
REMARK  Name = 
REMARK  3 active torsions:
REMARK  status: ('A' for Active; 'I' for Inactive)
REMARK    1  A    between atoms: C_2  and  C_3
REMARK    2  A    between atoms: N_5  and  C_6
REMARK    3  A    between atoms: C_6  and  C_7
REMARK                            x       y       z     vdW  Elec       q    Type
REMARK                         _______ _______ _______ _____ _____    ______ ____
ROOT
ATOM      1  C   UNL     1      46.701   6.775  12.784  0.00  0.00    +0.000 A 
ATOM      2  C   UNL     1      45.901   5.741  12.350  0.00  0.00    +0.000 A 
ATOM      3  N   UNL     1      44.843   6.284  11.663  0.00  0.00    +0.000 N 
ATOM      4  C   UNL     1      44.960   7.662  11.625  0.00  0.00    +0.000 A 
ATOM      5  C   UNL     1      44.149   8.643  11.034  0.00  0.00    +0.000 A 
ATOM      6  C   UNL     1      44.527   9.983  11.168  0.00  0.00    +0.000 A 
ATOM      7  C   UNL     1      45.674  10.336  11.870  0.00  0.00    +0.000 A 
ATOM      8  C   UNL     1      46.478   9.354  12.457  0.00  0.00    +0.000 A 
ATOM      9  C   UNL     1      46.122   7.994  12.332  0.00  0.00    +0.000 A 
ENDROOT
BRANCH   1  11
ATOM     10  N   UNL     1      48.876   6.493  14.162  0.00  0.00    +0.000 NA
ATOM     11  C   UNL     1      47.897   6.621  13.547  0.00  0.00    +0.000 C 
ENDBRANCH   1  11
BRANCH   3  12
ATOM     12  C   UNL     1      43.742   5.504  11.088  0.00  0.00    +0.000 C 
BRANCH  12  13
ATOM     13  C   UNL     1      44.255   4.405  10.189  0.00  0.00    +0.000 A 
ATOM     14  C   UNL     1      43.932   3.062  10.441  0.00  0.00    +0.000 A 
ATOM     15  C   UNL     1      44.508   2.037   9.691  0.00  0.00    +0.000 A 
ATOM     16  C   UNL     1      45.394   2.339   8.659  0.00  0.00    +0.000 A 
ATOM     17  C   UNL     1      45.671   3.671   8.360  0.00  0.00    +0.000 A 
ATOM     18 CL   UNL     1      46.752   4.048   7.074  0.00  0.00    +0.000 Cl
ATOM     19  C   UNL     1      45.101   4.702   9.108  0.00  0.00    +0.000 A 
ENDBRANCH  12  13
ENDBRANCH   3  12
TORSDOF 3
ENDMDL
MODEL 5
REMARK VINA RESULT:    -6.089      1.881      2.362
REMARK INTER + INTRA:          -7.763
REMARK INTER:                  -7.187
REMARK INTRA:                  -0.576
REMARK UNBOUND:                -0.606
REMARK  Name = 
REMARK  3 active torsions:
REMARK  status: ('A' for Active; 'I' for Inactive)
REMARK    1  A    between atoms: C_2  and  C_3
REMARK    2  A    between atoms: N_5  and  C_6
REMARK    3  A    between atoms: C_6  and  C_7
REMARK                            x       y       z     vdW  Elec       q    Type
REMARK                         _______ _______ _______ _____ _____    ______ ____
ROOT
ATOM      1  C   UNL     1      46.867   5.095  14.027  0.00  0.00    +0.000 A 
ATOM      2  C   UNL     1      45.843   4.900  13.126  0.00  0.00    +0.000 A 
ATOM      3  N   UNL     1      46.008   5.796  12.098  0.00  0.00    +0.000 N 
ATOM      4  C   UNL     1      47.144   6.556  12.310  0.00  0.00    +0.000 A 
ATOM      5  C   UNL     1      47.732   7.575  11.544  0.00  0.00    +0.000 A 
ATOM      6  C   UNL     1      48.900   8.174  12.025  0.00  0.00    +0.000 A 
ATOM      7  C   UNL     1      49.465   7.775  13.231  0.00  0.00    +0.000 A 
ATOM      8  C   UNL     1      48.875   6.760  13.990  0.00  0.00    +0.000 A 
ATOM      9  C   UNL     1      47.698   6.135  13.525  0.00  0.00    +0.000 A 
ENDROOT
BRANCH   1  11
ATOM     10  N   UNL     1      47.191   3.771  16.230  0.00  0.00    +0.000 NA
ATOM     11  C   UNL     1      47.040   4.364  15.241  0.00  0.00    +0.000 C 
ENDBRANCH   1  11
BRANCH   3  12
ATOM     12  C   UNL     1      45.087   5.934  10.966  0.00  0.00    +0.000 C 
BRANCH  12  13
ATOM     13  C   UNL     1      45.383   4.922   9.886  0.00  0.00    +0.000 A 
ATOM     14  C   UNL     1      46.180   5.263   8.781  0.00  0.00    +0.000 A 
ATOM     15  C   UNL     1      46.349   4.372   7.721  0.00  0.00    +0.000 A 
ATOM     16  C   UNL     1      45.746   3.118   7.761  0.00  0.00    +0.000 A 
ATOM     17  C   UNL     1      45.005   2.746   8.881  0.00  0.00    +0.000 A 
ATOM     18 CL   UNL     1      44.274   1.188   8.939  0.00  0.00    +0.000 Cl
ATOM     19  C   UNL     1      44.830   3.632   9.944  0.00  0.00    +0.000 A 
ENDBRANCH  12  13
ENDBRANCH   3  12
TORSDOF 3
ENDMDL
MODEL 6
REMARK VINA RESULT:    -5.844      3.256      6.184
REMARK INTER + INTRA:          -7.475
REMARK INTER:                  -6.872
REMARK INTRA:                  -0.603
REMARK UNBOUND:                -0.606
REMARK  Name = 
REMARK  3 active torsions:
REMARK  status: ('A' for Active; 'I' for Inactive)
REMARK    1  A    between atoms: C_2  and  C_3
REMARK    2  A    between atoms: N_5  and  C_6
REMARK    3  A    between atoms: C_6  and  C_7
REMARK                            x       y       z     vdW  Elec       q    Type
REMARK                         _______ _______ _______ _____ _____    ______ ____
ROOT
ATOM      1  C   UNL     1      45.518   4.654   9.295  0.00  0.00    +0.000 A 
ATOM      2  C   UNL     1      46.011   5.871   9.710  0.00  0.00    +0.000 A 
ATOM      3  N   UNL     1      45.561   6.096  10.989  0.00  0.00    +0.000 N 
ATOM      4  C   UNL     1      44.800   5.025  11.419  0.00  0.00    +0.000 A 
ATOM      5  C   UNL     1      44.149   4.783  12.638  0.00  0.00    +0.000 A 
ATOM      6  C   UNL     1      43.438   3.587  12.783  0.00  0.00    +0.000 A 
ATOM      7  C   UNL     1      43.375   2.662  11.747  0.00  0.00    +0.000 A 
ATOM      8  C   UNL     1      44.026   2.909  10.534  0.00  0.00    +0.000 A 
ATOM      9  C   UNL     1      44.755   4.105  10.363  0.00  0.00    +0.000 A 
ENDROOT
BRANCH   1  11
ATOM     10  N   UNL     1      45.935   3.591   6.970  0.00  0.00    +0.000 NA
ATOM     11  C   UNL     1      45.753   4.068   8.015  0.00  0.00    +0.000 C 
ENDBRANCH   1  11
BRANCH   3  12
ATOM     12  C   UNL     1      45.832   7.315  11.758  0.00  0.00    +0.000 C 
BRANCH  12  13
ATOM     13  C   UNL     1      47.198   7.272  12.399  0.00  0.00    +0.000 A 
ATOM     14  C   UNL     1      47.376   6.707  13.673  0.00  0.00    +0.000 A 
ATOM     15  C   UNL     1      48.609   6.782  14.321  0.00  0.00    +0.000 A 
ATOM     16  C   UNL     1      49.690   7.396  13.694  0.00  0.00    +0.000 A 
ATOM     17  C   UNL     1      49.542   7.902  12.405  0.00  0.00    +0.000 A 
ATOM     18 CL   UNL     1      50.883   8.646  11.622  0.00  0.00    +0.000 Cl
ATOM     19  C   UNL     1      48.310   7.834  11.752  0.00  0.00    +0.000 A 
ENDBRANCH  12  13
ENDBRANCH   3  12
TORSDOF 3
ENDMDL
MODEL 7
REMARK VINA RESULT:    -5.767      1.934      2.404
REMARK INTER + INTRA:          -7.385
REMARK INTER:                  -6.951
REMARK INTRA:                  -0.434
REMARK UNBOUND:                -0.606
REMARK  Name = 
REMARK  3 active torsions:
REMARK  status: ('A' for Active; 'I' for Inactive)
REMARK    1  A    between atoms: C_2  and  C_3
REMARK    2  A    between atoms: N_5  and  C_6
REMARK    3  A    between atoms: C_6  and  C_7
REMARK                            x       y       z     vdW  Elec       q    Type
REMARK                         _______ _______ _______ _____ _____    ______ ____
ROOT
ATOM      1  C   UNL     1      44.013   4.391  12.123  0.00  0.00    +0.000 A 
ATOM      2  C   UNL     1      43.666   3.960  10.861  0.00  0.00    +0.000 A 
ATOM      3  N   UNL     1      44.508   4.567   9.961  0.00  0.00    +0.000 N 
ATOM      4  C   UNL     1      45.415   5.369  10.627  0.00  0.00    +0.000 A 
ATOM      5  C   UNL     1      46.469   6.165  10.153  0.00  0.00    +0.000 A 
ATOM      6  C   UNL     1      47.229   6.882  11.084  0.00  0.00    +0.000 A 
ATOM      7  C   UNL     1      46.948   6.810  12.443  0.00  0.00    +0.000 A 
ATOM      8  C   UNL     1      45.896   6.015  12.910  0.00  0.00    +0.000 A 
ATOM      9  C   UNL     1      45.117   5.278  11.993  0.00  0.00    +0.000 A 
ENDROOT
BRANCH   1  11
ATOM     10  N   UNL     1      42.842   3.676  14.320  0.00  0.00    +0.000 NA
ATOM     11  C   UNL     1      43.363   3.996  13.331  0.00  0.00    +0.000 C 
ENDBRANCH   1  11
BRANCH   3  12
ATOM     12  C   UNL     1      44.421   4.400   8.506  0.00  0.00    +0.000 C 
BRANCH  12  13
ATOM     13  C   UNL     1      45.263   3.241   8.032  0.00  0.00    +0.000 A 
ATOM     14  C   UNL     1      45.275   2.026   8.737  0.00  0.00    +0.000 A 
ATOM     15  C   UNL     1      46.148   1.000   8.377  0.00  0.00    +0.000 A 
ATOM     16  C   UNL     1      47.002   1.160   7.288  0.00  0.00    +0.000 A 
ATOM     17  C   UNL     1      46.953   2.336   6.543  0.00  0.00    +0.000 A 
ATOM     18 CL   UNL     1      47.994   2.529   5.186  0.00  0.00    +0.000 Cl
ATOM     19  C   UNL     1      46.084   3.369   6.900  0.00  0.00    +0.000 A 
ENDBRANCH  12  13
ENDBRANCH   3  12
TORSDOF 3
ENDMDL
MODEL 8
REMARK VINA RESULT:    -5.673      3.152      5.134
REMARK INTER + INTRA:          -7.274
REMARK INTER:                  -6.752
REMARK INTRA:                  -0.522
REMARK UNBOUND:                -0.606
REMARK  Name = 
REMARK  3 active torsions:
REMARK  status: ('A' for Active; 'I' for Inactive)
REMARK    1  A    between atoms: C_2  and  C_3
REMARK    2  A    between atoms: N_5  and  C_6
REMARK    3  A    between atoms: C_6  and  C_7
REMARK                            x       y       z     vdW  Elec       q    Type
REMARK                         _______ _______ _______ _____ _____    ______ ____
ROOT
ATOM      1  C   UNL     1      46.068   9.296  12.158  0.00  0.00    +0.000 A 
ATOM      2  C   UNL     1      45.622   8.063  12.581  0.00  0.00    +0.000 A 
ATOM      3  N   UNL     1      46.698   7.210  12.607  0.00  0.00    +0.000 N 
ATOM      4  C   UNL     1      47.845   7.883  12.228  0.00  0.00    +0.000 A 
ATOM      5  C   UNL     1      49.177   7.452  12.117  0.00  0.00    +0.000 A 
ATOM      6  C   UNL     1      50.139   8.376  11.698  0.00  0.00    +0.000 A 
ATOM      7  C   UNL     1      49.788   9.687  11.396  0.00  0.00    +0.000 A 
ATOM      8  C   UNL     1      48.460  10.111  11.508  0.00  0.00    +0.000 A 
ATOM      9  C   UNL     1      47.470   9.200  11.935  0.00  0.00    +0.000 A 
ENDROOT
BRANCH   1  11
ATOM     10  N   UNL     1      44.575  11.389  11.842  0.00  0.00    +0.000 NA
ATOM     11  C   UNL     1      45.247  10.451  11.989  0.00  0.00    +0.000 C 
ENDBRANCH   1  11
BRANCH   3  12
ATOM     12  C   UNL     1      46.617   5.788  12.957  0.00  0.00    +0.000 C 
BRANCH  12  13
ATOM     13  C   UNL     1      45.475   5.107  12.242  0.00  0.00    +0.000 A 
ATOM     14  C   UNL     1      44.417   4.531  12.965  0.00  0.00    +0.000 A 
ATOM     15  C   UNL     1      43.429   3.791  12.316  0.00  0.00    +0.000 A 
ATOM     16  C   UNL     1      43.468   3.639  10.932  0.00  0.00    +0.000 A 
ATOM     17  C   UNL     1      44.477   4.260  10.199  0.00  0.00    +0.000 A 
ATOM     18 CL   UNL     1      44.515   4.088   8.487  0.00  0.00    +0.000 Cl
ATOM     19  C   UNL     1      45.470   4.999  10.842  0.00  0.00    +0.000 A 
ENDBRANCH  12  13
ENDBRANCH   3  12
TORSDOF 3
ENDMDL
MODEL 9
REMARK VINA RESULT:    -5.649      3.462      6.502
REMARK INTER + INTRA:          -7.246
REMARK INTER:                  -6.775
REMARK INTRA:                  -0.471
REMARK UNBOUND:                -0.606
REMARK  Name = 
REMARK  3 active torsions:
REMARK  status: ('A' for Active; 'I' for Inactive)
REMARK    1  A    between atoms: C_2  and  C_3
REMARK    2  A    between atoms: N_5  and  C_6
REMARK    3  A    between atoms: C_6  and  C_7
REMARK                            x       y       z     vdW  Elec       q    Type
REMARK                         _______ _______ _______ _____ _____    ______ ____
ROOT
ATOM      1  C   UNL     1      45.648   5.023   9.708  0.00  0.00    +0.000 A 
ATOM      2  C   UNL     1      46.107   6.161  10.333  0.00  0.00    +0.000 A 
ATOM      3  N   UNL     1      45.567   6.198  11.596  0.00  0.00    +0.000 N 
ATOM      4  C   UNL     1      44.780   5.080  11.807  0.00  0.00    +0.000 A 
ATOM      5  C   UNL     1      44.044   4.665  12.928  0.00  0.00    +0.000 A 
ATOM      6  C   UNL     1      43.329   3.467  12.843  0.00  0.00    +0.000 A 
ATOM      7  C   UNL     1      43.341   2.706  11.679  0.00  0.00    +0.000 A 
ATOM      8  C   UNL     1      44.076   3.125  10.565  0.00  0.00    +0.000 A 
ATOM      9  C   UNL     1      44.812   4.328  10.626  0.00  0.00    +0.000 A 
ENDROOT
BRANCH   1  11
ATOM     10  N   UNL     1      46.237   4.322   7.285  0.00  0.00    +0.000 NA
ATOM     11  C   UNL     1      45.974   4.632   8.375  0.00  0.00    +0.000 C 
ENDBRANCH   1  11
BRANCH   3  12
ATOM     12  C   UNL     1      45.779   7.287  12.555  0.00  0.00    +0.000 C 
BRANCH  12  13
ATOM     13  C   UNL     1      45.455   8.630  11.947  0.00  0.00    +0.000 A 
ATOM     14  C   UNL     1      46.336   9.714  12.090  0.00  0.00    +0.000 A 
ATOM     15  C   UNL     1      45.980  10.986  11.642  0.00  0.00    +0.000 A 
ATOM     16  C   UNL     1      44.751  11.188  11.019  0.00  0.00    +0.000 A 
ATOM     17  C   UNL     1      43.897  10.107  10.815  0.00  0.00    +0.000 A 
ATOM     18 CL   UNL     1      42.385  10.351  10.030  0.00  0.00    +0.000 Cl
ATOM     19  C   UNL     1      44.245   8.832  11.264  0.00  0.00    +0.000 A 
ENDBRANCH  12  13
ENDBRANCH   3  12
TORSDOF 3
ENDMDL
