MODEL 1
REMARK VINA RESULT:    -7.969      0.000      0.000
REMARK INTER + INTRA:         -10.993
REMARK INTER:                 -10.298
REMARK INTRA:                  -0.695
REMARK UNBOUND:                -0.695
REMARK  Name = 
REMARK  6 active torsions:
REMARK  status: ('A' for Active; 'I' for Inactive)
REMARK    1  A    between atoms: C_1  and  C_2
REMARK    2  A    between atoms: C_4  and  O_5
REMARK    3  A    between atoms: O_5  and  C_6
REMARK    4  A    between atoms: C_6  and  C_7
REMARK    5  A    between atoms: C_11  and  C_12
REMARK    6  A    between atoms: C_17  and  C_18
REMARK                            x       y       z     vdW  Elec       q    Type
REMARK                         _______ _______ _______ _____ _____    ______ ____
ROOT
ATOM      1  C   UNL     1      47.399   3.369  15.012  0.00  0.00    +0.000 C 
ATOM      2  C   UNL     1      46.885   4.210  13.883  0.00  0.00    +0.000 A 
ATOM      3  C   UNL     1      45.744   3.843  13.180  0.00  0.00    +0.000 A 
ATOM      4  C   UNL     1      45.297   4.675  12.161  0.00  0.00    +0.000 A 
ATOM      5  C   UNL     1      46.024   5.813  11.844  0.00  0.00    +0.000 A 
ATOM      6  C   UNL     1      47.147   6.126  12.594  0.00  0.00    +0.000 A 
ATOM      7  N   UNL     1      47.582   5.340  13.605  0.00  0.00    +0.000 NA
ENDROOT
BRANCH   6   8
ATOM      8  C   UNL     1      47.913   7.356  12.310  0.00  0.00    +0.000 C 
ATOM      9  C   UNL     1      49.236   7.323  12.064  0.00  0.00    +0.000 C 
ATOM     10  C   UNL     1      50.025   8.544  11.699  0.00  0.00    +0.000 C 
ATOM     11  O   UNL     1      49.188   9.654  11.355  0.00  0.00    +0.000 OA
ATOM     12  C   UNL     1      48.157   9.854  12.320  0.00  0.00    +0.000 C 
ATOM     13  C   UNL     1      47.183   8.678  12.288  0.00  0.00    +0.000 C 
ENDBRANCH   6   8
BRANCH   4  14
ATOM     14  O   UNL     1      44.145   4.297  11.524  0.00  0.00    +0.000 OA
BRANCH  14  15
ATOM     15  C   UNL     1      44.194   3.004  10.907  0.00  0.00    +0.000 C 
BRANCH  15  16
ATOM     16  C   UNL     1      44.865   3.081   9.565  0.00  0.00    +0.000 A 
ATOM     17  C   UNL     1      44.862   4.249   8.811  0.00  0.00    +0.000 A 
ATOM     18  N   UNL     1      45.502   4.388   7.631  0.00  0.00    +0.000 NA
ATOM     19  C   UNL     1      46.191   3.312   7.180  0.00  0.00    +0.000 A 
ATOM     20  C   UNL     1      46.278   2.104   7.853  0.00  0.00    +0.000 A 
ATOM     21  C   UNL     1      45.603   1.998   9.072  0.00  0.00    +0.000 A 
BRANCH  20  22
ATOM     22  C   UNL     1      47.057   0.941   7.357  0.00  0.00    +0.000 C 
ATOM     23  N   UNL     1      46.665  -0.318   7.711  0.00  0.00    +0.000 N 
ATOM     24  O   UNL     1      48.038   1.099   6.640  0.00  0.00    +0.000 OA
ATOM     25  H   UNL     1      45.895  -0.557   8.314  0.00  0.00    +0.000 HD
ATOM     26  H   UNL     1      47.231  -1.081   7.358  0.00  0.00    +0.000 HD
ENDBRANCH  20  22
ENDBRANCH  15  16
ENDBRANCH  14  15
ENDBRANCH   4  14
TORSDOF 5
ENDMDL
MODEL 2
REMARK VINA RESULT:    -7.798      2.222      3.316
REMARK INTER + INTRA:         -10.771
REMARK INTER:                 -10.463
REMARK INTRA:                  -0.309
REMARK UNBOUND:                -0.695
REMARK  Name = 
REMARK  6 active torsions:
REMARK  status: ('A' for Active; 'I' for Inactive)
REMARK    1  A    between atoms: C_1  and  C_2
REMARK    2  A    between atoms: C_4  and  O_5
REMARK    3  A    between atoms: O_5  and  C_6
REMARK    4  A    between atoms: C_6  and  C_7
REMARK    5  A    between atoms: C_11  and  C_12
REMARK    6  A    between atoms: C_17  and  C_18
REMARK                            x       y       z     vdW  Elec       q    Type
REMARK                         _______ _______ _______ _____ _____    ______ ____
ROOT
ATOM      1  C   UNL     1      44.958   8.689  11.474  0.00  0.00    +0.000 C 
ATOM      2  C   UNL     1      44.954   7.260  11.928  0.00  0.00    +0.000 A 
ATOM      3  C   UNL     1      44.108   6.326  11.343  0.00  0.00    +0.000 A 
ATOM      4  C   UNL     1      44.166   5.010  11.784  0.00  0.00    +0.000 A 
ATOM      5  C   UNL     1      45.025   4.678  12.821  0.00  0.00    +0.000 A 
ATOM      6  C   UNL     1      45.852   5.657  13.351  0.00  0.00    +0.000 A 
ATOM      7  N   UNL     1      45.826   6.937  12.917  0.00  0.00    +0.000 NA
ENDROOT
BRANCH   6   8
ATOM      8  C   UNL     1      46.811   5.321  14.422  0.00  0.00    +0.000 C 
ATOM      9  C   UNL     1      46.716   4.174  15.120  0.00  0.00    +0.000 C 
ATOM     10  C   UNL     1      47.717   3.770  16.161  0.00  0.00    +0.000 C 
ATOM     11  O   UNL     1      48.906   4.566  16.114  0.00  0.00    +0.000 OA
ATOM     12  C   UNL     1      48.604   5.960  16.058  0.00  0.00    +0.000 C 
ATOM     13  C   UNL     1      47.928   6.290  14.730  0.00  0.00    +0.000 C 
ENDBRANCH   6   8
BRANCH   4  14
ATOM     14  O   UNL     1      43.345   4.116  11.151  0.00  0.00    +0.000 OA
BRANCH  14  15
ATOM     15  C   UNL     1      43.963   2.871  10.803  0.00  0.00    +0.000 C 
BRANCH  15  16
ATOM     16  C   UNL     1      44.733   2.999   9.520  0.00  0.00    +0.000 A 
ATOM     17  C   UNL     1      44.762   4.188   8.800  0.00  0.00    +0.000 A 
ATOM     18  N   UNL     1      45.488   4.374   7.677  0.00  0.00    +0.000 NA
ATOM     19  C   UNL     1      46.233   3.325   7.251  0.00  0.00    +0.000 A 
ATOM     20  C   UNL     1      46.294   2.100   7.896  0.00  0.00    +0.000 A 
ATOM     21  C   UNL     1      45.530   1.946   9.056  0.00  0.00    +0.000 A 
BRANCH  20  22
ATOM     22  C   UNL     1      47.133   0.966   7.430  0.00  0.00    +0.000 C 
ATOM     23  N   UNL     1      46.729  -0.310   7.695  0.00  0.00    +0.000 N 
ATOM     24  O   UNL     1      48.175   1.165   6.816  0.00  0.00    +0.000 OA
ATOM     25  H   UNL     1      45.909  -0.583   8.213  0.00  0.00    +0.000 HD
ATOM     26  H   UNL     1      47.337  -1.052   7.368  0.00  0.00    +0.000 HD
ENDBRANCH  20  22
ENDBRANCH  15  16
ENDBRANCH  14  15
ENDBRANCH   4  14
TORSDOF 5
ENDMDL
MODEL 3
REMARK VINA RESULT:    -7.634      1.870      2.392
REMARK INTER + INTRA:         -10.560
REMARK INTER:                  -9.787
REMARK INTRA:                  -0.773
REMARK UNBOUND:                -0.695
REMARK  Name = 
REMARK  6 active torsions:
REMARK  status: ('A' for Active; 'I' for Inactive)
REMARK    1  A    between atoms: C_1  and  C_2
REMARK    2  A    between atoms: C_4  and  O_5
REMARK    3  A    between atoms: O_5  and  C_6
REMARK    4  A    between atoms: C_6  and  C_7
REMARK    5  A    between atoms: C_11  and  C_12
REMARK    6  A    between atoms: C_17  and  C_18
REMARK                            x       y       z     vdW  Elec       q    Type
REMARK                         _______ _______ _______ _____ _____    ______ ____
ROOT
ATOM      1  C   UNL     1      46.881   4.538  14.342  0.00  0.00    +0.000 C 
ATOM      2  C   UNL     1      46.125   5.201  13.230  0.00  0.00    +0.000 A 
ATOM      3  C   UNL     1      45.296   4.466  12.391  0.00  0.00    +0.000 A 
ATOM      4  C   UNL     1      44.598   5.136  11.395  0.00  0.00    +0.000 A 
ATOM      5  C   UNL     1      44.784   6.502  11.235  0.00  0.00    +0.000 A 
ATOM      6  C   UNL     1      45.617   7.176  12.115  0.00  0.00    +0.000 A 
ATOM      7  N   UNL     1      46.285   6.543  13.106  0.00  0.00    +0.000 NA
ENDROOT
BRANCH   6   8
ATOM      8  C   UNL     1      45.795   8.637  11.999  0.00  0.00    +0.000 C 
ATOM      9  C   UNL     1      46.937   9.241  12.378  0.00  0.00    +0.000 C 
ATOM     10  C   UNL     1      47.176  10.710  12.203  0.00  0.00    +0.000 C 
ATOM     11  O   UNL     1      46.212  11.322  11.341  0.00  0.00    +0.000 OA
ATOM     12  C   UNL     1      44.880  10.954  11.695  0.00  0.00    +0.000 C 
ATOM     13  C   UNL     1      44.667   9.465  11.431  0.00  0.00    +0.000 C 
ENDBRANCH   6   8
BRANCH   4  14
ATOM     14  O   UNL     1      43.761   4.379  10.620  0.00  0.00    +0.000 OA
BRANCH  14  15
ATOM     15  C   UNL     1      43.990   4.480   9.208  0.00  0.00    +0.000 C 
BRANCH  15  16
ATOM     16  C   UNL     1      44.872   3.363   8.732  0.00  0.00    +0.000 A 
ATOM     17  C   UNL     1      44.796   2.087   9.277  0.00  0.00    +0.000 A 
ATOM     18  N   UNL     1      45.522   1.034   8.842  0.00  0.00    +0.000 NA
ATOM     19  C   UNL     1      46.361   1.260   7.803  0.00  0.00    +0.000 A 
ATOM     20  C   UNL     1      46.508   2.484   7.170  0.00  0.00    +0.000 A 
ATOM     21  C   UNL     1      45.739   3.549   7.648  0.00  0.00    +0.000 A 
BRANCH  20  22
ATOM     22  C   UNL     1      47.415   2.710   6.016  0.00  0.00    +0.000 C 
ATOM     23  N   UNL     1      48.709   2.282   6.097  0.00  0.00    +0.000 N 
ATOM     24  O   UNL     1      47.017   3.272   5.003  0.00  0.00    +0.000 OA
ATOM     25  H   UNL     1      49.143   1.836   6.889  0.00  0.00    +0.000 HD
ATOM     26  H   UNL     1      49.294   2.467   5.291  0.00  0.00    +0.000 HD
ENDBRANCH  20  22
ENDBRANCH  15  16
ENDBRANCH  14  15
ENDBRANCH   4  14
TORSDOF 5
ENDMDL
MODEL 4
REMARK VINA RESULT:    -7.582      2.109      6.838
REMARK INTER + INTRA:         -10.493
REMARK INTER:                  -9.928
REMARK INTRA:                  -0.565
REMARK UNBOUND:                -0.695
REMARK  Name = 
REMARK  6 active torsions:
REMARK  status: ('A' for Active; 'I' for Inactive)
REMARK    1  A    between atoms: C_1  and  C_2
REMARK    2  A    between atoms: C_4  and  O_5
REMARK    3  A    between atoms: O_5  and  C_6
REMARK    4  A    between atoms: C_6  and  C_7
REMARK    5  A    between atoms: C_11  and  C_12
REMARK    6  A    between atoms: C_17  and  C_18
REMARK                            x       y       z     vdW  Elec       q    Type
REMARK                         _______ _______ _______ _____ _____    ______ ____
ROOT
ATOM      1  C   UNL     1      43.115   2.282  11.514  0.00  0.00    +0.000 C 
ATOM      2  C   UNL     1      44.010   3.177  10.711  0.00  0.00    +0.000 A 
ATOM      3  C   UNL     1      44.155   4.521  11.035  0.00  0.00    +0.000 A 
ATOM      4  C   UNL     1      45.020   5.296  10.274  0.00  0.00    +0.000 A 
ATOM      5  C   UNL     1      45.672   4.725   9.191  0.00  0.00    +0.000 A 
ATOM      6  C   UNL     1      45.491   3.375   8.931  0.00  0.00    +0.000 A 
ATOM      7  N   UNL     1      44.672   2.599   9.677  0.00  0.00    +0.000 NA
ENDROOT
BRANCH   6   8
ATOM      8  C   UNL     1      46.210   2.729   7.815  0.00  0.00    +0.000 C 
ATOM      9  C   UNL     1      46.515   3.402   6.689  0.00  0.00    +0.000 C 
ATOM     10  C   UNL     1      47.309   2.796   5.571  0.00  0.00    +0.000 C 
ATOM     11  O   UNL     1      47.943   1.571   5.951  0.00  0.00    +0.000 OA
ATOM     12  C   UNL     1      47.033   0.689   6.607  0.00  0.00    +0.000 C 
ATOM     13  C   UNL     1      46.617   1.281   7.952  0.00  0.00    +0.000 C 
ENDBRANCH   6   8
BRANCH   4  14
ATOM     14  O   UNL     1      45.164   6.604  10.654  0.00  0.00    +0.000 OA
BRANCH  14  15
ATOM     15  C   UNL     1      44.856   6.869  12.029  0.00  0.00    +0.000 C 
BRANCH  15  16
ATOM     16  C   UNL     1      46.052   6.614  12.901  0.00  0.00    +0.000 A 
ATOM     17  C   UNL     1      47.053   7.564  13.066  0.00  0.00    +0.000 A 
ATOM     18  N   UNL     1      48.115   7.408  13.886  0.00  0.00    +0.000 NA
ATOM     19  C   UNL     1      48.180   6.249  14.586  0.00  0.00    +0.000 A 
ATOM     20  C   UNL     1      47.234   5.240  14.513  0.00  0.00    +0.000 A 
ATOM     21  C   UNL     1      46.148   5.438  13.655  0.00  0.00    +0.000 A 
BRANCH  20  22
ATOM     22  C   UNL     1      47.307   3.986  15.304  0.00  0.00    +0.000 C 
ATOM     23  N   UNL     1      46.937   4.008  16.618  0.00  0.00    +0.000 N 
ATOM     24  O   UNL     1      47.694   2.941  14.794  0.00  0.00    +0.000 OA
ATOM     25  H   UNL     1      46.632   4.814  17.140  0.00  0.00    +0.000 HD
ATOM     26  H   UNL     1      47.013   3.132  17.122  0.00  0.00    +0.000 HD
ENDBRANCH  20  22
ENDBRANCH  15  16
ENDBRANCH  14  15
ENDBRANCH   4  14
TORSDOF 5
ENDMDL
MODEL 5
REMARK VINA RESULT:    -7.325      2.273      4.054
REMARK INTER + INTRA:         -10.160
REMARK INTER:                  -9.406
REMARK INTRA:                  -0.754
REMARK UNBOUND:                -0.695
REMARK  Name = 
REMARK  6 active torsions:
REMARK  status: ('A' for Active; 'I' for Inactive)
REMARK    1  A    between atoms: C_1  and  C_2
REMARK    2  A    between atoms: C_4  and  O_5
REMARK    3  A    between atoms: O_5  and  C_6
REMARK    4  A    between atoms: C_6  and  C_7
REMARK    5  A    between atoms: C_11  and  C_12
REMARK    6  A    between atoms: C_17  and  C_18
REMARK                            x       y       z     vdW  Elec       q    Type
REMARK                         _______ _______ _______ _____ _____    ______ ____
ROOT
ATOM      1  C   UNL     1      49.018   7.771  11.782  0.00  0.00    +0.000 C 
ATOM      2  C   UNL     1      48.007   6.840  12.381  0.00  0.00    +0.000 A 
ATOM      3  C   UNL     1      46.839   6.519  11.701  0.00  0.00    +0.000 A 
ATOM      4  C   UNL     1      45.951   5.629  12.292  0.00  0.00    +0.000 A 
ATOM      5  C   UNL     1      46.228   5.130  13.556  0.00  0.00    +0.000 A 
ATOM      6  C   UNL     1      47.418   5.483  14.174  0.00  0.00    +0.000 A 
ATOM      7  N   UNL     1      48.306   6.328  13.602  0.00  0.00    +0.000 NA
ENDROOT
BRANCH   6   8
ATOM      8  C   UNL     1      47.762   4.929  15.498  0.00  0.00    +0.000 C 
ATOM      9  C   UNL     1      48.464   5.639  16.400  0.00  0.00    +0.000 C 
ATOM     10  C   UNL     1      48.763   5.133  17.779  0.00  0.00    +0.000 C 
ATOM     11  O   UNL     1      47.987   3.979  18.119  0.00  0.00    +0.000 OA
ATOM     12  C   UNL     1      48.020   2.999  17.082  0.00  0.00    +0.000 C 
ATOM     13  C   UNL     1      47.304   3.532  15.843  0.00  0.00    +0.000 C 
ENDBRANCH   6   8
BRANCH   4  14
ATOM     14  O   UNL     1      44.835   5.308  11.567  0.00  0.00    +0.000 OA
BRANCH  14  15
ATOM     15  C   UNL     1      44.971   5.463  10.148  0.00  0.00    +0.000 C 
BRANCH  15  16
ATOM     16  C   UNL     1      45.225   4.136   9.491  0.00  0.00    +0.000 A 
ATOM     17  C   UNL     1      44.499   3.001   9.832  0.00  0.00    +0.000 A 
ATOM     18  N   UNL     1      44.645   1.801   9.228  0.00  0.00    +0.000 NA
ATOM     19  C   UNL     1      45.554   1.729   8.225  0.00  0.00    +0.000 A 
ATOM     20  C   UNL     1      46.321   2.798   7.790  0.00  0.00    +0.000 A 
ATOM     21  C   UNL     1      46.141   4.024   8.438  0.00  0.00    +0.000 A 
BRANCH  20  22
ATOM     22  C   UNL     1      47.297   2.710   6.674  0.00  0.00    +0.000 C 
ATOM     23  N   UNL     1      46.998   3.308   5.484  0.00  0.00    +0.000 N 
ATOM     24  O   UNL     1      48.357   2.110   6.810  0.00  0.00    +0.000 OA
ATOM     25  H   UNL     1      46.149   3.799   5.258  0.00  0.00    +0.000 HD
ATOM     26  H   UNL     1      47.688   3.213   4.748  0.00  0.00    +0.000 HD
ENDBRANCH  20  22
ENDBRANCH  15  16
ENDBRANCH  14  15
ENDBRANCH   4  14
TORSDOF 5
ENDMDL
MODEL 6
REMARK VINA RESULT:    -7.146      1.476      2.023
REMARK INTER + INTRA:          -9.929
REMARK INTER:                  -9.070
REMARK INTRA:                  -0.859
REMARK UNBOUND:                -0.695
REMARK  Name = 
REMARK  6 active torsions:
REMARK  status: ('A' for Active; 'I' for Inactive)
REMARK    1  A    between atoms: C_1  and  C_2
REMARK    2  A    between atoms: C_4  and  O_5
REMARK    3  A    between atoms: O_5  and  C_6
REMARK    4  A    between atoms: C_6  and  C_7
REMARK    5  A    between atoms: C_11  and  C_12
REMARK    6  A    between atoms: C_17  and  C_18
REMARK                            x       y       z     vdW  Elec       q    Type
REMARK                         _______ _______ _______ _____ _____    ______ ____
ROOT
ATOM      1  C   UNL     1      47.180   3.893  15.588  0.00  0.00    +0.000 C 
ATOM      2  C   UNL     1      47.013   4.799  14.405  0.00  0.00    +0.000 A 
ATOM      3  C   UNL     1      45.858   4.765  13.635  0.00  0.00    +0.000 A 
ATOM      4  C   UNL     1      45.746   5.647  12.568  0.00  0.00    +0.000 A 
ATOM      5  C   UNL     1      46.802   6.496  12.274  0.00  0.00    +0.000 A 
ATOM      6  C   UNL     1      47.922   6.487  13.092  0.00  0.00    +0.000 A 
ATOM      7  N   UNL     1      48.037   5.652  14.149  0.00  0.00    +0.000 NA
ENDROOT
BRANCH   6   8
ATOM      8  C   UNL     1      49.041   7.415  12.831  0.00  0.00    +0.000 C 
ATOM      9  C   UNL     1      49.235   7.964  11.618  0.00  0.00    +0.000 C 
ATOM     10  C   UNL     1      50.315   8.965  11.342  0.00  0.00    +0.000 C 
ATOM     11  O   UNL     1      50.901   9.482  12.541  0.00  0.00    +0.000 OA
ATOM     12  C   UNL     1      51.248   8.437  13.449  0.00  0.00    +0.000 C 
ATOM     13  C   UNL     1      49.981   7.756  13.963  0.00  0.00    +0.000 C 
ENDBRANCH   6   8
BRANCH   4  14
ATOM     14  O   UNL     1      44.573   5.607  11.862  0.00  0.00    +0.000 OA
BRANCH  14  15
ATOM     15  C   UNL     1      44.722   5.694  10.439  0.00  0.00    +0.000 C 
BRANCH  15  16
ATOM     16  C   UNL     1      44.961   4.336   9.845  0.00  0.00    +0.000 A 
ATOM     17  C   UNL     1      44.252   3.217  10.267  0.00  0.00    +0.000 A 
ATOM     18  N   UNL     1      44.385   1.989   9.723  0.00  0.00    +0.000 NA
ATOM     19  C   UNL     1      45.263   1.866   8.699  0.00  0.00    +0.000 A 
ATOM     20  C   UNL     1      46.012   2.913   8.185  0.00  0.00    +0.000 A 
ATOM     21  C   UNL     1      45.846   4.171   8.773  0.00  0.00    +0.000 A 
BRANCH  20  22
ATOM     22  C   UNL     1      46.954   2.769   7.047  0.00  0.00    +0.000 C 
ATOM     23  N   UNL     1      46.934   3.699   6.047  0.00  0.00    +0.000 N 
ATOM     24  O   UNL     1      47.742   1.832   6.996  0.00  0.00    +0.000 OA
ATOM     25  H   UNL     1      46.312   4.488   5.978  0.00  0.00    +0.000 HD
ATOM     26  H   UNL     1      47.586   3.555   5.286  0.00  0.00    +0.000 HD
ENDBRANCH  20  22
ENDBRANCH  15  16
ENDBRANCH  14  15
ENDBRANCH   4  14
TORSDOF 5
ENDMDL
MODEL 7
REMARK VINA RESULT:    -7.120      1.821      7.069
REMARK INTER + INTRA:          -9.896
REMARK INTER:                  -9.087
REMARK INTRA:                  -0.809
REMARK UNBOUND:                -0.695
REMARK  Name = 
REMARK  6 active torsions:
REMARK  status: ('A' for Active; 'I' for Inactive)
REMARK    1  A    between atoms: C_1  and  C_2
REMARK    2  A    between atoms: C_4  and  O_5
REMARK    3  A    between atoms: O_5  and  C_6
REMARK    4  A    between atoms: C_6  and  C_7
REMARK    5  A    between atoms: C_11  and  C_12
REMARK    6  A    between atoms: C_17  and  C_18
REMARK                            x       y       z     vdW  Elec       q    Type
REMARK                         _______ _______ _______ _____ _____    ______ ____
ROOT
ATOM      1  C   UNL     1      43.261   2.399  11.827  0.00  0.00    +0.000 C 
ATOM      2  C   UNL     1      44.075   3.292  10.940  0.00  0.00    +0.000 A 
ATOM      3  C   UNL     1      44.170   4.655  11.191  0.00  0.00    +0.000 A 
ATOM      4  C   UNL     1      44.961   5.430  10.353  0.00  0.00    +0.000 A 
ATOM      5  C   UNL     1      45.588   4.835   9.268  0.00  0.00    +0.000 A 
ATOM      6  C   UNL     1      45.460   3.467   9.082  0.00  0.00    +0.000 A 
ATOM      7  N   UNL     1      44.715   2.694   9.904  0.00  0.00    +0.000 NA
ENDROOT
BRANCH   6   8
ATOM      8  C   UNL     1      46.156   2.800   7.964  0.00  0.00    +0.000 C 
ATOM      9  C   UNL     1      46.460   3.457   6.829  0.00  0.00    +0.000 C 
ATOM     10  C   UNL     1      47.232   2.829   5.709  0.00  0.00    +0.000 C 
ATOM     11  O   UNL     1      47.849   1.596   6.093  0.00  0.00    +0.000 OA
ATOM     12  C   UNL     1      46.931   0.735   6.766  0.00  0.00    +0.000 C 
ATOM     13  C   UNL     1      46.539   1.347   8.110  0.00  0.00    +0.000 C 
ENDBRANCH   6   8
BRANCH   4  14
ATOM     14  O   UNL     1      45.060   6.760  10.663  0.00  0.00    +0.000 OA
BRANCH  14  15
ATOM     15  C   UNL     1      45.294   7.040  12.050  0.00  0.00    +0.000 C 
BRANCH  15  16
ATOM     16  C   UNL     1      46.765   7.166  12.326  0.00  0.00    +0.000 A 
ATOM     17  C   UNL     1      47.474   6.168  12.984  0.00  0.00    +0.000 A 
ATOM     18  N   UNL     1      48.806   6.204  13.201  0.00  0.00    +0.000 NA
ATOM     19  C   UNL     1      49.472   7.286  12.729  0.00  0.00    +0.000 A 
ATOM     20  C   UNL     1      48.873   8.332  12.045  0.00  0.00    +0.000 A 
ATOM     21  C   UNL     1      47.493   8.258  11.839  0.00  0.00    +0.000 A 
BRANCH  20  22
ATOM     22  C   UNL     1      49.620   9.501  11.514  0.00  0.00    +0.000 C 
ATOM     23  N   UNL     1      49.005  10.720  11.479  0.00  0.00    +0.000 N 
ATOM     24  O   UNL     1      50.770   9.383  11.110  0.00  0.00    +0.000 OA
ATOM     25  H   UNL     1      48.059  10.920  11.760  0.00  0.00    +0.000 HD
ATOM     26  H   UNL     1      49.548  11.486  11.099  0.00  0.00    +0.000 HD
ENDBRANCH  20  22
ENDBRANCH  15  16
ENDBRANCH  14  15
ENDBRANCH   4  14
TORSDOF 5
ENDMDL
MODEL 8
REMARK VINA RESULT:    -6.860      2.864      5.124
REMARK INTER + INTRA:          -9.561
REMARK INTER:                  -8.860
REMARK INTRA:                  -0.700
REMARK UNBOUND:                -0.695
REMARK  Name = 
REMARK  6 active torsions:
REMARK  status: ('A' for Active; 'I' for Inactive)
REMARK    1  A    between atoms: C_1  and  C_2
REMARK    2  A    between atoms: C_4  and  O_5
REMARK    3  A    between atoms: O_5  and  C_6
REMARK    4  A    between atoms: C_6  and  C_7
REMARK    5  A    between atoms: C_11  and  C_12
REMARK    6  A    between atoms: C_17  and  C_18
REMARK                            x       y       z     vdW  Elec       q    Type
REMARK                         _______ _______ _______ _____ _____    ______ ____
ROOT
ATOM      1  C   UNL     1      50.802   8.528  14.002  0.00  0.00    +0.000 C 
ATOM      2  C   UNL     1      49.637   7.584  13.996  0.00  0.00    +0.000 A 
ATOM      3  C   UNL     1      48.756   7.541  12.923  0.00  0.00    +0.000 A 
ATOM      4  C   UNL     1      47.711   6.628  12.959  0.00  0.00    +0.000 A 
ATOM      5  C   UNL     1      47.547   5.825  14.079  0.00  0.00    +0.000 A 
ATOM      6  C   UNL     1      48.470   5.911  15.110  0.00  0.00    +0.000 A 
ATOM      7  N   UNL     1      49.508   6.777  15.080  0.00  0.00    +0.000 NA
ENDROOT
BRANCH   6   8
ATOM      8  C   UNL     1      48.349   5.035  16.292  0.00  0.00    +0.000 C 
ATOM      9  C   UNL     1      47.428   4.054  16.352  0.00  0.00    +0.000 C 
ATOM     10  C   UNL     1      47.330   3.101  17.505  0.00  0.00    +0.000 C 
ATOM     11  O   UNL     1      48.477   3.156  18.359  0.00  0.00    +0.000 OA
ATOM     12  C   UNL     1      48.816   4.500  18.699  0.00  0.00    +0.000 C 
ATOM     13  C   UNL     1      49.291   5.245  17.453  0.00  0.00    +0.000 C 
ENDBRANCH   6   8
BRANCH   4  14
ATOM     14  O   UNL     1      46.893   6.591  11.862  0.00  0.00    +0.000 OA
BRANCH  14  15
ATOM     15  C   UNL     1      45.489   6.610  12.154  0.00  0.00    +0.000 C 
BRANCH  15  16
ATOM     16  C   UNL     1      44.884   5.252  11.940  0.00  0.00    +0.000 A 
ATOM     17  C   UNL     1      44.129   4.624  12.923  0.00  0.00    +0.000 A 
ATOM     18  N   UNL     1      43.512   3.434  12.757  0.00  0.00    +0.000 NA
ATOM     19  C   UNL     1      43.645   2.841  11.546  0.00  0.00    +0.000 A 
ATOM     20  C   UNL     1      44.358   3.381  10.488  0.00  0.00    +0.000 A 
ATOM     21  C   UNL     1      44.982   4.615  10.697  0.00  0.00    +0.000 A 
BRANCH  20  22
ATOM     22  C   UNL     1      44.476   2.730   9.159  0.00  0.00    +0.000 C 
ATOM     23  N   UNL     1      44.355   3.494   8.034  0.00  0.00    +0.000 N 
ATOM     24  O   UNL     1      44.678   1.525   9.063  0.00  0.00    +0.000 OA
ATOM     25  H   UNL     1      44.163   4.482   8.000  0.00  0.00    +0.000 HD
ATOM     26  H   UNL     1      44.432   3.007   7.149  0.00  0.00    +0.000 HD
ENDBRANCH  20  22
ENDBRANCH  15  16
ENDBRANCH  14  15
ENDBRANCH   4  14
TORSDOF 5
ENDMDL
MODEL 9
REMARK VINA RESULT:    -6.805      3.372      7.759
REMARK INTER + INTRA:          -9.489
REMARK INTER:                  -8.707
REMARK INTRA:                  -0.781
REMARK UNBOUND:                -0.695
REMARK  Name = 
REMARK  6 active torsions:
REMARK  status: ('A' for Active; 'I' for Inactive)
REMARK    1  A    between atoms: C_1  and  C_2
REMARK    2  A    between atoms: C_4  and  O_5
REMARK    3  A    between atoms: O_5  and  C_6
REMARK    4  A    between atoms: C_6  and  C_7
REMARK    5  A    between atoms: C_11  and  C_12
REMARK    6  A    between atoms: C_17  and  C_18
REMARK                            x       y       z     vdW  Elec       q    Type
REMARK                         _______ _______ _______ _____ _____    ______ ____
ROOT
ATOM      1  C   UNL     1      46.334   9.644  12.158  0.00  0.00    +0.000 C 
ATOM      2  C   UNL     1      46.654   8.243  12.586  0.00  0.00    +0.000 A 
ATOM      3  C   UNL     1      47.723   7.980  13.433  0.00  0.00    +0.000 A 
ATOM      4  C   UNL     1      47.955   6.667  13.820  0.00  0.00    +0.000 A 
ATOM      5  C   UNL     1      47.151   5.656  13.313  0.00  0.00    +0.000 A 
ATOM      6  C   UNL     1      46.094   5.990  12.481  0.00  0.00    +0.000 A 
ATOM      7  N   UNL     1      45.838   7.266  12.115  0.00  0.00    +0.000 NA
ENDROOT
BRANCH   6   8
ATOM      8  C   UNL     1      45.192   4.940  11.967  0.00  0.00    +0.000 C 
ATOM      9  C   UNL     1      44.616   4.040  12.786  0.00  0.00    +0.000 C 
ATOM     10  C   UNL     1      43.639   3.011  12.305  0.00  0.00    +0.000 C 
ATOM     11  O   UNL     1      43.171   3.279  10.979  0.00  0.00    +0.000 OA
ATOM     12  C   UNL     1      44.249   3.567  10.089  0.00  0.00    +0.000 C 
ATOM     13  C   UNL     1      44.907   4.887  10.485  0.00  0.00    +0.000 C 
ENDBRANCH   6   8
BRANCH   4  14
ATOM     14  O   UNL     1      48.993   6.460  14.689  0.00  0.00    +0.000 OA
BRANCH  14  15
ATOM     15  C   UNL     1      48.746   6.885  16.035  0.00  0.00    +0.000 C 
BRANCH  15  16
ATOM     16  C   UNL     1      48.847   5.727  16.986  0.00  0.00    +0.000 A 
ATOM     17  C   UNL     1      48.378   5.809  18.292  0.00  0.00    +0.000 A 
ATOM     18  N   UNL     1      48.389   4.778  19.164  0.00  0.00    +0.000 NA
ATOM     19  C   UNL     1      48.884   3.601  18.712  0.00  0.00    +0.000 A 
ATOM     20  C   UNL     1      49.363   3.398  17.428  0.00  0.00    +0.000 A 
ATOM     21  C   UNL     1      49.334   4.488  16.552  0.00  0.00    +0.000 A 
BRANCH  20  22
ATOM     22  C   UNL     1      49.881   2.095  16.939  0.00  0.00    +0.000 C 
ATOM     23  N   UNL     1      50.800   1.423  17.693  0.00  0.00    +0.000 N 
ATOM     24  O   UNL     1      49.496   1.622  15.876  0.00  0.00    +0.000 OA
ATOM     25  H   UNL     1      51.201   1.732  18.563  0.00  0.00    +0.000 HD
ATOM     26  H   UNL     1      51.133   0.543  17.316  0.00  0.00    +0.000 HD
ENDBRANCH  20  22
ENDBRANCH  15  16
ENDBRANCH  14  15
ENDBRANCH   4  14
TORSDOF 5
ENDMDL
