MODEL 1
REMARK VINA RESULT:    -8.011      0.000      0.000
REMARK INTER + INTRA:         -11.514
REMARK INTER:                 -10.587
REMARK INTRA:                  -0.927
REMARK UNBOUND:                -0.927
REMARK  Name = 
REMARK  7 active torsions:
REMARK  status: ('A' for Active; 'I' for Inactive)
REMARK    1  A    between atoms: C_1  and  O_2
REMARK    2  A    between atoms: O_2  and  C_3
REMARK    3  A    between atoms: C_5  and  C_6
REMARK    4  A    between atoms: C_6  and  N_7
REMARK    5  A    between atoms: C_12  and  C_13
REMARK    6  A    between atoms: C_21  and  C_22
REMARK    7  A    between atoms: C_22  and  N_23
REMARK                            x       y       z     vdW  Elec       q    Type
REMARK                         _______ _______ _______ _____ _____    ______ ____
ROOT
ATOM      1  N   UNL     1      44.050   4.302  10.773  0.00  0.00    +0.000 N 
ATOM      2  C   UNL     1      43.728   3.173  11.494  0.00  0.00    +0.000 A 
ATOM      3  C   UNL     1      43.821   2.092  10.651  0.00  0.00    +0.000 A 
ATOM      4  C   UNL     1      44.685   2.512   9.613  0.00  0.00    +0.000 A 
ATOM      5  C   UNL     1      45.540   1.826   8.737  0.00  0.00    +0.000 A 
ATOM      6  C   UNL     1      46.335   2.565   7.839  0.00  0.00    +0.000 A 
ATOM      7  C   UNL     1      46.127   3.932   7.692  0.00  0.00    +0.000 A 
ATOM      8  C   UNL     1      45.274   4.631   8.558  0.00  0.00    +0.000 A 
ATOM      9  C   UNL     1      44.666   3.911   9.594  0.00  0.00    +0.000 A 
ENDROOT
BRANCH   6  10
ATOM     10  C   UNL     1      47.438   1.832   7.143  0.00  0.00    +0.000 C 
ATOM     11  N   UNL     1      48.411   2.550   6.522  0.00  0.00    +0.000 N 
ATOM     12  O   UNL     1      47.533   0.609   7.171  0.00  0.00    +0.000 OA
ATOM     13  H   UNL     1      48.468   3.562   6.486  0.00  0.00    +0.000 HD
ATOM     14  H   UNL     1      49.174   2.024   6.123  0.00  0.00    +0.000 HD
ENDBRANCH   6  10
BRANCH   1  15
ATOM     15  C   UNL     1      44.097   5.625  11.391  0.00  0.00    +0.000 C 
BRANCH  15  18
ATOM     16  C   UNL     1      47.245   5.783  13.586  0.00  0.00    +0.000 A 
ATOM     17  C   UNL     1      45.954   5.456  13.135  0.00  0.00    +0.000 A 
ATOM     18  C   UNL     1      45.432   6.032  11.962  0.00  0.00    +0.000 A 
ATOM     19  C   UNL     1      46.220   6.944  11.251  0.00  0.00    +0.000 A 
ATOM     20  C   UNL     1      47.493   7.279  11.699  0.00  0.00    +0.000 A 
ATOM     21  C   UNL     1      48.029   6.699  12.860  0.00  0.00    +0.000 A 
BRANCH  16  23
ATOM     22  C   UNL     1      47.120   4.276  15.443  0.00  0.00    +0.000 C 
ATOM     23  O   UNL     1      47.826   5.275  14.720  0.00  0.00    +0.000 OA
ENDBRANCH  16  23
BRANCH  21  24
ATOM     24  C   UNL     1      49.422   7.097  13.293  0.00  0.00    +0.000 C 
BRANCH  24  25
ATOM     25  N   UNL     1      50.299   7.333  12.144  0.00  0.00    +0.000 NA
ATOM     26  H   UNL     1      50.855   8.165  12.338  0.00  0.00    +0.000 HD
ATOM     27  H   UNL     1      49.723   7.561  11.337  0.00  0.00    +0.000 HD
ENDBRANCH  24  25
ENDBRANCH  21  24
ENDBRANCH  15  18
ENDBRANCH   1  15
TORSDOF 6
ENDMDL
MODEL 2
REMARK VINA RESULT:    -7.741      1.116      1.944
REMARK INTER + INTRA:         -11.156
REMARK INTER:                 -10.179
REMARK INTRA:                  -0.978
REMARK UNBOUND:                -0.927
REMARK  Name = 
REMARK  7 active torsions:
REMARK  status: ('A' for Active; 'I' for Inactive)
REMARK    1  A    between atoms: C_1  and  O_2
REMARK    2  A    between atoms: O_2  and  C_3
REMARK    3  A    between atoms: C_5  and  C_6
REMARK    4  A    between atoms: C_6  and  N_7
REMARK    5  A    between atoms: C_12  and  C_13
REMARK    6  A    between atoms: C_21  and  C_22
REMARK    7  A    between atoms: C_22  and  N_23
REMARK                            x       y       z     vdW  Elec       q    Type
REMARK                         _______ _______ _______ _____ _____    ______ ____
ROOT
ATOM      1  N   UNL     1      44.038   4.264  10.686  0.00  0.00    +0.000 N 
ATOM      2  C   UNL     1      43.690   3.132  11.391  0.00  0.00    +0.000 A 
ATOM      3  C   UNL     1      43.791   2.058  10.541  0.00  0.00    +0.000 A 
ATOM      4  C   UNL     1      44.681   2.477   9.526  0.00  0.00    +0.000 A 
ATOM      5  C   UNL     1      45.549   1.789   8.663  0.00  0.00    +0.000 A 
ATOM      6  C   UNL     1      46.370   2.527   7.789  0.00  0.00    +0.000 A 
ATOM      7  C   UNL     1      46.179   3.898   7.648  0.00  0.00    +0.000 A 
ATOM      8  C   UNL     1      45.315   4.599   8.501  0.00  0.00    +0.000 A 
ATOM      9  C   UNL     1      44.676   3.876   9.518  0.00  0.00    +0.000 A 
ENDROOT
BRANCH   6  10
ATOM     10  C   UNL     1      47.480   1.789   7.111  0.00  0.00    +0.000 C 
ATOM     11  N   UNL     1      48.456   2.502   6.488  0.00  0.00    +0.000 N 
ATOM     12  O   UNL     1      47.579   0.567   7.156  0.00  0.00    +0.000 OA
ATOM     13  H   UNL     1      48.509   3.514   6.438  0.00  0.00    +0.000 HD
ATOM     14  H   UNL     1      49.223   1.973   6.101  0.00  0.00    +0.000 HD
ENDBRANCH   6  10
BRANCH   1  15
ATOM     15  C   UNL     1      44.085   5.581  11.317  0.00  0.00    +0.000 C 
BRANCH  15  18
ATOM     16  C   UNL     1      47.289   7.481  12.258  0.00  0.00    +0.000 A 
ATOM     17  C   UNL     1      46.117   7.105  11.577  0.00  0.00    +0.000 A 
ATOM     18  C   UNL     1      45.400   5.954  11.954  0.00  0.00    +0.000 A 
ATOM     19  C   UNL     1      45.878   5.183  13.019  0.00  0.00    +0.000 A 
ATOM     20  C   UNL     1      47.042   5.543  13.688  0.00  0.00    +0.000 A 
ATOM     21  C   UNL     1      47.756   6.698  13.330  0.00  0.00    +0.000 A 
BRANCH  16  23
ATOM     22  C   UNL     1      47.463   9.864  12.108  0.00  0.00    +0.000 C 
ATOM     23  O   UNL     1      48.050   8.580  11.951  0.00  0.00    +0.000 OA
ENDBRANCH  16  23
BRANCH  21  24
ATOM     24  C   UNL     1      49.011   7.043  14.100  0.00  0.00    +0.000 C 
BRANCH  24  25
ATOM     25  N   UNL     1      50.176   7.149  13.219  0.00  0.00    +0.000 NA
ATOM     26  H   UNL     1      50.868   7.737  13.684  0.00  0.00    +0.000 HD
ATOM     27  H   UNL     1      49.901   7.650  12.377  0.00  0.00    +0.000 HD
ENDBRANCH  24  25
ENDBRANCH  21  24
ENDBRANCH  15  18
ENDBRANCH   1  15
TORSDOF 6
ENDMDL
MODEL 3
REMARK VINA RESULT:    -7.610      1.393      6.495
REMARK INTER + INTRA:         -10.983
REMARK INTER:                 -10.692
REMARK INTRA:                  -0.291
REMARK UNBOUND:                -0.927
REMARK  Name = 
REMARK  7 active torsions:
REMARK  status: ('A' for Active; 'I' for Inactive)
REMARK    1  A    between atoms: C_1  and  O_2
REMARK    2  A    between atoms: O_2  and  C_3
REMARK    3  A    between atoms: C_5  and  C_6
REMARK    4  A    between atoms: C_6  and  N_7
REMARK    5  A    between atoms: C_12  and  C_13
REMARK    6  A    between atoms: C_21  and  C_22
REMARK    7  A    between atoms: C_22  and  N_23
REMARK                            x       y       z     vdW  Elec       q    Type
REMARK                         _______ _______ _______ _____ _____    ______ ____
ROOT
ATOM      1  N   UNL     1      43.966   4.014  11.117  0.00  0.00    +0.000 N 
ATOM      2  C   UNL     1      43.261   5.105  10.659  0.00  0.00    +0.000 A 
ATOM      3  C   UNL     1      43.452   6.136  11.546  0.00  0.00    +0.000 A 
ATOM      4  C   UNL     1      44.657   5.822  12.216  0.00  0.00    +0.000 A 
ATOM      5  C   UNL     1      45.632   6.601  12.859  0.00  0.00    +0.000 A 
ATOM      6  C   UNL     1      46.776   5.969  13.383  0.00  0.00    +0.000 A 
ATOM      7  C   UNL     1      46.839   4.580  13.435  0.00  0.00    +0.000 A 
ATOM      8  C   UNL     1      45.872   3.788  12.800  0.00  0.00    +0.000 A 
ATOM      9  C   UNL     1      44.860   4.444  12.086  0.00  0.00    +0.000 A 
ENDROOT
BRANCH   6  10
ATOM     10  C   UNL     1      47.917   6.849  13.783  0.00  0.00    +0.000 C 
ATOM     11  N   UNL     1      47.649   8.107  14.224  0.00  0.00    +0.000 N 
ATOM     12  O   UNL     1      49.079   6.455  13.793  0.00  0.00    +0.000 OA
ATOM     13  H   UNL     1      46.727   8.519  14.314  0.00  0.00    +0.000 HD
ATOM     14  H   UNL     1      48.437   8.648  14.549  0.00  0.00    +0.000 HD
ENDBRANCH   6  10
BRANCH   1  15
ATOM     15  C   UNL     1      44.015   2.758  10.372  0.00  0.00    +0.000 C 
BRANCH  15  18
ATOM     16  C   UNL     1      46.424   1.515   7.650  0.00  0.00    +0.000 A 
ATOM     17  C   UNL     1      45.608   1.536   8.795  0.00  0.00    +0.000 A 
ATOM     18  C   UNL     1      44.980   2.723   9.214  0.00  0.00    +0.000 A 
ATOM     19  C   UNL     1      45.186   3.892   8.471  0.00  0.00    +0.000 A 
ATOM     20  C   UNL     1      46.002   3.880   7.345  0.00  0.00    +0.000 A 
ATOM     21  C   UNL     1      46.621   2.696   6.911  0.00  0.00    +0.000 A 
BRANCH  16  23
ATOM     22  C   UNL     1      46.477  -0.864   7.390  0.00  0.00    +0.000 C 
ATOM     23  O   UNL     1      47.078   0.405   7.179  0.00  0.00    +0.000 OA
ENDBRANCH  16  23
BRANCH  21  24
ATOM     24  C   UNL     1      47.489   2.745   5.674  0.00  0.00    +0.000 C 
BRANCH  24  25
ATOM     25  N   UNL     1      48.622   1.821   5.770  0.00  0.00    +0.000 NA
ATOM     26  H   UNL     1      49.272   2.193   6.462  0.00  0.00    +0.000 HD
ATOM     27  H   UNL     1      49.121   1.826   4.883  0.00  0.00    +0.000 HD
ENDBRANCH  24  25
ENDBRANCH  21  24
ENDBRANCH  15  18
ENDBRANCH   1  15
TORSDOF 6
ENDMDL
MODEL 4
REMARK VINA RESULT:    -6.150      2.156      6.844
REMARK INTER + INTRA:          -9.054
REMARK INTER:                  -8.305
REMARK INTRA:                  -0.749
REMARK UNBOUND:                -0.927
REMARK  Name = 
REMARK  7 active torsions:
REMARK  status: ('A' for Active; 'I' for Inactive)
REMARK    1  A    between atoms: C_1  and  O_2
REMARK    2  A    between atoms: O_2  and  C_3
REMARK    3  A    between atoms: C_5  and  C_6
REMARK    4  A    between atoms: C_6  and  N_7
REMARK    5  A    between atoms: C_12  and  C_13
REMARK    6  A    between atoms: C_21  and  C_22
REMARK    7  A    between atoms: C_22  and  N_23
REMARK                            x       y       z     vdW  Elec       q    Type
REMARK                         _______ _______ _______ _____ _____    ______ ____
ROOT
ATOM      1  N   UNL     1      43.878   4.974  10.540  0.00  0.00    +0.000 N 
ATOM      2  C   UNL     1      42.769   5.055  11.353  0.00  0.00    +0.000 A 
ATOM      3  C   UNL     1      43.190   5.430  12.605  0.00  0.00    +0.000 A 
ATOM      4  C   UNL     1      44.435   6.065  12.397  0.00  0.00    +0.000 A 
ATOM      5  C   UNL     1      45.149   7.041  13.111  0.00  0.00    +0.000 A 
ATOM      6  C   UNL     1      46.364   7.520  12.584  0.00  0.00    +0.000 A 
ATOM      7  C   UNL     1      46.938   6.895  11.482  0.00  0.00    +0.000 A 
ATOM      8  C   UNL     1      46.239   5.917  10.761  0.00  0.00    +0.000 A 
ATOM      9  C   UNL     1      44.933   5.616  11.169  0.00  0.00    +0.000 A 
ENDROOT
BRANCH   6  10
ATOM     10  C   UNL     1      46.935   8.756  13.205  0.00  0.00    +0.000 C 
ATOM     11  N   UNL     1      46.660   9.960  12.637  0.00  0.00    +0.000 N 
ATOM     12  O   UNL     1      47.585   8.727  14.246  0.00  0.00    +0.000 OA
ATOM     13  H   UNL     1      46.088  10.110  11.814  0.00  0.00    +0.000 HD
ATOM     14  H   UNL     1      47.005  10.775  13.122  0.00  0.00    +0.000 HD
ENDBRANCH   6  10
BRANCH   1  15
ATOM     15  C   UNL     1      43.771   4.646   9.119  0.00  0.00    +0.000 C 
BRANCH  15  18
ATOM     16  C   UNL     1      46.599   2.702   7.393  0.00  0.00    +0.000 A 
ATOM     17  C   UNL     1      45.725   3.747   7.744  0.00  0.00    +0.000 A 
ATOM     18  C   UNL     1      44.660   3.528   8.639  0.00  0.00    +0.000 A 
ATOM     19  C   UNL     1      44.482   2.246   9.172  0.00  0.00    +0.000 A 
ATOM     20  C   UNL     1      45.336   1.207   8.819  0.00  0.00    +0.000 A 
ATOM     21  C   UNL     1      46.410   1.419   7.939  0.00  0.00    +0.000 A 
BRANCH  16  23
ATOM     22  C   UNL     1      47.367   2.987   5.143  0.00  0.00    +0.000 C 
ATOM     23  O   UNL     1      47.654   2.828   6.525  0.00  0.00    +0.000 OA
ENDBRANCH  16  23
BRANCH  21  24
ATOM     24  C   UNL     1      47.310   0.252   7.600  0.00  0.00    +0.000 C 
BRANCH  24  25
ATOM     25  N   UNL     1      46.540  -0.926   7.194  0.00  0.00    +0.000 NA
ATOM     26  H   UNL     1      46.182  -1.373   8.037  0.00  0.00    +0.000 HD
ATOM     27  H   UNL     1      47.174  -1.597   6.766  0.00  0.00    +0.000 HD
ENDBRANCH  24  25
ENDBRANCH  21  24
ENDBRANCH  15  18
ENDBRANCH   1  15
TORSDOF 6
ENDMDL
MODEL 5
REMARK VINA RESULT:    -5.933      2.051      2.748
REMARK INTER + INTRA:          -8.767
REMARK INTER:                  -8.739
REMARK INTRA:                  -0.029
REMARK UNBOUND:                -0.927
REMARK  Name = 
REMARK  7 active torsions:
REMARK  status: ('A' for Active; 'I' for Inactive)
REMARK    1  A    between atoms: C_1  and  O_2
REMARK    2  A    between atoms: O_2  and  C_3
REMARK    3  A    between atoms: C_5  and  C_6
REMARK    4  A    between atoms: C_6  and  N_7
REMARK    5  A    between atoms: C_12  and  C_13
REMARK    6  A    between atoms: C_21  and  C_22
REMARK    7  A    between atoms: C_22  and  N_23
REMARK                            x       y       z     vdW  Elec       q    Type
REMARK                         _______ _______ _______ _____ _____    ______ ____
ROOT
ATOM      1  N   UNL     1      44.553   4.534  12.195  0.00  0.00    +0.000 N 
ATOM      2  C   UNL     1      43.925   3.332  12.437  0.00  0.00    +0.000 A 
ATOM      3  C   UNL     1      43.511   2.822  11.231  0.00  0.00    +0.000 A 
ATOM      4  C   UNL     1      44.339   3.443  10.268  0.00  0.00    +0.000 A 
ATOM      5  C   UNL     1      44.769   3.070   8.985  0.00  0.00    +0.000 A 
ATOM      6  C   UNL     1      45.668   3.907   8.295  0.00  0.00    +0.000 A 
ATOM      7  C   UNL     1      45.965   5.170   8.797  0.00  0.00    +0.000 A 
ATOM      8  C   UNL     1      45.541   5.558  10.076  0.00  0.00    +0.000 A 
ATOM      9  C   UNL     1      44.836   4.619  10.841  0.00  0.00    +0.000 A 
ENDROOT
BRANCH   6  10
ATOM     10  C   UNL     1      46.331   3.340   7.080  0.00  0.00    +0.000 C 
ATOM     11  N   UNL     1      47.653   3.586   6.881  0.00  0.00    +0.000 N 
ATOM     12  O   UNL     1      45.741   2.606   6.293  0.00  0.00    +0.000 OA
ATOM     13  H   UNL     1      48.253   4.128   7.493  0.00  0.00    +0.000 HD
ATOM     14  H   UNL     1      48.081   3.131   6.088  0.00  0.00    +0.000 HD
ENDBRANCH   6  10
BRANCH   1  15
ATOM     15  C   UNL     1      45.160   5.317  13.270  0.00  0.00    +0.000 C 
BRANCH  15  18
ATOM     16  C   UNL     1      46.344   8.857  12.360  0.00  0.00    +0.000 A 
ATOM     17  C   UNL     1      45.500   7.776  12.673  0.00  0.00    +0.000 A 
ATOM     18  C   UNL     1      46.017   6.477  12.829  0.00  0.00    +0.000 A 
ATOM     19  C   UNL     1      47.392   6.275  12.661  0.00  0.00    +0.000 A 
ATOM     20  C   UNL     1      48.229   7.337  12.339  0.00  0.00    +0.000 A 
ATOM     21  C   UNL     1      47.725   8.640  12.196  0.00  0.00    +0.000 A 
BRANCH  16  23
ATOM     22  C   UNL     1      44.771  10.374  11.382  0.00  0.00    +0.000 C 
ATOM     23  O   UNL     1      45.922  10.150  12.183  0.00  0.00    +0.000 OA
ENDBRANCH  16  23
BRANCH  21  24
ATOM     24  C   UNL     1      48.686   9.756  11.854  0.00  0.00    +0.000 C 
BRANCH  24  25
ATOM     25  N   UNL     1      49.822   9.795  12.778  0.00  0.00    +0.000 NA
ATOM     26  H   UNL     1      50.644  10.094  12.254  0.00  0.00    +0.000 HD
ATOM     27  H   UNL     1      50.017   8.847  13.093  0.00  0.00    +0.000 HD
ENDBRANCH  24  25
ENDBRANCH  21  24
ENDBRANCH  15  18
ENDBRANCH   1  15
TORSDOF 6
ENDMDL
MODEL 6
REMARK VINA RESULT:    -5.872      3.326      5.758
REMARK INTER + INTRA:          -8.687
REMARK INTER:                  -7.764
REMARK INTRA:                  -0.923
REMARK UNBOUND:                -0.927
REMARK  Name = 
REMARK  7 active torsions:
REMARK  status: ('A' for Active; 'I' for Inactive)
REMARK    1  A    between atoms: C_1  and  O_2
REMARK    2  A    between atoms: O_2  and  C_3
REMARK    3  A    between atoms: C_5  and  C_6
REMARK    4  A    between atoms: C_6  and  N_7
REMARK    5  A    between atoms: C_12  and  C_13
REMARK    6  A    between atoms: C_21  and  C_22
REMARK    7  A    between atoms: C_22  and  N_23
REMARK                            x       y       z     vdW  Elec       q    Type
REMARK                         _______ _______ _______ _____ _____    ______ ____
ROOT
ATOM      1  N   UNL     1      48.134   7.248  13.761  0.00  0.00    +0.000 N 
ATOM      2  C   UNL     1      48.632   8.046  12.755  0.00  0.00    +0.000 A 
ATOM      3  C   UNL     1      48.317   7.458  11.555  0.00  0.00    +0.000 A 
ATOM      4  C   UNL     1      47.210   6.624  11.836  0.00  0.00    +0.000 A 
ATOM      5  C   UNL     1      46.152   6.134  11.054  0.00  0.00    +0.000 A 
ATOM      6  C   UNL     1      45.150   5.359  11.670  0.00  0.00    +0.000 A 
ATOM      7  C   UNL     1      45.314   4.927  12.982  0.00  0.00    +0.000 A 
ATOM      8  C   UNL     1      46.367   5.406  13.774  0.00  0.00    +0.000 A 
ATOM      9  C   UNL     1      47.227   6.357  13.209  0.00  0.00    +0.000 A 
ENDROOT
BRANCH   6  10
ATOM     10  C   UNL     1      43.900   5.114  10.885  0.00  0.00    +0.000 C 
ATOM     11  N   UNL     1      44.010   4.702   9.593  0.00  0.00    +0.000 N 
ATOM     12  O   UNL     1      42.783   5.205  11.383  0.00  0.00    +0.000 OA
ATOM     13  H   UNL     1      44.878   4.537   9.096  0.00  0.00    +0.000 HD
ATOM     14  H   UNL     1      43.148   4.481   9.117  0.00  0.00    +0.000 HD
ENDBRANCH   6  10
BRANCH   1  15
ATOM     15  C   UNL     1      48.255   7.617  15.170  0.00  0.00    +0.000 C 
BRANCH  15  18
ATOM     16  C   UNL     1      49.228   4.641  17.396  0.00  0.00    +0.000 A 
ATOM     17  C   UNL     1      48.449   5.571  16.685  0.00  0.00    +0.000 A 
ATOM     18  C   UNL     1      49.046   6.663  16.029  0.00  0.00    +0.000 A 
ATOM     19  C   UNL     1      50.436   6.814  16.102  0.00  0.00    +0.000 A 
ATOM     20  C   UNL     1      51.210   5.904  16.814  0.00  0.00    +0.000 A 
ATOM     21  C   UNL     1      50.625   4.803  17.459  0.00  0.00    +0.000 A 
BRANCH  16  23
ATOM     22  C   UNL     1      47.562   2.929  17.550  0.00  0.00    +0.000 C 
ATOM     23  O   UNL     1      48.727   3.556  18.068  0.00  0.00    +0.000 OA
ENDBRANCH  16  23
BRANCH  21  24
ATOM     24  C   UNL     1      51.520   3.843  18.210  0.00  0.00    +0.000 C 
BRANCH  24  25
ATOM     25  N   UNL     1      51.297   2.456  17.796  0.00  0.00    +0.000 NA
ATOM     26  H   UNL     1      51.140   1.899  18.635  0.00  0.00    +0.000 HD
ATOM     27  H   UNL     1      52.154   2.101  17.377  0.00  0.00    +0.000 HD
ENDBRANCH  24  25
ENDBRANCH  21  24
ENDBRANCH  15  18
ENDBRANCH   1  15
TORSDOF 6
ENDMDL
MODEL 7
REMARK VINA RESULT:    -5.795      4.200      6.372
REMARK INTER + INTRA:          -8.585
REMARK INTER:                  -7.479
REMARK INTRA:                  -1.106
REMARK UNBOUND:                -0.927
REMARK  Name = 
REMARK  7 active torsions:
REMARK  status: ('A' for Active; 'I' for Inactive)
REMARK    1  A    between atoms: C_1  and  O_2
REMARK    2  A    between atoms: O_2  and  C_3
REMARK    3  A    between atoms: C_5  and  C_6
REMARK    4  A    between atoms: C_6  and  N_7
REMARK    5  A    between atoms: C_12  and  C_13
REMARK    6  A    between atoms: C_21  and  C_22
REMARK    7  A    between atoms: C_22  and  N_23
REMARK                            x       y       z     vdW  Elec       q    Type
REMARK                         _______ _______ _______ _____ _____    ______ ____
ROOT
ATOM      1  N   UNL     1      48.183   7.562  13.545  0.00  0.00    +0.000 N 
ATOM      2  C   UNL     1      47.850   8.890  13.392  0.00  0.00    +0.000 A 
ATOM      3  C   UNL     1      46.769   8.960  12.548  0.00  0.00    +0.000 A 
ATOM      4  C   UNL     1      46.159   7.687  12.630  0.00  0.00    +0.000 A 
ATOM      5  C   UNL     1      44.845   7.235  12.427  0.00  0.00    +0.000 A 
ATOM      6  C   UNL     1      44.546   5.878  12.660  0.00  0.00    +0.000 A 
ATOM      7  C   UNL     1      45.574   4.971  12.895  0.00  0.00    +0.000 A 
ATOM      8  C   UNL     1      46.891   5.407  13.097  0.00  0.00    +0.000 A 
ATOM      9  C   UNL     1      47.128   6.788  13.087  0.00  0.00    +0.000 A 
ENDROOT
BRANCH   6  10
ATOM     10  C   UNL     1      43.100   5.502  12.727  0.00  0.00    +0.000 C 
ATOM     11  N   UNL     1      42.245   6.025  11.808  0.00  0.00    +0.000 N 
ATOM     12  O   UNL     1      42.670   4.688  13.538  0.00  0.00    +0.000 OA
ATOM     13  H   UNL     1      42.497   6.659  11.058  0.00  0.00    +0.000 HD
ATOM     14  H   UNL     1      41.291   5.696  11.842  0.00  0.00    +0.000 HD
ENDBRANCH   6  10
BRANCH   1  15
ATOM     15  C   UNL     1      49.267   7.135  14.427  0.00  0.00    +0.000 C 
BRANCH  15  18
ATOM     16  C   UNL     1      48.335   5.359  17.703  0.00  0.00    +0.000 A 
ATOM     17  C   UNL     1      48.595   5.583  16.339  0.00  0.00    +0.000 A 
ATOM     18  C   UNL     1      48.879   6.875  15.861  0.00  0.00    +0.000 A 
ATOM     19  C   UNL     1      48.893   7.941  16.768  0.00  0.00    +0.000 A 
ATOM     20  C   UNL     1      48.624   7.727  18.116  0.00  0.00    +0.000 A 
ATOM     21  C   UNL     1      48.355   6.439  18.605  0.00  0.00    +0.000 A 
BRANCH  16  23
ATOM     22  C   UNL     1      47.348   3.192  17.446  0.00  0.00    +0.000 C 
ATOM     23  O   UNL     1      48.042   4.135  18.250  0.00  0.00    +0.000 OA
ENDBRANCH  16  23
BRANCH  21  24
ATOM     24  C   UNL     1      48.079   6.268  20.082  0.00  0.00    +0.000 C 
BRANCH  24  25
ATOM     25  N   UNL     1      46.774   5.648  20.321  0.00  0.00    +0.000 NA
ATOM     26  H   UNL     1      46.567   5.036  19.532  0.00  0.00    +0.000 HD
ATOM     27  H   UNL     1      46.062   6.376  20.308  0.00  0.00    +0.000 HD
ENDBRANCH  24  25
ENDBRANCH  21  24
ENDBRANCH  15  18
ENDBRANCH   1  15
TORSDOF 6
ENDMDL
MODEL 8
REMARK VINA RESULT:    -5.771      1.903      6.925
REMARK INTER + INTRA:          -8.553
REMARK INTER:                  -8.097
REMARK INTRA:                  -0.455
REMARK UNBOUND:                -0.927
REMARK  Name = 
REMARK  7 active torsions:
REMARK  status: ('A' for Active; 'I' for Inactive)
REMARK    1  A    between atoms: C_1  and  O_2
REMARK    2  A    between atoms: O_2  and  C_3
REMARK    3  A    between atoms: C_5  and  C_6
REMARK    4  A    between atoms: C_6  and  N_7
REMARK    5  A    between atoms: C_12  and  C_13
REMARK    6  A    between atoms: C_21  and  C_22
REMARK    7  A    between atoms: C_22  and  N_23
REMARK                            x       y       z     vdW  Elec       q    Type
REMARK                         _______ _______ _______ _____ _____    ______ ____
ROOT
ATOM      1  N   UNL     1      45.862   4.691  12.101  0.00  0.00    +0.000 N 
ATOM      2  C   UNL     1      45.715   3.897  13.217  0.00  0.00    +0.000 A 
ATOM      3  C   UNL     1      46.731   4.201  14.089  0.00  0.00    +0.000 A 
ATOM      4  C   UNL     1      47.146   5.503  13.727  0.00  0.00    +0.000 A 
ATOM      5  C   UNL     1      47.762   6.548  14.434  0.00  0.00    +0.000 A 
ATOM      6  C   UNL     1      47.987   7.775  13.781  0.00  0.00    +0.000 A 
ATOM      7  C   UNL     1      47.783   7.878  12.408  0.00  0.00    +0.000 A 
ATOM      8  C   UNL     1      47.172   6.842  11.688  0.00  0.00    +0.000 A 
ATOM      9  C   UNL     1      46.745   5.715  12.404  0.00  0.00    +0.000 A 
ENDROOT
BRANCH   6  10
ATOM     10  C   UNL     1      48.360   8.943  14.636  0.00  0.00    +0.000 C 
ATOM     11  N   UNL     1      47.535   9.296  15.658  0.00  0.00    +0.000 N 
ATOM     12  O   UNL     1      49.416   9.552  14.492  0.00  0.00    +0.000 OA
ATOM     13  H   UNL     1      46.670   8.831  15.907  0.00  0.00    +0.000 HD
ATOM     14  H   UNL     1      47.853  10.045  16.255  0.00  0.00    +0.000 HD
ENDBRANCH   6  10
BRANCH   1  15
ATOM     15  C   UNL     1      44.908   4.652  10.995  0.00  0.00    +0.000 C 
BRANCH  15  18
ATOM     16  C   UNL     1      45.752   2.253   8.116  0.00  0.00    +0.000 A 
ATOM     17  C   UNL     1      45.343   2.727   9.376  0.00  0.00    +0.000 A 
ATOM     18  C   UNL     1      45.435   4.094   9.697  0.00  0.00    +0.000 A 
ATOM     19  C   UNL     1      45.946   4.978   8.740  0.00  0.00    +0.000 A 
ATOM     20  C   UNL     1      46.362   4.512   7.498  0.00  0.00    +0.000 A 
ATOM     21  C   UNL     1      46.261   3.153   7.162  0.00  0.00    +0.000 A 
BRANCH  16  23
ATOM     22  C   UNL     1      46.901   0.177   7.796  0.00  0.00    +0.000 C 
ATOM     23  O   UNL     1      45.704   0.939   7.725  0.00  0.00    +0.000 OA
ENDBRANCH  16  23
BRANCH  21  24
ATOM     24  C   UNL     1      46.722   2.708   5.792  0.00  0.00    +0.000 C 
BRANCH  24  25
ATOM     25  N   UNL     1      48.181   2.751   5.671  0.00  0.00    +0.000 NA
ATOM     26  H   UNL     1      48.576   2.230   6.454  0.00  0.00    +0.000 HD
ATOM     27  H   UNL     1      48.488   3.714   5.789  0.00  0.00    +0.000 HD
ENDBRANCH  24  25
ENDBRANCH  21  24
ENDBRANCH  15  18
ENDBRANCH   1  15
TORSDOF 6
ENDMDL
MODEL 9
REMARK VINA RESULT:    -5.688      4.147      6.946
REMARK INTER + INTRA:          -8.443
REMARK INTER:                  -7.741
REMARK INTRA:                  -0.702
REMARK UNBOUND:                -0.927
REMARK  Name = 
REMARK  7 active torsions:
REMARK  status: ('A' for Active; 'I' for Inactive)
REMARK    1  A    between atoms: C_1  and  O_2
REMARK    2  A    between atoms: O_2  and  C_3
REMARK    3  A    between atoms: C_5  and  C_6
REMARK    4  A    between atoms: C_6  and  N_7
REMARK    5  A    between atoms: C_12  and  C_13
REMARK    6  A    between atoms: C_21  and  C_22
REMARK    7  A    between atoms: C_22  and  N_23
REMARK                            x       y       z     vdW  Elec       q    Type
REMARK                         _______ _______ _______ _____ _____    ______ ____
ROOT
ATOM      1  N   UNL     1      48.212   5.799  15.471  0.00  0.00    +0.000 N 
ATOM      2  C   UNL     1      48.645   7.099  15.326  0.00  0.00    +0.000 A 
ATOM      3  C   UNL     1      48.442   7.468  14.019  0.00  0.00    +0.000 A 
ATOM      4  C   UNL     1      47.434   6.598  13.546  0.00  0.00    +0.000 A 
ATOM      5  C   UNL     1      46.468   6.706  12.533  0.00  0.00    +0.000 A 
ATOM      6  C   UNL     1      45.544   5.657  12.355  0.00  0.00    +0.000 A 
ATOM      7  C   UNL     1      45.715   4.458  13.040  0.00  0.00    +0.000 A 
ATOM      8  C   UNL     1      46.677   4.335  14.052  0.00  0.00    +0.000 A 
ATOM      9  C   UNL     1      47.436   5.468  14.371  0.00  0.00    +0.000 A 
ENDROOT
BRANCH   6  10
ATOM     10  C   UNL     1      44.360   5.933  11.484  0.00  0.00    +0.000 C 
ATOM     11  N   UNL     1      43.902   7.210  11.389  0.00  0.00    +0.000 N 
ATOM     12  O   UNL     1      43.831   5.062  10.801  0.00  0.00    +0.000 OA
ATOM     13  H   UNL     1      44.296   8.017  11.859  0.00  0.00    +0.000 HD
ATOM     14  H   UNL     1      43.146   7.369  10.740  0.00  0.00    +0.000 HD
ENDBRANCH   6  10
BRANCH   1  15
ATOM     15  C   UNL     1      48.241   5.116  16.763  0.00  0.00    +0.000 C 
BRANCH  15  18
ATOM     16  C   UNL     1      51.556   3.440  17.745  0.00  0.00    +0.000 A 
ATOM     17  C   UNL     1      50.588   4.431  17.501  0.00  0.00    +0.000 A 
ATOM     18  C   UNL     1      49.341   4.099  16.939  0.00  0.00    +0.000 A 
ATOM     19  C   UNL     1      49.081   2.761  16.621  0.00  0.00    +0.000 A 
ATOM     20  C   UNL     1      50.039   1.779  16.850  0.00  0.00    +0.000 A 
ATOM     21  C   UNL     1      51.280   2.099  17.424  0.00  0.00    +0.000 A 
BRANCH  16  23
ATOM     22  C   UNL     1      53.489   4.848  17.868  0.00  0.00    +0.000 C 
ATOM     23  O   UNL     1      52.796   3.679  18.281  0.00  0.00    +0.000 OA
ENDBRANCH  16  23
BRANCH  21  24
ATOM     24  C   UNL     1      52.278   0.987  17.656  0.00  0.00    +0.000 C 
BRANCH  24  25
ATOM     25  N   UNL     1      51.670  -0.151  18.350  0.00  0.00    +0.000 NA
ATOM     26  H   UNL     1      51.501   0.125  19.317  0.00  0.00    +0.000 HD
ATOM     27  H   UNL     1      52.349  -0.908  18.388  0.00  0.00    +0.000 HD
ENDBRANCH  24  25
ENDBRANCH  21  24
ENDBRANCH  15  18
ENDBRANCH   1  15
TORSDOF 6
ENDMDL
