MODEL 1
REMARK VINA RESULT:    -6.417      0.000      0.000
REMARK INTER + INTRA:          -8.979
REMARK INTER:                  -8.105
REMARK INTRA:                  -0.874
REMARK UNBOUND:                -0.874
REMARK  Name = 
REMARK  8 active torsions:
REMARK  status: ('A' for Active; 'I' for Inactive)
REMARK    1  A    between atoms: C_1  and  C_2
REMARK    2  A    between atoms: C_2  and  C_3
REMARK    3  A    between atoms: C_2  and  C_4
REMARK    4  A    between atoms: C_2  and  C_5
REMARK    5  A    between atoms: C_9  and  C_10
REMARK    6  A    between atoms: C_10  and  O_12
REMARK    7  A    between atoms: N_16  and  C_17
REMARK    8  A    between atoms: C_17  and  C_18
REMARK                            x       y       z     vdW  Elec       q    Type
REMARK                         _______ _______ _______ _____ _____    ______ ____
ROOT
ATOM      1  C   UNL     1      44.604   4.009  11.055  0.00  0.00    +0.000 A 
ATOM      2  N   UNL     1      44.898   2.820  10.538  0.00  0.00    +0.000 NA
ATOM      3  C   UNL     1      45.578   3.045   9.380  0.00  0.00    +0.000 A 
ATOM      4  C   UNL     1      46.069   2.154   8.421  0.00  0.00    +0.000 A 
ATOM      5  C   UNL     1      46.710   2.712   7.309  0.00  0.00    +0.000 A 
ATOM      6  C   UNL     1      46.813   4.101   7.212  0.00  0.00    +0.000 A 
ATOM      7  N   UNL     1      46.362   4.998   8.130  0.00  0.00    +0.000 NA
ATOM      8  C   UNL     1      45.754   4.401   9.176  0.00  0.00    +0.000 A 
ATOM      9  N   UNL     1      45.117   5.012  10.236  0.00  0.00    +0.000 N 
ENDROOT
BRANCH   1  11
ATOM     10  C   UNL     1      43.272   2.765  12.775  0.00  0.00    +0.000 C 
ATOM     11  C   UNL     1      43.816   4.158  12.360  0.00  0.00    +0.000 C 
ATOM     12  C   UNL     1      42.587   5.064  12.222  0.00  0.00    +0.000 C 
ATOM     13  C   UNL     1      44.714   4.652  13.504  0.00  0.00    +0.000 C 
ENDBRANCH   1  11
BRANCH   5  14
ATOM     14  C   UNL     1      47.238   1.905   6.194  0.00  0.00    +0.000 C 
ATOM     15  O   UNL     1      47.080   0.700   6.125  0.00  0.00    +0.000 OA
BRANCH  14  16
ATOM     16  O   UNL     1      47.887   2.614   5.244  0.00  0.00    +0.000 OA
ATOM     17  H   UNL     1      47.359   3.283   4.771  0.00  0.00    +0.000 HD
ENDBRANCH  14  16
ENDBRANCH   5  14
BRANCH   9  18
ATOM     18  C   UNL     1      45.018   6.463  10.344  0.00  0.00    +0.000 C 
BRANCH  18  19
ATOM     19  C   UNL     1      45.879   7.044  11.445  0.00  0.00    +0.000 A 
ATOM     20  C   UNL     1      45.332   8.014  12.300  0.00  0.00    +0.000 A 
ATOM     21  C   UNL     1      46.136   8.670  13.234  0.00  0.00    +0.000 A 
ATOM     22  C   UNL     1      47.484   8.341  13.348  0.00  0.00    +0.000 A 
ATOM     23  C   UNL     1      48.020   7.327  12.562  0.00  0.00    +0.000 A 
ATOM     24  C   UNL     1      47.218   6.667  11.630  0.00  0.00    +0.000 A 
ENDBRANCH  18  19
ENDBRANCH   9  18
TORSDOF 5
ENDMDL
MODEL 2
REMARK VINA RESULT:    -5.961      3.337      5.459
REMARK INTER + INTRA:          -8.403
REMARK INTER:                  -7.599
REMARK INTRA:                  -0.804
REMARK UNBOUND:                -0.874
REMARK  Name = 
REMARK  8 active torsions:
REMARK  status: ('A' for Active; 'I' for Inactive)
REMARK    1  A    between atoms: C_1  and  C_2
REMARK    2  A    between atoms: C_2  and  C_3
REMARK    3  A    between atoms: C_2  and  C_4
REMARK    4  A    between atoms: C_2  and  C_5
REMARK    5  A    between atoms: C_9  and  C_10
REMARK    6  A    between atoms: C_10  and  O_12
REMARK    7  A    between atoms: N_16  and  C_17
REMARK    8  A    between atoms: C_17  and  C_18
REMARK                            x       y       z     vdW  Elec       q    Type
REMARK                         _______ _______ _______ _____ _____    ______ ____
ROOT
ATOM      1  C   UNL     1      47.994   6.666  14.293  0.00  0.00    +0.000 A 
ATOM      2  N   UNL     1      47.519   5.435  14.452  0.00  0.00    +0.000 NA
ATOM      3  C   UNL     1      46.694   5.186  13.398  0.00  0.00    +0.000 A 
ATOM      4  C   UNL     1      45.897   4.075  13.104  0.00  0.00    +0.000 A 
ATOM      5  C   UNL     1      45.129   4.139  11.936  0.00  0.00    +0.000 A 
ATOM      6  C   UNL     1      45.187   5.291  11.149  0.00  0.00    +0.000 A 
ATOM      7  N   UNL     1      45.959   6.384  11.394  0.00  0.00    +0.000 NA
ATOM      8  C   UNL     1      46.675   6.263  12.531  0.00  0.00    +0.000 A 
ATOM      9  N   UNL     1      47.491   7.211  13.113  0.00  0.00    +0.000 N 
ENDROOT
BRANCH   1  11
ATOM     10  C   UNL     1      48.980   6.433  16.585  0.00  0.00    +0.000 C 
ATOM     11  C   UNL     1      48.949   7.308  15.304  0.00  0.00    +0.000 C 
ATOM     12  C   UNL     1      48.498   8.701  15.758  0.00  0.00    +0.000 C 
ATOM     13  C   UNL     1      50.385   7.367  14.761  0.00  0.00    +0.000 C 
ENDBRANCH   1  11
BRANCH   5  14
ATOM     14  C   UNL     1      44.208   3.067  11.517  0.00  0.00    +0.000 C 
ATOM     15  O   UNL     1      43.873   2.907  10.358  0.00  0.00    +0.000 OA
BRANCH  14  16
ATOM     16  O   UNL     1      43.788   2.262  12.520  0.00  0.00    +0.000 OA
ATOM     17  H   UNL     1      44.332   2.264  13.329  0.00  0.00    +0.000 HD
ENDBRANCH  14  16
ENDBRANCH   5  14
BRANCH   9  18
ATOM     18  C   UNL     1      47.675   8.534  12.530  0.00  0.00    +0.000 C 
BRANCH  18  19
ATOM     19  C   UNL     1      49.039   8.731  11.905  0.00  0.00    +0.000 A 
ATOM     20  C   UNL     1      49.694   7.628  11.333  0.00  0.00    +0.000 A 
ATOM     21  C   UNL     1      51.007   7.743  10.873  0.00  0.00    +0.000 A 
ATOM     22  C   UNL     1      51.668   8.967  10.950  0.00  0.00    +0.000 A 
ATOM     23  C   UNL     1      51.004  10.086  11.442  0.00  0.00    +0.000 A 
ATOM     24  C   UNL     1      49.689   9.974  11.898  0.00  0.00    +0.000 A 
ENDBRANCH  18  19
ENDBRANCH   9  18
TORSDOF 5
ENDMDL
MODEL 3
REMARK VINA RESULT:    -5.665      4.460      6.071
REMARK INTER + INTRA:          -8.030
REMARK INTER:                  -7.458
REMARK INTRA:                  -0.571
REMARK UNBOUND:                -0.874
REMARK  Name = 
REMARK  8 active torsions:
REMARK  status: ('A' for Active; 'I' for Inactive)
REMARK    1  A    between atoms: C_1  and  C_2
REMARK    2  A    between atoms: C_2  and  C_3
REMARK    3  A    between atoms: C_2  and  C_4
REMARK    4  A    between atoms: C_2  and  C_5
REMARK    5  A    between atoms: C_9  and  C_10
REMARK    6  A    between atoms: C_10  and  O_12
REMARK    7  A    between atoms: N_16  and  C_17
REMARK    8  A    between atoms: C_17  and  C_18
REMARK                            x       y       z     vdW  Elec       q    Type
REMARK                         _______ _______ _______ _____ _____    ______ ____
ROOT
ATOM      1  C   UNL     1      45.326   4.700  12.599  0.00  0.00    +0.000 A 
ATOM      2  N   UNL     1      45.463   4.078  13.765  0.00  0.00    +0.000 NA
ATOM      3  C   UNL     1      46.506   4.667  14.413  0.00  0.00    +0.000 A 
ATOM      4  C   UNL     1      47.106   4.367  15.640  0.00  0.00    +0.000 A 
ATOM      5  C   UNL     1      48.197   5.157  16.020  0.00  0.00    +0.000 A 
ATOM      6  C   UNL     1      48.627   6.174  15.166  0.00  0.00    +0.000 A 
ATOM      7  N   UNL     1      48.062   6.504  13.973  0.00  0.00    +0.000 NA
ATOM      8  C   UNL     1      47.017   5.709  13.662  0.00  0.00    +0.000 A 
ATOM      9  N   UNL     1      46.275   5.716  12.499  0.00  0.00    +0.000 N 
ENDROOT
BRANCH   1  11
ATOM     10  C   UNL     1      43.688   2.908  11.979  0.00  0.00    +0.000 C 
ATOM     11  C   UNL     1      44.259   4.295  11.579  0.00  0.00    +0.000 C 
ATOM     12  C   UNL     1      44.814   4.126  10.159  0.00  0.00    +0.000 C 
ATOM     13  C   UNL     1      43.082   5.283  11.575  0.00  0.00    +0.000 C 
ENDBRANCH   1  11
BRANCH   5  14
ATOM     14  C   UNL     1      48.959   4.935  17.261  0.00  0.00    +0.000 C 
ATOM     15  O   UNL     1      48.465   5.065  18.366  0.00  0.00    +0.000 OA
BRANCH  14  16
ATOM     16  O   UNL     1      50.242   4.549  17.073  0.00  0.00    +0.000 OA
ATOM     17  H   UNL     1      50.542   4.492  16.147  0.00  0.00    +0.000 HD
ENDBRANCH  14  16
ENDBRANCH   5  14
BRANCH   9  18
ATOM     18  C   UNL     1      46.561   6.637  11.407  0.00  0.00    +0.000 C 
BRANCH  18  19
ATOM     19  C   UNL     1      45.995   8.024  11.626  0.00  0.00    +0.000 A 
ATOM     20  C   UNL     1      44.644   8.265  11.327  0.00  0.00    +0.000 A 
ATOM     21  C   UNL     1      44.124   9.559  11.385  0.00  0.00    +0.000 A 
ATOM     22  C   UNL     1      44.938  10.620  11.773  0.00  0.00    +0.000 A 
ATOM     23  C   UNL     1      46.257  10.384  12.148  0.00  0.00    +0.000 A 
ATOM     24  C   UNL     1      46.777   9.090  12.095  0.00  0.00    +0.000 A 
ENDBRANCH  18  19
ENDBRANCH   9  18
TORSDOF 5
ENDMDL
MODEL 4
REMARK VINA RESULT:    -5.609      4.493      7.055
REMARK INTER + INTRA:          -7.959
REMARK INTER:                  -7.653
REMARK INTRA:                  -0.306
REMARK UNBOUND:                -0.874
REMARK  Name = 
REMARK  8 active torsions:
REMARK  status: ('A' for Active; 'I' for Inactive)
REMARK    1  A    between atoms: C_1  and  C_2
REMARK    2  A    between atoms: C_2  and  C_3
REMARK    3  A    between atoms: C_2  and  C_4
REMARK    4  A    between atoms: C_2  and  C_5
REMARK    5  A    between atoms: C_9  and  C_10
REMARK    6  A    between atoms: C_10  and  O_12
REMARK    7  A    between atoms: N_16  and  C_17
REMARK    8  A    between atoms: C_17  and  C_18
REMARK                            x       y       z     vdW  Elec       q    Type
REMARK                         _______ _______ _______ _____ _____    ______ ____
ROOT
ATOM      1  C   UNL     1      47.912   7.698  13.416  0.00  0.00    +0.000 A 
ATOM      2  N   UNL     1      48.266   7.470  14.676  0.00  0.00    +0.000 NA
ATOM      3  C   UNL     1      47.995   6.161  14.937  0.00  0.00    +0.000 A 
ATOM      4  C   UNL     1      48.121   5.420  16.116  0.00  0.00    +0.000 A 
ATOM      5  C   UNL     1      47.725   4.079  16.065  0.00  0.00    +0.000 A 
ATOM      6  C   UNL     1      47.224   3.565  14.867  0.00  0.00    +0.000 A 
ATOM      7  N   UNL     1      47.100   4.250  13.698  0.00  0.00    +0.000 NA
ATOM      8  C   UNL     1      47.497   5.535  13.811  0.00  0.00    +0.000 A 
ATOM      9  N   UNL     1      47.429   6.521  12.848  0.00  0.00    +0.000 N 
ENDROOT
BRANCH   1  11
ATOM     10  C   UNL     1      48.613  10.070  13.820  0.00  0.00    +0.000 C 
ATOM     11  C   UNL     1      48.051   9.078  12.767  0.00  0.00    +0.000 C 
ATOM     12  C   UNL     1      46.711   9.667  12.309  0.00  0.00    +0.000 C 
ATOM     13  C   UNL     1      49.046   9.050  11.596  0.00  0.00    +0.000 C 
ENDBRANCH   1  11
BRANCH   5  14
ATOM     14  C   UNL     1      47.756   3.184  17.236  0.00  0.00    +0.000 C 
ATOM     15  O   UNL     1      48.795   2.835  17.766  0.00  0.00    +0.000 OA
BRANCH  14  16
ATOM     16  O   UNL     1      46.539   2.805  17.687  0.00  0.00    +0.000 OA
ATOM     17  H   UNL     1      45.812   3.439  17.547  0.00  0.00    +0.000 HD
ENDBRANCH  14  16
ENDBRANCH   5  14
BRANCH   9  18
ATOM     18  C   UNL     1      46.879   6.268  11.522  0.00  0.00    +0.000 C 
BRANCH  18  19
ATOM     19  C   UNL     1      45.447   5.777  11.549  0.00  0.00    +0.000 A 
ATOM     20  C   UNL     1      44.555   6.323  12.486  0.00  0.00    +0.000 A 
ATOM     21  C   UNL     1      43.270   5.798  12.632  0.00  0.00    +0.000 A 
ATOM     22  C   UNL     1      42.851   4.745  11.823  0.00  0.00    +0.000 A 
ATOM     23  C   UNL     1      43.697   4.247  10.837  0.00  0.00    +0.000 A 
ATOM     24  C   UNL     1      44.980   4.774  10.687  0.00  0.00    +0.000 A 
ENDBRANCH  18  19
ENDBRANCH   9  18
TORSDOF 5
ENDMDL
MODEL 5
REMARK VINA RESULT:    -5.527      4.645      6.260
REMARK INTER + INTRA:          -7.856
REMARK INTER:                  -6.991
REMARK INTRA:                  -0.865
REMARK UNBOUND:                -0.874
REMARK  Name = 
REMARK  8 active torsions:
REMARK  status: ('A' for Active; 'I' for Inactive)
REMARK    1  A    between atoms: C_1  and  C_2
REMARK    2  A    between atoms: C_2  and  C_3
REMARK    3  A    between atoms: C_2  and  C_4
REMARK    4  A    between atoms: C_2  and  C_5
REMARK    5  A    between atoms: C_9  and  C_10
REMARK    6  A    between atoms: C_10  and  O_12
REMARK    7  A    between atoms: N_16  and  C_17
REMARK    8  A    between atoms: C_17  and  C_18
REMARK                            x       y       z     vdW  Elec       q    Type
REMARK                         _______ _______ _______ _____ _____    ______ ____
ROOT
ATOM      1  C   UNL     1      47.816   4.829  16.086  0.00  0.00    +0.000 A 
ATOM      2  N   UNL     1      46.838   4.368  15.313  0.00  0.00    +0.000 NA
ATOM      3  C   UNL     1      46.870   5.086  14.157  0.00  0.00    +0.000 A 
ATOM      4  C   UNL     1      46.034   5.051  13.036  0.00  0.00    +0.000 A 
ATOM      5  C   UNL     1      46.321   5.953  12.006  0.00  0.00    +0.000 A 
ATOM      6  C   UNL     1      47.396   6.832  12.153  0.00  0.00    +0.000 A 
ATOM      7  N   UNL     1      48.238   6.886  13.220  0.00  0.00    +0.000 NA
ATOM      8  C   UNL     1      47.911   5.995  14.179  0.00  0.00    +0.000 A 
ATOM      9  N   UNL     1      48.501   5.840  15.416  0.00  0.00    +0.000 N 
ENDROOT
BRANCH   1  11
ATOM     10  C   UNL     1      47.372   2.897  17.618  0.00  0.00    +0.000 C 
ATOM     11  C   UNL     1      48.078   4.273  17.489  0.00  0.00    +0.000 C 
ATOM     12  C   UNL     1      47.495   5.149  18.604  0.00  0.00    +0.000 C 
ATOM     13  C   UNL     1      49.577   4.037  17.728  0.00  0.00    +0.000 C 
ENDBRANCH   1  11
BRANCH   5  14
ATOM     14  C   UNL     1      45.505   6.066  10.783  0.00  0.00    +0.000 C 
ATOM     15  O   UNL     1      45.617   5.295   9.848  0.00  0.00    +0.000 OA
BRANCH  14  16
ATOM     16  O   UNL     1      44.606   7.076  10.798  0.00  0.00    +0.000 OA
ATOM     17  H   UNL     1      44.737   7.778  10.134  0.00  0.00    +0.000 HD
ENDBRANCH  14  16
ENDBRANCH   5  14
BRANCH   9  18
ATOM     18  C   UNL     1      49.607   6.683  15.854  0.00  0.00    +0.000 C 
BRANCH  18  19
ATOM     19  C   UNL     1      49.187   7.778  16.811  0.00  0.00    +0.000 A 
ATOM     20  C   UNL     1      49.704   7.779  18.117  0.00  0.00    +0.000 A 
ATOM     21  C   UNL     1      49.234   8.690  19.064  0.00  0.00    +0.000 A 
ATOM     22  C   UNL     1      48.267   9.628  18.710  0.00  0.00    +0.000 A 
ATOM     23  C   UNL     1      47.804   9.688  17.400  0.00  0.00    +0.000 A 
ATOM     24  C   UNL     1      48.277   8.782  16.450  0.00  0.00    +0.000 A 
ENDBRANCH  18  19
ENDBRANCH   9  18
TORSDOF 5
ENDMDL
MODEL 6
REMARK VINA RESULT:    -5.493      4.891      6.491
REMARK INTER + INTRA:          -7.813
REMARK INTER:                  -7.199
REMARK INTRA:                  -0.614
REMARK UNBOUND:                -0.874
REMARK  Name = 
REMARK  8 active torsions:
REMARK  status: ('A' for Active; 'I' for Inactive)
REMARK    1  A    between atoms: C_1  and  C_2
REMARK    2  A    between atoms: C_2  and  C_3
REMARK    3  A    between atoms: C_2  and  C_4
REMARK    4  A    between atoms: C_2  and  C_5
REMARK    5  A    between atoms: C_9  and  C_10
REMARK    6  A    between atoms: C_10  and  O_12
REMARK    7  A    between atoms: N_16  and  C_17
REMARK    8  A    between atoms: C_17  and  C_18
REMARK                            x       y       z     vdW  Elec       q    Type
REMARK                         _______ _______ _______ _____ _____    ______ ____
ROOT
ATOM      1  C   UNL     1      47.930   4.424  16.146  0.00  0.00    +0.000 A 
ATOM      2  N   UNL     1      47.200   3.860  15.189  0.00  0.00    +0.000 NA
ATOM      3  C   UNL     1      47.038   4.792  14.209  0.00  0.00    +0.000 A 
ATOM      4  C   UNL     1      46.314   4.744  13.014  0.00  0.00    +0.000 A 
ATOM      5  C   UNL     1      46.325   5.898  12.222  0.00  0.00    +0.000 A 
ATOM      6  C   UNL     1      47.034   7.017  12.663  0.00  0.00    +0.000 A 
ATOM      7  N   UNL     1      47.761   7.096  13.811  0.00  0.00    +0.000 NA
ATOM      8  C   UNL     1      47.712   5.956  14.530  0.00  0.00    +0.000 A 
ATOM      9  N   UNL     1      48.264   5.724  15.773  0.00  0.00    +0.000 N 
ENDROOT
BRANCH   1  11
ATOM     10  C   UNL     1      47.201   2.630  17.737  0.00  0.00    +0.000 C 
ATOM     11  C   UNL     1      48.302   3.680  17.432  0.00  0.00    +0.000 C 
ATOM     12  C   UNL     1      48.362   4.594  18.662  0.00  0.00    +0.000 C 
ATOM     13  C   UNL     1      49.625   2.915  17.275  0.00  0.00    +0.000 C 
ENDBRANCH   1  11
BRANCH   5  14
ATOM     14  C   UNL     1      45.574   6.016  10.959  0.00  0.00    +0.000 C 
ATOM     15  O   UNL     1      45.669   5.199  10.062  0.00  0.00    +0.000 OA
BRANCH  14  16
ATOM     16  O   UNL     1      44.752   7.088  10.891  0.00  0.00    +0.000 OA
ATOM     17  H   UNL     1      43.976   7.073  11.481  0.00  0.00    +0.000 HD
ENDBRANCH  14  16
ENDBRANCH   5  14
BRANCH   9  18
ATOM     18  C   UNL     1      49.002   6.754  16.494  0.00  0.00    +0.000 C 
BRANCH  18  19
ATOM     19  C   UNL     1      50.479   6.775  16.165  0.00  0.00    +0.000 A 
ATOM     20  C   UNL     1      51.350   5.938  16.882  0.00  0.00    +0.000 A 
ATOM     21  C   UNL     1      52.731   6.032  16.703  0.00  0.00    +0.000 A 
ATOM     22  C   UNL     1      53.256   6.938  15.784  0.00  0.00    +0.000 A 
ATOM     23  C   UNL     1      52.401   7.717  15.012  0.00  0.00    +0.000 A 
ATOM     24  C   UNL     1      51.020   7.622  15.186  0.00  0.00    +0.000 A 
ENDBRANCH  18  19
ENDBRANCH   9  18
TORSDOF 5
ENDMDL
MODEL 7
REMARK VINA RESULT:    -5.453      3.528      5.973
REMARK INTER + INTRA:          -7.761
REMARK INTER:                  -7.546
REMARK INTRA:                  -0.215
REMARK UNBOUND:                -0.874
REMARK  Name = 
REMARK  8 active torsions:
REMARK  status: ('A' for Active; 'I' for Inactive)
REMARK    1  A    between atoms: C_1  and  C_2
REMARK    2  A    between atoms: C_2  and  C_3
REMARK    3  A    between atoms: C_2  and  C_4
REMARK    4  A    between atoms: C_2  and  C_5
REMARK    5  A    between atoms: C_9  and  C_10
REMARK    6  A    between atoms: C_10  and  O_12
REMARK    7  A    between atoms: N_16  and  C_17
REMARK    8  A    between atoms: C_17  and  C_18
REMARK                            x       y       z     vdW  Elec       q    Type
REMARK                         _______ _______ _______ _____ _____    ______ ____
ROOT
ATOM      1  C   UNL     1      44.929   5.074  12.395  0.00  0.00    +0.000 A 
ATOM      2  N   UNL     1      45.665   5.266  13.485  0.00  0.00    +0.000 NA
ATOM      3  C   UNL     1      46.757   5.987  13.108  0.00  0.00    +0.000 A 
ATOM      4  C   UNL     1      47.870   6.410  13.842  0.00  0.00    +0.000 A 
ATOM      5  C   UNL     1      48.852   7.122  13.145  0.00  0.00    +0.000 A 
ATOM      6  C   UNL     1      48.679   7.357  11.780  0.00  0.00    +0.000 A 
ATOM      7  N   UNL     1      47.606   6.975  11.036  0.00  0.00    +0.000 NA
ATOM      8  C   UNL     1      46.695   6.293  11.762  0.00  0.00    +0.000 A 
ATOM      9  N   UNL     1      45.538   5.696  11.307  0.00  0.00    +0.000 N 
ENDROOT
BRANCH   1  11
ATOM     10  C   UNL     1      42.992   4.404  13.837  0.00  0.00    +0.000 C 
ATOM     11  C   UNL     1      43.621   4.278  12.424  0.00  0.00    +0.000 C 
ATOM     12  C   UNL     1      43.823   2.777  12.187  0.00  0.00    +0.000 C 
ATOM     13  C   UNL     1      42.599   4.841  11.423  0.00  0.00    +0.000 C 
ENDBRANCH   1  11
BRANCH   5  14
ATOM     14  C   UNL     1      50.101   7.594  13.770  0.00  0.00    +0.000 C 
ATOM     15  O   UNL     1      50.742   8.530  13.328  0.00  0.00    +0.000 OA
BRANCH  14  16
ATOM     16  O   UNL     1      50.460   6.922  14.887  0.00  0.00    +0.000 OA
ATOM     17  H   UNL     1      49.731   6.567  15.428  0.00  0.00    +0.000 HD
ENDBRANCH  14  16
ENDBRANCH   5  14
BRANCH   9  18
ATOM     18  C   UNL     1      45.153   5.731   9.901  0.00  0.00    +0.000 C 
BRANCH  18  19
ATOM     19  C   UNL     1      45.634   4.530   9.116  0.00  0.00    +0.000 A 
ATOM     20  C   UNL     1      46.471   4.730   8.006  0.00  0.00    +0.000 A 
ATOM     21  C   UNL     1      46.820   3.662   7.179  0.00  0.00    +0.000 A 
ATOM     22  C   UNL     1      46.365   2.378   7.469  0.00  0.00    +0.000 A 
ATOM     23  C   UNL     1      45.601   2.152   8.609  0.00  0.00    +0.000 A 
ATOM     24  C   UNL     1      45.255   3.219   9.440  0.00  0.00    +0.000 A 
ENDBRANCH  18  19
ENDBRANCH   9  18
TORSDOF 5
ENDMDL
MODEL 8
REMARK VINA RESULT:    -5.361      3.889      6.492
REMARK INTER + INTRA:          -7.646
REMARK INTER:                  -7.031
REMARK INTRA:                  -0.615
REMARK UNBOUND:                -0.874
REMARK  Name = 
REMARK  8 active torsions:
REMARK  status: ('A' for Active; 'I' for Inactive)
REMARK    1  A    between atoms: C_1  and  C_2
REMARK    2  A    between atoms: C_2  and  C_3
REMARK    3  A    between atoms: C_2  and  C_4
REMARK    4  A    between atoms: C_2  and  C_5
REMARK    5  A    between atoms: C_9  and  C_10
REMARK    6  A    between atoms: C_10  and  O_12
REMARK    7  A    between atoms: N_16  and  C_17
REMARK    8  A    between atoms: C_17  and  C_18
REMARK                            x       y       z     vdW  Elec       q    Type
REMARK                         _______ _______ _______ _____ _____    ______ ____
ROOT
ATOM      1  C   UNL     1      48.417   8.093  12.980  0.00  0.00    +0.000 A 
ATOM      2  N   UNL     1      47.441   7.721  12.158  0.00  0.00    +0.000 NA
ATOM      3  C   UNL     1      46.984   6.517  12.600  0.00  0.00    +0.000 A 
ATOM      4  C   UNL     1      46.011   5.660  12.074  0.00  0.00    +0.000 A 
ATOM      5  C   UNL     1      45.788   4.461  12.760  0.00  0.00    +0.000 A 
ATOM      6  C   UNL     1      46.542   4.182  13.901  0.00  0.00    +0.000 A 
ATOM      7  N   UNL     1      47.485   4.995  14.450  0.00  0.00    +0.000 NA
ATOM      8  C   UNL     1      47.654   6.134  13.746  0.00  0.00    +0.000 A 
ATOM      9  N   UNL     1      48.579   7.131  13.975  0.00  0.00    +0.000 N 
ENDROOT
BRANCH   1  11
ATOM     10  C   UNL     1      48.916   9.935  11.356  0.00  0.00    +0.000 C 
ATOM     11  C   UNL     1      49.193   9.398  12.785  0.00  0.00    +0.000 C 
ATOM     12  C   UNL     1      50.713   9.216  12.878  0.00  0.00    +0.000 C 
ATOM     13  C   UNL     1      48.727  10.480  13.773  0.00  0.00    +0.000 C 
ENDBRANCH   1  11
BRANCH   5  14
ATOM     14  C   UNL     1      44.829   3.439  12.304  0.00  0.00    +0.000 C 
ATOM     15  O   UNL     1      43.806   3.183  12.912  0.00  0.00    +0.000 OA
BRANCH  14  16
ATOM     16  O   UNL     1      45.165   2.829  11.144  0.00  0.00    +0.000 OA
ATOM     17  H   UNL     1      45.690   2.012  11.224  0.00  0.00    +0.000 HD
ENDBRANCH  14  16
ENDBRANCH   5  14
BRANCH   9  18
ATOM     18  C   UNL     1      49.540   7.056  15.069  0.00  0.00    +0.000 C 
BRANCH  18  19
ATOM     19  C   UNL     1      48.957   7.449  16.409  0.00  0.00    +0.000 A 
ATOM     20  C   UNL     1      48.772   6.461  17.390  0.00  0.00    +0.000 A 
ATOM     21  C   UNL     1      48.112   6.760  18.582  0.00  0.00    +0.000 A 
ATOM     22  C   UNL     1      47.658   8.055  18.823  0.00  0.00    +0.000 A 
ATOM     23  C   UNL     1      47.904   9.061  17.894  0.00  0.00    +0.000 A 
ATOM     24  C   UNL     1      48.569   8.765  16.703  0.00  0.00    +0.000 A 
ENDBRANCH  18  19
ENDBRANCH   9  18
TORSDOF 5
ENDMDL
MODEL 9
REMARK VINA RESULT:    -5.185      4.184      6.605
REMARK INTER + INTRA:          -7.424
REMARK INTER:                  -6.456
REMARK INTRA:                  -0.967
REMARK UNBOUND:                -0.874
REMARK  Name = 
REMARK  8 active torsions:
REMARK  status: ('A' for Active; 'I' for Inactive)
REMARK    1  A    between atoms: C_1  and  C_2
REMARK    2  A    between atoms: C_2  and  C_3
REMARK    3  A    between atoms: C_2  and  C_4
REMARK    4  A    between atoms: C_2  and  C_5
REMARK    5  A    between atoms: C_9  and  C_10
REMARK    6  A    between atoms: C_10  and  O_12
REMARK    7  A    between atoms: N_16  and  C_17
REMARK    8  A    between atoms: C_17  and  C_18
REMARK                            x       y       z     vdW  Elec       q    Type
REMARK                         _______ _______ _______ _____ _____    ______ ____
ROOT
ATOM      1  C   UNL     1      47.601   9.184  12.503  0.00  0.00    +0.000 A 
ATOM      2  N   UNL     1      46.423   8.644  12.208  0.00  0.00    +0.000 NA
ATOM      3  C   UNL     1      46.454   7.354  12.645  0.00  0.00    +0.000 A 
ATOM      4  C   UNL     1      45.507   6.331  12.538  0.00  0.00    +0.000 A 
ATOM      5  C   UNL     1      45.858   5.087  13.075  0.00  0.00    +0.000 A 
ATOM      6  C   UNL     1      47.113   4.933  13.666  0.00  0.00    +0.000 A 
ATOM      7  N   UNL     1      48.053   5.907  13.801  0.00  0.00    +0.000 NA
ATOM      8  C   UNL     1      47.658   7.081  13.265  0.00  0.00    +0.000 A 
ATOM      9  N   UNL     1      48.394   8.243  13.158  0.00  0.00    +0.000 N 
ENDROOT
BRANCH   1  11
ATOM     10  C   UNL     1      46.639  11.383  11.786  0.00  0.00    +0.000 C 
ATOM     11  C   UNL     1      47.948  10.631  12.142  0.00  0.00    +0.000 C 
ATOM     12  C   UNL     1      48.847  10.745  10.904  0.00  0.00    +0.000 C 
ATOM     13  C   UNL     1      48.586  11.369  13.330  0.00  0.00    +0.000 C 
ENDBRANCH   1  11
BRANCH   5  14
ATOM     14  C   UNL     1      44.985   3.902  12.999  0.00  0.00    +0.000 C 
ATOM     15  O   UNL     1      43.791   3.952  13.231  0.00  0.00    +0.000 OA
BRANCH  14  16
ATOM     16  O   UNL     1      45.612   2.764  12.626  0.00  0.00    +0.000 OA
ATOM     17  H   UNL     1      45.547   2.014  13.245  0.00  0.00    +0.000 HD
ENDBRANCH  14  16
ENDBRANCH   5  14
BRANCH   9  18
ATOM     18  C   UNL     1      49.768   8.333  13.636  0.00  0.00    +0.000 C 
BRANCH  18  19
ATOM     19  C   UNL     1      50.791   8.357  12.521  0.00  0.00    +0.000 A 
ATOM     20  C   UNL     1      51.856   9.271  12.590  0.00  0.00    +0.000 A 
ATOM     21  C   UNL     1      52.737   9.416  11.517  0.00  0.00    +0.000 A 
ATOM     22  C   UNL     1      52.585   8.628  10.379  0.00  0.00    +0.000 A 
ATOM     23  C   UNL     1      51.584   7.664  10.329  0.00  0.00    +0.000 A 
ATOM     24  C   UNL     1      50.705   7.514  11.403  0.00  0.00    +0.000 A 
ENDBRANCH  18  19
ENDBRANCH   9  18
TORSDOF 5
ENDMDL
