MODEL 1
REMARK VINA RESULT:    -6.832      0.000      0.000
REMARK INTER + INTRA:         -10.521
REMARK INTER:                  -9.228
REMARK INTRA:                  -1.293
REMARK UNBOUND:                -1.293
REMARK  Name = 
REMARK  7 active torsions:
REMARK  status: ('A' for Active; 'I' for Inactive)
REMARK    1  A    between atoms: C_1  and  O_2
REMARK    2  A    between atoms: O_2  and  C_3
REMARK    3  A    between atoms: C_5  and  C_6
REMARK    4  A    between atoms: C_6  and  N_7
REMARK    5  A    between atoms: C_8  and  C_10
REMARK    6  A    between atoms: C_22  and  C_23
REMARK    7  A    between atoms: C_23  and  N_24
REMARK                            x       y       z     vdW  Elec       q    Type
REMARK                         _______ _______ _______ _____ _____    ______ ____
ROOT
ATOM      1  C   UNL     1      49.177   6.289  17.302  0.00  0.00    +0.000 C 
ENDROOT
BRANCH   1   4
ATOM      2  C   UNL     1      47.523   5.937  13.837  0.00  0.00    +0.000 A 
ATOM      3  C   UNL     1      48.319   6.435  14.885  0.00  0.00    +0.000 A 
ATOM      4  C   UNL     1      48.362   5.776  16.141  0.00  0.00    +0.000 A 
ATOM      5  C   UNL     1      47.613   4.598  16.309  0.00  0.00    +0.000 A 
ATOM      6  C   UNL     1      46.852   4.086  15.270  0.00  0.00    +0.000 A 
ATOM      7  C   UNL     1      46.793   4.740  14.027  0.00  0.00    +0.000 A 
BRANCH   2   9
ATOM      8  C   UNL     1      46.903   7.848  12.434  0.00  0.00    +0.000 C 
ATOM      9  O   UNL     1      47.337   6.510  12.612  0.00  0.00    +0.000 OA
ENDBRANCH   2   9
BRANCH   7  10
ATOM     10  C   UNL     1      45.994   4.091  12.903  0.00  0.00    +0.000 C 
BRANCH  10  11
ATOM     11  N   UNL     1      44.536   4.073  13.085  0.00  0.00    +0.000 NA
ATOM     12  C   UNL     1      43.785   3.195  12.171  0.00  0.00    +0.000 C 
ATOM     13  C   UNL     1      43.551   3.741  10.751  0.00  0.00    +0.000 C 
ATOM     14  O   UNL     1      42.993   5.061  10.760  0.00  0.00    +0.000 OA
ATOM     15  C   UNL     1      43.748   5.965  11.571  0.00  0.00    +0.000 C 
ATOM     16  C   UNL     1      43.968   5.435  12.999  0.00  0.00    +0.000 C 
ENDBRANCH  10  11
ENDBRANCH   7  10
ENDBRANCH   1   4
BRANCH   1  17
ATOM     17  N   UNL     1      50.148   5.318  17.754  0.00  0.00    +0.000 N 
ATOM     18  C   UNL     1      51.446   5.348  17.323  0.00  0.00    +0.000 C 
ATOM     19  O   UNL     1      51.842   6.199  16.529  0.00  0.00    +0.000 OA
ATOM     20  H   UNL     1      49.814   4.551  18.332  0.00  0.00    +0.000 HD
BRANCH  18  21
ATOM     21  C   UNL     1      52.372   4.358  17.893  0.00  0.00    +0.000 A 
ATOM     22  C   UNL     1      53.498   4.808  18.569  0.00  0.00    +0.000 A 
ATOM     23  S   UNL     1      54.493   3.563  19.164  0.00  0.00    +0.000 S 
ATOM     24  C   UNL     1      53.463   2.367  18.526  0.00  0.00    +0.000 A 
ATOM     25  N   UNL     1      53.765   1.048  18.666  0.00  0.00    +0.000 NA
ATOM     26  C   UNL     1      52.925   0.248  18.100  0.00  0.00    +0.000 A 
ATOM     27  N   UNL     1      51.798   0.646  17.425  0.00  0.00    +0.000 N 
ATOM     28  C   UNL     1      51.416   1.967  17.329  0.00  0.00    +0.000 A 
ATOM     29  O   UNL     1      50.339   2.279  16.829  0.00  0.00    +0.000 OA
ATOM     30  C   UNL     1      52.357   2.912  17.891  0.00  0.00    +0.000 A 
ATOM     31  H   UNL     1      51.166  -0.038  17.037  0.00  0.00    +0.000 HD
ENDBRANCH  18  21
ENDBRANCH   1  17
TORSDOF 6
ENDMDL
MODEL 2
REMARK VINA RESULT:    -6.688      3.048      9.497
REMARK INTER + INTRA:         -10.327
REMARK INTER:                  -9.362
REMARK INTRA:                  -0.965
REMARK UNBOUND:                -1.293
REMARK  Name = 
REMARK  7 active torsions:
REMARK  status: ('A' for Active; 'I' for Inactive)
REMARK    1  A    between atoms: C_1  and  O_2
REMARK    2  A    between atoms: O_2  and  C_3
REMARK    3  A    between atoms: C_5  and  C_6
REMARK    4  A    between atoms: C_6  and  N_7
REMARK    5  A    between atoms: C_8  and  C_10
REMARK    6  A    between atoms: C_22  and  C_23
REMARK    7  A    between atoms: C_23  and  N_24
REMARK                            x       y       z     vdW  Elec       q    Type
REMARK                         _______ _______ _______ _____ _____    ______ ____
ROOT
ATOM      1  C   UNL     1      47.199   3.404  16.768  0.00  0.00    +0.000 C 
ENDROOT
BRANCH   1   4
ATOM      2  C   UNL     1      50.659   4.884  17.605  0.00  0.00    +0.000 A 
ATOM      3  C   UNL     1      49.277   4.795  17.353  0.00  0.00    +0.000 A 
ATOM      4  C   UNL     1      48.669   3.544  17.072  0.00  0.00    +0.000 A 
ATOM      5  C   UNL     1      49.471   2.390  17.077  0.00  0.00    +0.000 A 
ATOM      6  C   UNL     1      50.826   2.468  17.355  0.00  0.00    +0.000 A 
ATOM      7  C   UNL     1      51.439   3.705  17.622  0.00  0.00    +0.000 A 
BRANCH   2   9
ATOM      8  C   UNL     1      51.215   6.848  18.960  0.00  0.00    +0.000 C 
ATOM      9  O   UNL     1      51.376   6.026  17.817  0.00  0.00    +0.000 OA
ENDBRANCH   2   9
BRANCH   7  10
ATOM     10  C   UNL     1      52.918   3.717  17.988  0.00  0.00    +0.000 C 
BRANCH  10  11
ATOM     11  N   UNL     1      53.260   3.118  19.286  0.00  0.00    +0.000 NA
ATOM     12  C   UNL     1      53.177   4.015  20.450  0.00  0.00    +0.000 C 
ATOM     13  C   UNL     1      54.360   4.982  20.643  0.00  0.00    +0.000 C 
ATOM     14  O   UNL     1      55.623   4.309  20.609  0.00  0.00    +0.000 OA
ATOM     15  C   UNL     1      55.775   3.493  19.445  0.00  0.00    +0.000 C 
ATOM     16  C   UNL     1      54.607   2.509  19.258  0.00  0.00    +0.000 C 
ENDBRANCH  10  11
ENDBRANCH   7  10
ENDBRANCH   1   4
BRANCH   1  17
ATOM     17  N   UNL     1      46.751   4.372  15.792  0.00  0.00    +0.000 N 
ATOM     18  C   UNL     1      46.776   4.104  14.451  0.00  0.00    +0.000 C 
ATOM     19  O   UNL     1      47.184   3.028  14.017  0.00  0.00    +0.000 OA
ATOM     20  H   UNL     1      46.505   5.300  16.127  0.00  0.00    +0.000 HD
BRANCH  18  21
ATOM     21  C   UNL     1      46.238   5.129  13.545  0.00  0.00    +0.000 A 
ATOM     22  C   UNL     1      47.003   6.258  13.285  0.00  0.00    +0.000 A 
ATOM     23  S   UNL     1      46.259   7.372  12.236  0.00  0.00    +0.000 S 
ATOM     24  C   UNL     1      44.874   6.393  12.097  0.00  0.00    +0.000 A 
ATOM     25  N   UNL     1      43.816   6.795  11.343  0.00  0.00    +0.000 NA
ATOM     26  C   UNL     1      42.814   5.982  11.356  0.00  0.00    +0.000 A 
ATOM     27  N   UNL     1      42.781   4.792  12.039  0.00  0.00    +0.000 N 
ATOM     28  C   UNL     1      43.862   4.312  12.750  0.00  0.00    +0.000 A 
ATOM     29  O   UNL     1      43.844   3.188  13.244  0.00  0.00    +0.000 OA
ATOM     30  C   UNL     1      44.989   5.216  12.821  0.00  0.00    +0.000 A 
ATOM     31  H   UNL     1      41.976   4.188  11.976  0.00  0.00    +0.000 HD
ENDBRANCH  18  21
ENDBRANCH   1  17
TORSDOF 6
ENDMDL
MODEL 3
REMARK VINA RESULT:    -6.447      3.068      9.261
REMARK INTER + INTRA:         -10.002
REMARK INTER:                  -9.189
REMARK INTRA:                  -0.813
REMARK UNBOUND:                -1.293
REMARK  Name = 
REMARK  7 active torsions:
REMARK  status: ('A' for Active; 'I' for Inactive)
REMARK    1  A    between atoms: C_1  and  O_2
REMARK    2  A    between atoms: O_2  and  C_3
REMARK    3  A    between atoms: C_5  and  C_6
REMARK    4  A    between atoms: C_6  and  N_7
REMARK    5  A    between atoms: C_8  and  C_10
REMARK    6  A    between atoms: C_22  and  C_23
REMARK    7  A    between atoms: C_23  and  N_24
REMARK                            x       y       z     vdW  Elec       q    Type
REMARK                         _______ _______ _______ _____ _____    ______ ____
ROOT
ATOM      1  C   UNL     1      47.275   3.500  16.662  0.00  0.00    +0.000 C 
ENDROOT
BRANCH   1   4
ATOM      2  C   UNL     1      50.966   3.207  17.736  0.00  0.00    +0.000 A 
ATOM      3  C   UNL     1      49.673   2.849  17.310  0.00  0.00    +0.000 A 
ATOM      4  C   UNL     1      48.681   3.838  17.090  0.00  0.00    +0.000 A 
ATOM      5  C   UNL     1      49.023   5.188  17.280  0.00  0.00    +0.000 A 
ATOM      6  C   UNL     1      50.303   5.548  17.670  0.00  0.00    +0.000 A 
ATOM      7  C   UNL     1      51.289   4.574  17.903  0.00  0.00    +0.000 A 
BRANCH   2   9
ATOM      8  C   UNL     1      52.201   1.119  17.392  0.00  0.00    +0.000 C 
ATOM      9  O   UNL     1      51.984   2.354  18.051  0.00  0.00    +0.000 OA
ENDBRANCH   2   9
BRANCH   7  10
ATOM     10  C   UNL     1      52.696   5.036  18.262  0.00  0.00    +0.000 C 
BRANCH  10  11
ATOM     11  N   UNL     1      53.656   5.084  17.150  0.00  0.00    +0.000 NA
ATOM     12  C   UNL     1      55.078   5.048  17.527  0.00  0.00    +0.000 C 
ATOM     13  C   UNL     1      55.676   6.374  18.033  0.00  0.00    +0.000 C 
ATOM     14  O   UNL     1      55.414   7.464  17.142  0.00  0.00    +0.000 OA
ATOM     15  C   UNL     1      54.025   7.583  16.821  0.00  0.00    +0.000 C 
ATOM     16  C   UNL     1      53.427   6.266  16.294  0.00  0.00    +0.000 C 
ENDBRANCH  10  11
ENDBRANCH   7  10
ENDBRANCH   1   4
BRANCH   1  17
ATOM     17  N   UNL     1      46.752   4.456  15.712  0.00  0.00    +0.000 N 
ATOM     18  C   UNL     1      46.818   4.237  14.363  0.00  0.00    +0.000 C 
ATOM     19  O   UNL     1      47.329   3.219  13.900  0.00  0.00    +0.000 OA
ATOM     20  H   UNL     1      46.417   5.346  16.073  0.00  0.00    +0.000 HD
BRANCH  18  21
ATOM     21  C   UNL     1      46.198   5.238  13.482  0.00  0.00    +0.000 A 
ATOM     22  C   UNL     1      46.899   6.403  13.199  0.00  0.00    +0.000 A 
ATOM     23  S   UNL     1      46.064   7.484  12.184  0.00  0.00    +0.000 S 
ATOM     24  C   UNL     1      44.722   6.441  12.094  0.00  0.00    +0.000 A 
ATOM     25  N   UNL     1      43.618   6.795  11.382  0.00  0.00    +0.000 NA
ATOM     26  C   UNL     1      42.656   5.936  11.431  0.00  0.00    +0.000 A 
ATOM     27  N   UNL     1      42.706   4.744  12.109  0.00  0.00    +0.000 N 
ATOM     28  C   UNL     1      43.834   4.313  12.776  0.00  0.00    +0.000 A 
ATOM     29  O   UNL     1      43.888   3.188  13.265  0.00  0.00    +0.000 OA
ATOM     30  C   UNL     1      44.920   5.269  12.808  0.00  0.00    +0.000 A 
ATOM     31  H   UNL     1      41.928   4.103  12.074  0.00  0.00    +0.000 HD
ENDBRANCH  18  21
ENDBRANCH   1  17
TORSDOF 6
ENDMDL
MODEL 4
REMARK VINA RESULT:    -6.257      3.151      8.715
REMARK INTER + INTRA:          -9.745
REMARK INTER:                  -8.912
REMARK INTRA:                  -0.834
REMARK UNBOUND:                -1.293
REMARK  Name = 
REMARK  7 active torsions:
REMARK  status: ('A' for Active; 'I' for Inactive)
REMARK    1  A    between atoms: C_1  and  O_2
REMARK    2  A    between atoms: O_2  and  C_3
REMARK    3  A    between atoms: C_5  and  C_6
REMARK    4  A    between atoms: C_6  and  N_7
REMARK    5  A    between atoms: C_8  and  C_10
REMARK    6  A    between atoms: C_22  and  C_23
REMARK    7  A    between atoms: C_23  and  N_24
REMARK                            x       y       z     vdW  Elec       q    Type
REMARK                         _______ _______ _______ _____ _____    ______ ____
ROOT
ATOM      1  C   UNL     1      49.019   7.824  15.546  0.00  0.00    +0.000 C 
ENDROOT
BRANCH   1   4
ATOM      2  C   UNL     1      49.505   4.473  17.389  0.00  0.00    +0.000 A 
ATOM      3  C   UNL     1      48.882   5.550  16.731  0.00  0.00    +0.000 A 
ATOM      4  C   UNL     1      49.646   6.636  16.231  0.00  0.00    +0.000 A 
ATOM      5  C   UNL     1      51.042   6.602  16.382  0.00  0.00    +0.000 A 
ATOM      6  C   UNL     1      51.664   5.529  17.002  0.00  0.00    +0.000 A 
ATOM      7  C   UNL     1      50.914   4.456  17.512  0.00  0.00    +0.000 A 
BRANCH   2   9
ATOM      8  C   UNL     1      47.681   2.841  17.489  0.00  0.00    +0.000 C 
ATOM      9  O   UNL     1      48.884   3.409  17.976  0.00  0.00    +0.000 OA
ENDBRANCH   2   9
BRANCH   7  10
ATOM     10  C   UNL     1      51.659   3.274  18.120  0.00  0.00    +0.000 C 
BRANCH  10  11
ATOM     11  N   UNL     1      53.105   3.227  17.858  0.00  0.00    +0.000 NA
ATOM     12  C   UNL     1      53.646   1.913  17.476  0.00  0.00    +0.000 C 
ATOM     13  C   UNL     1      53.875   0.916  18.627  0.00  0.00    +0.000 C 
ATOM     14  O   UNL     1      54.635   1.487  19.698  0.00  0.00    +0.000 OA
ATOM     15  C   UNL     1      54.087   2.727  20.155  0.00  0.00    +0.000 C 
ATOM     16  C   UNL     1      53.876   3.735  19.011  0.00  0.00    +0.000 C 
ENDBRANCH  10  11
ENDBRANCH   7  10
ENDBRANCH   1   4
BRANCH   1  17
ATOM     17  N   UNL     1      47.866   7.452  14.758  0.00  0.00    +0.000 N 
ATOM     18  C   UNL     1      47.996   6.816  13.553  0.00  0.00    +0.000 C 
ATOM     19  O   UNL     1      49.099   6.538  13.087  0.00  0.00    +0.000 OA
ATOM     20  H   UNL     1      46.953   7.762  15.081  0.00  0.00    +0.000 HD
BRANCH  18  21
ATOM     21  C   UNL     1      46.762   6.420  12.859  0.00  0.00    +0.000 A 
ATOM     22  C   UNL     1      46.017   7.397  12.211  0.00  0.00    +0.000 A 
ATOM     23  S   UNL     1      44.606   6.810  11.464  0.00  0.00    +0.000 S 
ATOM     24  C   UNL     1      44.927   5.223  11.991  0.00  0.00    +0.000 A 
ATOM     25  N   UNL     1      44.064   4.212  11.703  0.00  0.00    +0.000 NA
ATOM     26  C   UNL     1      44.402   3.068  12.197  0.00  0.00    +0.000 A 
ATOM     27  N   UNL     1      45.536   2.839  12.935  0.00  0.00    +0.000 N 
ATOM     28  C   UNL     1      46.474   3.820  13.181  0.00  0.00    +0.000 A 
ATOM     29  O   UNL     1      47.537   3.554  13.736  0.00  0.00    +0.000 OA
ATOM     30  C   UNL     1      46.112   5.138  12.705  0.00  0.00    +0.000 A 
ATOM     31  H   UNL     1      45.756   1.911  13.261  0.00  0.00    +0.000 HD
ENDBRANCH  18  21
ENDBRANCH   1  17
TORSDOF 6
ENDMDL
MODEL 5
REMARK VINA RESULT:    -6.204      4.500      9.040
REMARK INTER + INTRA:          -9.674
REMARK INTER:                  -8.454
REMARK INTRA:                  -1.219
REMARK UNBOUND:                -1.293
REMARK  Name = 
REMARK  7 active torsions:
REMARK  status: ('A' for Active; 'I' for Inactive)
REMARK    1  A    between atoms: C_1  and  O_2
REMARK    2  A    between atoms: O_2  and  C_3
REMARK    3  A    between atoms: C_5  and  C_6
REMARK    4  A    between atoms: C_6  and  N_7
REMARK    5  A    between atoms: C_8  and  C_10
REMARK    6  A    between atoms: C_22  and  C_23
REMARK    7  A    between atoms: C_23  and  N_24
REMARK                            x       y       z     vdW  Elec       q    Type
REMARK                         _______ _______ _______ _____ _____    ______ ____
ROOT
ATOM      1  C   UNL     1      47.471   7.668  12.129  0.00  0.00    +0.000 C 
ENDROOT
BRANCH   1   4
ATOM      2  C   UNL     1      48.891   6.623  15.557  0.00  0.00    +0.000 A 
ATOM      3  C   UNL     1      48.442   6.546  14.225  0.00  0.00    +0.000 A 
ATOM      4  C   UNL     1      47.989   7.706  13.544  0.00  0.00    +0.000 A 
ATOM      5  C   UNL     1      48.023   8.939  14.218  0.00  0.00    +0.000 A 
ATOM      6  C   UNL     1      48.494   9.024  15.519  0.00  0.00    +0.000 A 
ATOM      7  C   UNL     1      48.933   7.879  16.205  0.00  0.00    +0.000 A 
BRANCH   2   9
ATOM      8  C   UNL     1      48.426   4.510  16.709  0.00  0.00    +0.000 C 
ATOM      9  O   UNL     1      49.283   5.579  16.345  0.00  0.00    +0.000 OA
ENDBRANCH   2   9
BRANCH   7  10
ATOM     10  C   UNL     1      49.503   8.048  17.608  0.00  0.00    +0.000 C 
BRANCH  10  11
ATOM     11  N   UNL     1      48.560   8.529  18.628  0.00  0.00    +0.000 NA
ATOM     12  C   UNL     1      49.155   8.951  19.906  0.00  0.00    +0.000 C 
ATOM     13  C   UNL     1      49.545   7.818  20.875  0.00  0.00    +0.000 C 
ATOM     14  O   UNL     1      48.471   6.896  21.094  0.00  0.00    +0.000 OA
ATOM     15  C   UNL     1      47.924   6.398  19.870  0.00  0.00    +0.000 C 
ATOM     16  C   UNL     1      47.512   7.525  18.906  0.00  0.00    +0.000 C 
ENDBRANCH  10  11
ENDBRANCH   7  10
ENDBRANCH   1   4
BRANCH   1  17
ATOM     17  N   UNL     1      46.798   6.424  11.830  0.00  0.00    +0.000 N 
ATOM     18  C   UNL     1      45.437   6.304  11.923  0.00  0.00    +0.000 C 
ATOM     19  O   UNL     1      44.730   7.248  12.268  0.00  0.00    +0.000 OA
ATOM     20  H   UNL     1      47.375   5.608  11.639  0.00  0.00    +0.000 HD
BRANCH  18  21
ATOM     21  C   UNL     1      44.843   5.017  11.534  0.00  0.00    +0.000 A 
ATOM     22  C   UNL     1      44.053   4.341  12.454  0.00  0.00    +0.000 A 
ATOM     23  S   UNL     1      43.440   2.859  11.886  0.00  0.00    +0.000 S 
ATOM     24  C   UNL     1      44.221   3.055  10.386  0.00  0.00    +0.000 A 
ATOM     25  N   UNL     1      44.123   2.097   9.425  0.00  0.00    +0.000 NA
ATOM     26  C   UNL     1      44.796   2.349   8.353  0.00  0.00    +0.000 A 
ATOM     27  N   UNL     1      45.541   3.482   8.145  0.00  0.00    +0.000 N 
ATOM     28  C   UNL     1      45.602   4.511   9.062  0.00  0.00    +0.000 A 
ATOM     29  O   UNL     1      46.175   5.563   8.793  0.00  0.00    +0.000 OA
ATOM     30  C   UNL     1      44.918   4.251  10.310  0.00  0.00    +0.000 A 
ATOM     31  H   UNL     1      46.015   3.629   7.267  0.00  0.00    +0.000 HD
ENDBRANCH  18  21
ENDBRANCH   1  17
TORSDOF 6
ENDMDL
MODEL 6
REMARK VINA RESULT:    -5.977      3.475      9.027
REMARK INTER + INTRA:          -9.366
REMARK INTER:                  -8.332
REMARK INTRA:                  -1.035
REMARK UNBOUND:                -1.293
REMARK  Name = 
REMARK  7 active torsions:
REMARK  status: ('A' for Active; 'I' for Inactive)
REMARK    1  A    between atoms: C_1  and  O_2
REMARK    2  A    between atoms: O_2  and  C_3
REMARK    3  A    between atoms: C_5  and  C_6
REMARK    4  A    between atoms: C_6  and  N_7
REMARK    5  A    between atoms: C_8  and  C_10
REMARK    6  A    between atoms: C_22  and  C_23
REMARK    7  A    between atoms: C_23  and  N_24
REMARK                            x       y       z     vdW  Elec       q    Type
REMARK                         _______ _______ _______ _____ _____    ______ ____
ROOT
ATOM      1  C   UNL     1      48.256   7.833  12.462  0.00  0.00    +0.000 C 
ENDROOT
BRANCH   1   4
ATOM      2  C   UNL     1      48.942   6.277  15.922  0.00  0.00    +0.000 A 
ATOM      3  C   UNL     1      48.294   6.601  14.716  0.00  0.00    +0.000 A 
ATOM      4  C   UNL     1      48.922   7.435  13.754  0.00  0.00    +0.000 A 
ATOM      5  C   UNL     1      50.219   7.908  14.020  0.00  0.00    +0.000 A 
ATOM      6  C   UNL     1      50.874   7.566  15.192  0.00  0.00    +0.000 A 
ATOM      7  C   UNL     1      50.253   6.752  16.156  0.00  0.00    +0.000 A 
BRANCH   2   9
ATOM      8  C   UNL     1      47.956   4.219  16.815  0.00  0.00    +0.000 C 
ATOM      9  O   UNL     1      48.424   5.549  16.954  0.00  0.00    +0.000 OA
ENDBRANCH   2   9
BRANCH   7  10
ATOM     10  C   UNL     1      51.051   6.354  17.392  0.00  0.00    +0.000 C 
BRANCH  10  11
ATOM     11  N   UNL     1      51.809   5.099  17.287  0.00  0.00    +0.000 NA
ATOM     12  C   UNL     1      51.537   4.096  18.330  0.00  0.00    +0.000 C 
ATOM     13  C   UNL     1      52.219   4.334  19.690  0.00  0.00    +0.000 C 
ATOM     14  O   UNL     1      53.627   4.564  19.559  0.00  0.00    +0.000 OA
ATOM     15  C   UNL     1      53.925   5.596  18.615  0.00  0.00    +0.000 C 
ATOM     16  C   UNL     1      53.264   5.352  17.247  0.00  0.00    +0.000 C 
ENDBRANCH  10  11
ENDBRANCH   7  10
ENDBRANCH   1   4
BRANCH   1  17
ATOM     17  N   UNL     1      47.565   6.724  11.843  0.00  0.00    +0.000 N 
ATOM     18  C   UNL     1      46.218   6.764  11.600  0.00  0.00    +0.000 C 
ATOM     19  O   UNL     1      45.538   7.742  11.901  0.00  0.00    +0.000 OA
ATOM     20  H   UNL     1      48.093   5.871  11.679  0.00  0.00    +0.000 HD
BRANCH  18  21
ATOM     21  C   UNL     1      45.621   5.613  10.907  0.00  0.00    +0.000 A 
ATOM     22  C   UNL     1      45.729   5.537   9.525  0.00  0.00    +0.000 A 
ATOM     23  S   UNL     1      44.983   4.166   8.846  0.00  0.00    +0.000 S 
ATOM     24  C   UNL     1      44.471   3.626  10.377  0.00  0.00    +0.000 A 
ATOM     25  N   UNL     1      43.736   2.487  10.498  0.00  0.00    +0.000 NA
ATOM     26  C   UNL     1      43.377   2.212  11.707  0.00  0.00    +0.000 A 
ATOM     27  N   UNL     1      43.703   2.961  12.809  0.00  0.00    +0.000 N 
ATOM     28  C   UNL     1      44.512   4.076  12.738  0.00  0.00    +0.000 A 
ATOM     29  O   UNL     1      44.888   4.650  13.757  0.00  0.00    +0.000 OA
ATOM     30  C   UNL     1      44.889   4.467  11.397  0.00  0.00    +0.000 A 
ATOM     31  H   UNL     1      43.417   2.667  13.730  0.00  0.00    +0.000 HD
ENDBRANCH  18  21
ENDBRANCH   1  17
TORSDOF 6
ENDMDL
MODEL 7
REMARK VINA RESULT:    -5.761      3.439      9.335
REMARK INTER + INTRA:          -9.075
REMARK INTER:                  -8.199
REMARK INTRA:                  -0.875
REMARK UNBOUND:                -1.293
REMARK  Name = 
REMARK  7 active torsions:
REMARK  status: ('A' for Active; 'I' for Inactive)
REMARK    1  A    between atoms: C_1  and  O_2
REMARK    2  A    between atoms: O_2  and  C_3
REMARK    3  A    between atoms: C_5  and  C_6
REMARK    4  A    between atoms: C_6  and  N_7
REMARK    5  A    between atoms: C_8  and  C_10
REMARK    6  A    between atoms: C_22  and  C_23
REMARK    7  A    between atoms: C_23  and  N_24
REMARK                            x       y       z     vdW  Elec       q    Type
REMARK                         _______ _______ _______ _____ _____    ______ ____
ROOT
ATOM      1  C   UNL     1      47.750   7.276  12.516  0.00  0.00    +0.000 C 
ENDROOT
BRANCH   1   4
ATOM      2  C   UNL     1      48.845   6.111  16.024  0.00  0.00    +0.000 A 
ATOM      3  C   UNL     1      48.081   6.261  14.852  0.00  0.00    +0.000 A 
ATOM      4  C   UNL     1      48.547   7.063  13.778  0.00  0.00    +0.000 A 
ATOM      5  C   UNL     1      49.801   7.685  13.899  0.00  0.00    +0.000 A 
ATOM      6  C   UNL     1      50.572   7.516  15.039  0.00  0.00    +0.000 A 
ATOM      7  C   UNL     1      50.112   6.733  16.112  0.00  0.00    +0.000 A 
BRANCH   2   9
ATOM      8  C   UNL     1      47.416   4.498  17.191  0.00  0.00    +0.000 C 
ATOM      9  O   UNL     1      48.482   5.431  17.151  0.00  0.00    +0.000 OA
ENDBRANCH   2   9
BRANCH   7  10
ATOM     10  C   UNL     1      51.034   6.530  17.308  0.00  0.00    +0.000 C 
BRANCH  10  11
ATOM     11  N   UNL     1      51.856   5.311  17.280  0.00  0.00    +0.000 NA
ATOM     12  C   UNL     1      51.608   4.344  18.362  0.00  0.00    +0.000 C 
ATOM     13  C   UNL     1      52.242   4.679  19.726  0.00  0.00    +0.000 C 
ATOM     14  O   UNL     1      53.639   4.976  19.618  0.00  0.00    +0.000 OA
ATOM     15  C   UNL     1      53.910   5.977  18.633  0.00  0.00    +0.000 C 
ATOM     16  C   UNL     1      53.297   5.637  17.263  0.00  0.00    +0.000 C 
ENDBRANCH  10  11
ENDBRANCH   7  10
ENDBRANCH   1   4
BRANCH   1  17
ATOM     17  N   UNL     1      46.988   6.104  12.150  0.00  0.00    +0.000 N 
ATOM     18  C   UNL     1      45.639   6.166  11.926  0.00  0.00    +0.000 C 
ATOM     19  O   UNL     1      45.017   7.221  12.031  0.00  0.00    +0.000 OA
ATOM     20  H   UNL     1      47.468   5.207  12.157  0.00  0.00    +0.000 HD
BRANCH  18  21
ATOM     21  C   UNL     1      44.967   4.932  11.495  0.00  0.00    +0.000 A 
ATOM     22  C   UNL     1      44.165   4.255  12.404  0.00  0.00    +0.000 A 
ATOM     23  S   UNL     1      43.460   2.836  11.785  0.00  0.00    +0.000 S 
ATOM     24  C   UNL     1      44.213   3.062  10.275  0.00  0.00    +0.000 A 
ATOM     25  N   UNL     1      44.039   2.157   9.274  0.00  0.00    +0.000 NA
ATOM     26  C   UNL     1      44.698   2.424   8.196  0.00  0.00    +0.000 A 
ATOM     27  N   UNL     1      45.498   3.525   8.021  0.00  0.00    +0.000 N 
ATOM     28  C   UNL     1      45.637   4.504   8.982  0.00  0.00    +0.000 A 
ATOM     29  O   UNL     1      46.258   5.537   8.747  0.00  0.00    +0.000 OA
ATOM     30  C   UNL     1      44.971   4.222  10.235  0.00  0.00    +0.000 A 
ATOM     31  H   UNL     1      45.957   3.689   7.138  0.00  0.00    +0.000 HD
ENDBRANCH  18  21
ENDBRANCH   1  17
TORSDOF 6
ENDMDL
MODEL 8
REMARK VINA RESULT:    -5.742      6.397      9.401
REMARK INTER + INTRA:          -9.049
REMARK INTER:                  -8.064
REMARK INTRA:                  -0.985
REMARK UNBOUND:                -1.293
REMARK  Name = 
REMARK  7 active torsions:
REMARK  status: ('A' for Active; 'I' for Inactive)
REMARK    1  A    between atoms: C_1  and  O_2
REMARK    2  A    between atoms: O_2  and  C_3
REMARK    3  A    between atoms: C_5  and  C_6
REMARK    4  A    between atoms: C_6  and  N_7
REMARK    5  A    between atoms: C_8  and  C_10
REMARK    6  A    between atoms: C_22  and  C_23
REMARK    7  A    between atoms: C_23  and  N_24
REMARK                            x       y       z     vdW  Elec       q    Type
REMARK                         _______ _______ _______ _____ _____    ______ ____
ROOT
ATOM      1  C   UNL     1      46.450   8.229  12.943  0.00  0.00    +0.000 C 
ENDROOT
BRANCH   1   4
ATOM      2  C   UNL     1      49.802   9.743  11.787  0.00  0.00    +0.000 A 
ATOM      3  C   UNL     1      48.469   9.647  12.228  0.00  0.00    +0.000 A 
ATOM      4  C   UNL     1      47.882   8.383  12.497  0.00  0.00    +0.000 A 
ATOM      5  C   UNL     1      48.669   7.229  12.341  0.00  0.00    +0.000 A 
ATOM      6  C   UNL     1      49.992   7.321  11.937  0.00  0.00    +0.000 A 
ATOM      7  C   UNL     1      50.577   8.567  11.656  0.00  0.00    +0.000 A 
BRANCH   2   9
ATOM      8  C   UNL     1      50.295  11.516  10.169  0.00  0.00    +0.000 C 
ATOM      9  O   UNL     1      50.460  10.883  11.427  0.00  0.00    +0.000 OA
ENDBRANCH   2   9
BRANCH   7  10
ATOM     10  C   UNL     1      52.054   8.608  11.283  0.00  0.00    +0.000 C 
BRANCH  10  11
ATOM     11  N   UNL     1      52.355   8.473   9.850  0.00  0.00    +0.000 NA
ATOM     12  C   UNL     1      52.768   7.132   9.404  0.00  0.00    +0.000 C 
ATOM     13  C   UNL     1      54.230   6.745   9.695  0.00  0.00    +0.000 C 
ATOM     14  O   UNL     1      55.157   7.739   9.244  0.00  0.00    +0.000 OA
ATOM     15  C   UNL     1      54.835   9.045   9.731  0.00  0.00    +0.000 C 
ATOM     16  C   UNL     1      53.382   9.447   9.423  0.00  0.00    +0.000 C 
ENDBRANCH  10  11
ENDBRANCH   7  10
ENDBRANCH   1   4
BRANCH   1  17
ATOM     17  N   UNL     1      45.937   6.905  12.674  0.00  0.00    +0.000 N 
ATOM     18  C   UNL     1      44.951   6.691  11.749  0.00  0.00    +0.000 C 
ATOM     19  O   UNL     1      44.456   7.617  11.110  0.00  0.00    +0.000 OA
ATOM     20  H   UNL     1      46.264   6.143  13.263  0.00  0.00    +0.000 HD
BRANCH  18  21
ATOM     21  C   UNL     1      44.544   5.300  11.501  0.00  0.00    +0.000 A 
ATOM     22  C   UNL     1      43.767   4.652  12.452  0.00  0.00    +0.000 A 
ATOM     23  S   UNL     1      43.380   3.044  12.052  0.00  0.00    +0.000 S 
ATOM     24  C   UNL     1      44.252   3.146  10.593  0.00  0.00    +0.000 A 
ATOM     25  N   UNL     1      44.344   2.068   9.767  0.00  0.00    +0.000 NA
ATOM     26  C   UNL     1      45.067   2.265   8.716  0.00  0.00    +0.000 A 
ATOM     27  N   UNL     1      45.690   3.447   8.405  0.00  0.00    +0.000 N 
ATOM     28  C   UNL     1      45.556   4.584   9.175  0.00  0.00    +0.000 A 
ATOM     29  O   UNL     1      46.021   5.658   8.804  0.00  0.00    +0.000 OA
ATOM     30  C   UNL     1      44.808   4.401  10.400  0.00  0.00    +0.000 A 
ATOM     31  H   UNL     1      46.212   3.541   7.548  0.00  0.00    +0.000 HD
ENDBRANCH  18  21
ENDBRANCH   1  17
TORSDOF 6
ENDMDL
MODEL 9
REMARK VINA RESULT:    -5.620      3.439      4.333
REMARK INTER + INTRA:          -8.884
REMARK INTER:                  -8.190
REMARK INTRA:                  -0.694
REMARK UNBOUND:                -1.293
REMARK  Name = 
REMARK  7 active torsions:
REMARK  status: ('A' for Active; 'I' for Inactive)
REMARK    1  A    between atoms: C_1  and  O_2
REMARK    2  A    between atoms: O_2  and  C_3
REMARK    3  A    between atoms: C_5  and  C_6
REMARK    4  A    between atoms: C_6  and  N_7
REMARK    5  A    between atoms: C_8  and  C_10
REMARK    6  A    between atoms: C_22  and  C_23
REMARK    7  A    between atoms: C_23  and  N_24
REMARK                            x       y       z     vdW  Elec       q    Type
REMARK                         _______ _______ _______ _____ _____    ______ ____
ROOT
ATOM      1  C   UNL     1      48.214   9.111  14.846  0.00  0.00    +0.000 C 
ENDROOT
BRANCH   1   4
ATOM      2  C   UNL     1      45.787   8.097  12.028  0.00  0.00    +0.000 A 
ATOM      3  C   UNL     1      46.460   8.879  12.985  0.00  0.00    +0.000 A 
ATOM      4  C   UNL     1      47.486   8.320  13.789  0.00  0.00    +0.000 A 
ATOM      5  C   UNL     1      47.836   6.973  13.593  0.00  0.00    +0.000 A 
ATOM      6  C   UNL     1      47.198   6.206  12.630  0.00  0.00    +0.000 A 
ATOM      7  C   UNL     1      46.171   6.749  11.838  0.00  0.00    +0.000 A 
BRANCH   2   9
ATOM      8  C   UNL     1      44.167   9.785  11.300  0.00  0.00    +0.000 C 
ATOM      9  O   UNL     1      44.740   8.490  11.246  0.00  0.00    +0.000 OA
ENDBRANCH   2   9
BRANCH   7  10
ATOM     10  C   UNL     1      45.556   5.876  10.751  0.00  0.00    +0.000 C 
BRANCH  10  11
ATOM     11  N   UNL     1      44.139   5.531  10.935  0.00  0.00    +0.000 NA
ATOM     12  C   UNL     1      43.715   5.274  12.322  0.00  0.00    +0.000 C 
ATOM     13  C   UNL     1      44.074   3.889  12.892  0.00  0.00    +0.000 C 
ATOM     14  O   UNL     1      43.663   2.823  12.029  0.00  0.00    +0.000 OA
ATOM     15  C   UNL     1      44.131   2.995  10.689  0.00  0.00    +0.000 C 
ATOM     16  C   UNL     1      43.757   4.369  10.106  0.00  0.00    +0.000 C 
ENDBRANCH  10  11
ENDBRANCH   7  10
ENDBRANCH   1   4
BRANCH   1  17
ATOM     17  N   UNL     1      47.974   8.593  16.174  0.00  0.00    +0.000 N 
ATOM     18  C   UNL     1      48.986   8.075  16.936  0.00  0.00    +0.000 C 
ATOM     19  O   UNL     1      50.142   8.025  16.523  0.00  0.00    +0.000 OA
ATOM     20  H   UNL     1      47.009   8.537  16.491  0.00  0.00    +0.000 HD
BRANCH  18  21
ATOM     21  C   UNL     1      48.651   7.635  18.299  0.00  0.00    +0.000 A 
ATOM     22  C   UNL     1      48.214   8.580  19.217  0.00  0.00    +0.000 A 
ATOM     23  S   UNL     1      47.876   7.943  20.759  0.00  0.00    +0.000 S 
ATOM     24  C   UNL     1      48.315   6.375  20.261  0.00  0.00    +0.000 A 
ATOM     25  N   UNL     1      48.278   5.336  21.139  0.00  0.00    +0.000 NA
ATOM     26  C   UNL     1      48.677   4.211  20.647  0.00  0.00    +0.000 A 
ATOM     27  N   UNL     1      49.089   4.025  19.352  0.00  0.00    +0.000 N 
ATOM     28  C   UNL     1      49.066   5.035  18.412  0.00  0.00    +0.000 A 
ATOM     29  O   UNL     1      49.320   4.806  17.233  0.00  0.00    +0.000 OA
ATOM     30  C   UNL     1      48.689   6.333  18.927  0.00  0.00    +0.000 A 
ATOM     31  H   UNL     1      49.354   3.109  19.026  0.00  0.00    +0.000 HD
ENDBRANCH  18  21
ENDBRANCH   1  17
TORSDOF 6
ENDMDL
