MODEL 1
REMARK VINA RESULT:    -7.520      0.000      0.000
REMARK INTER + INTRA:         -11.775
REMARK INTER:                 -10.597
REMARK INTRA:                  -1.178
REMARK UNBOUND:                -1.178
REMARK  Name = 
REMARK  7 active torsions:
REMARK  status: ('A' for Active; 'I' for Inactive)
REMARK    1  A    between atoms: C_2  and  C_20
REMARK    2  A    between atoms: N_3  and  C_4
REMARK    3  A    between atoms: C_4  and  C_5
REMARK    4  A    between atoms: C_8  and  O_9
REMARK    5  A    between atoms: O_9  and  C_10
REMARK    6  A    between atoms: C_10  and  C_11
REMARK    7  A    between atoms: C_11  and  N_12
REMARK                            x       y       z     vdW  Elec       q    Type
REMARK                         _______ _______ _______ _____ _____    ______ ____
ROOT
ATOM      1  C   UNL     1      46.475   7.782  12.879  0.00  0.00    +0.000 C 
ENDROOT
BRANCH   1   2
ATOM      2  C   UNL     1      45.756   6.733  12.077  0.00  0.00    +0.000 A 
ATOM      3  C   UNL     1      46.150   6.425  10.766  0.00  0.00    +0.000 A 
ATOM      4  C   UNL     1      45.509   5.407  10.047  0.00  0.00    +0.000 A 
ATOM      5  C   UNL     1      44.454   4.687  10.617  0.00  0.00    +0.000 A 
ATOM      6  C   UNL     1      44.044   5.031  11.911  0.00  0.00    +0.000 A 
ATOM      7  F   UNL     1      43.032   4.401  12.526  0.00  0.00    +0.000 F 
ATOM      8  C   UNL     1      44.676   6.041  12.630  0.00  0.00    +0.000 A 
BRANCH   5   9
ATOM      9  O   UNL     1      43.929   3.693   9.826  0.00  0.00    +0.000 OA
BRANCH   9  10
ATOM     10  C   UNL     1      44.706   2.489   9.771  0.00  0.00    +0.000 C 
BRANCH  10  11
ATOM     11  C   UNL     1      45.178   2.211   8.337  0.00  0.00    +0.000 C 
BRANCH  11  12
ATOM     12  N   UNL     1      46.609   2.506   8.107  0.00  0.00    +0.000 NA
ATOM     13  C   UNL     1      47.307   1.527   7.264  0.00  0.00    +0.000 C 
ATOM     14  C   UNL     1      47.001   1.945   5.837  0.00  0.00    +0.000 C 
ATOM     15  O   UNL     1      46.640   3.330   5.899  0.00  0.00    +0.000 OA
ATOM     16  C   UNL     1      46.730   3.705   7.276  0.00  0.00    +0.000 C 
ENDBRANCH  11  12
ENDBRANCH  10  11
ENDBRANCH   9  10
ENDBRANCH   5   9
ENDBRANCH   1   2
BRANCH   1  19
ATOM     17  O   UNL     1      48.984   6.566  13.127  0.00  0.00    +0.000 OA
ATOM     18  C   UNL     1      48.287   6.702  14.131  0.00  0.00    +0.000 C 
ATOM     19  N   UNL     1      47.032   7.248  14.091  0.00  0.00    +0.000 N 
ATOM     20  H   UNL     1      46.574   7.510  14.958  0.00  0.00    +0.000 HD
BRANCH  18  21
ATOM     21  C   UNL     1      48.745   6.235  15.441  0.00  0.00    +0.000 A 
ATOM     22  C   UNL     1      49.756   6.908  16.112  0.00  0.00    +0.000 A 
ATOM     23  S   UNL     1      50.124   6.227  17.633  0.00  0.00    +0.000 S 
ATOM     24  C   UNL     1      48.925   5.030  17.452  0.00  0.00    +0.000 A 
ATOM     25  N   UNL     1      48.683   4.118  18.430  0.00  0.00    +0.000 NA
ATOM     26  C   UNL     1      47.721   3.297  18.164  0.00  0.00    +0.000 A 
ATOM     27  N   UNL     1      46.987   3.295  17.011  0.00  0.00    +0.000 N 
ATOM     28  C   UNL     1      47.245   4.146  15.962  0.00  0.00    +0.000 A 
ATOM     29  O   UNL     1      46.671   4.021  14.889  0.00  0.00    +0.000 OA
ATOM     30  C   UNL     1      48.280   5.128  16.233  0.00  0.00    +0.000 A 
ATOM     31  H   UNL     1      46.273   2.601  16.843  0.00  0.00    +0.000 HD
ENDBRANCH  18  21
ENDBRANCH   1  19
TORSDOF 7
ENDMDL
MODEL 2
REMARK VINA RESULT:    -6.863      2.992      3.630
REMARK INTER + INTRA:         -10.850
REMARK INTER:                  -9.281
REMARK INTRA:                  -1.570
REMARK UNBOUND:                -1.178
REMARK  Name = 
REMARK  7 active torsions:
REMARK  status: ('A' for Active; 'I' for Inactive)
REMARK    1  A    between atoms: C_2  and  C_20
REMARK    2  A    between atoms: N_3  and  C_4
REMARK    3  A    between atoms: C_4  and  C_5
REMARK    4  A    between atoms: C_8  and  O_9
REMARK    5  A    between atoms: O_9  and  C_10
REMARK    6  A    between atoms: C_10  and  C_11
REMARK    7  A    between atoms: C_11  and  N_12
REMARK                            x       y       z     vdW  Elec       q    Type
REMARK                         _______ _______ _______ _____ _____    ______ ____
ROOT
ATOM      1  C   UNL     1      49.020   7.926  13.477  0.00  0.00    +0.000 C 
ENDROOT
BRANCH   1   2
ATOM      2  C   UNL     1      47.666   7.745  12.848  0.00  0.00    +0.000 A 
ATOM      3  C   UNL     1      46.562   8.500  13.273  0.00  0.00    +0.000 A 
ATOM      4  C   UNL     1      45.318   8.364  12.643  0.00  0.00    +0.000 A 
ATOM      5  C   UNL     1      45.148   7.462  11.588  0.00  0.00    +0.000 A 
ATOM      6  C   UNL     1      46.246   6.685  11.200  0.00  0.00    +0.000 A 
ATOM      7  F   UNL     1      46.166   5.787  10.207  0.00  0.00    +0.000 F 
ATOM      8  C   UNL     1      47.484   6.815  11.822  0.00  0.00    +0.000 A 
BRANCH   5   9
ATOM      9  O   UNL     1      43.891   7.443  11.030  0.00  0.00    +0.000 OA
BRANCH   9  10
ATOM     10  C   UNL     1      43.004   6.455  11.572  0.00  0.00    +0.000 C 
BRANCH  10  11
ATOM     11  C   UNL     1      43.161   5.119  10.833  0.00  0.00    +0.000 C 
BRANCH  11  12
ATOM     12  N   UNL     1      42.996   3.930  11.699  0.00  0.00    +0.000 NA
ATOM     13  C   UNL     1      43.964   2.854  11.450  0.00  0.00    +0.000 C 
ATOM     14  C   UNL     1      45.200   3.246  12.240  0.00  0.00    +0.000 C 
ATOM     15  O   UNL     1      44.751   4.151  13.256  0.00  0.00    +0.000 OA
ATOM     16  C   UNL     1      43.339   4.282  13.078  0.00  0.00    +0.000 C 
ENDBRANCH  11  12
ENDBRANCH  10  11
ENDBRANCH   9  10
ENDBRANCH   5   9
ENDBRANCH   1   2
BRANCH   1  19
ATOM     17  O   UNL     1      48.699   8.599  16.175  0.00  0.00    +0.000 OA
ATOM     18  C   UNL     1      49.004   7.444  15.882  0.00  0.00    +0.000 C 
ATOM     19  N   UNL     1      49.221   7.041  14.592  0.00  0.00    +0.000 N 
ATOM     20  H   UNL     1      49.285   6.051  14.381  0.00  0.00    +0.000 HD
BRANCH  18  21
ATOM     21  C   UNL     1      49.206   6.428  16.916  0.00  0.00    +0.000 A 
ATOM     22  C   UNL     1      50.082   6.661  17.967  0.00  0.00    +0.000 A 
ATOM     23  S   UNL     1      50.155   5.370  19.081  0.00  0.00    +0.000 S 
ATOM     24  C   UNL     1      48.998   4.474  18.209  0.00  0.00    +0.000 A 
ATOM     25  N   UNL     1      48.570   3.260  18.643  0.00  0.00    +0.000 NA
ATOM     26  C   UNL     1      47.665   2.718  17.896  0.00  0.00    +0.000 A 
ATOM     27  N   UNL     1      47.157   3.270  16.753  0.00  0.00    +0.000 N 
ATOM     28  C   UNL     1      47.614   4.458  16.233  0.00  0.00    +0.000 A 
ATOM     29  O   UNL     1      47.247   4.850  15.133  0.00  0.00    +0.000 OA
ATOM     30  C   UNL     1      48.591   5.135  17.065  0.00  0.00    +0.000 A 
ATOM     31  H   UNL     1      46.480   2.779  16.188  0.00  0.00    +0.000 HD
ENDBRANCH  18  21
ENDBRANCH   1  19
TORSDOF 7
ENDMDL
MODEL 3
REMARK VINA RESULT:    -6.835      3.835      7.794
REMARK INTER + INTRA:         -10.810
REMARK INTER:                  -9.753
REMARK INTRA:                  -1.056
REMARK UNBOUND:                -1.178
REMARK  Name = 
REMARK  7 active torsions:
REMARK  status: ('A' for Active; 'I' for Inactive)
REMARK    1  A    between atoms: C_2  and  C_20
REMARK    2  A    between atoms: N_3  and  C_4
REMARK    3  A    between atoms: C_4  and  C_5
REMARK    4  A    between atoms: C_8  and  O_9
REMARK    5  A    between atoms: O_9  and  C_10
REMARK    6  A    between atoms: C_10  and  C_11
REMARK    7  A    between atoms: C_11  and  N_12
REMARK                            x       y       z     vdW  Elec       q    Type
REMARK                         _______ _______ _______ _____ _____    ______ ____
ROOT
ATOM      1  C   UNL     1      48.370   7.976  12.026  0.00  0.00    +0.000 C 
ENDROOT
BRANCH   1   2
ATOM      2  C   UNL     1      48.974   7.650  13.365  0.00  0.00    +0.000 A 
ATOM      3  C   UNL     1      48.247   6.947  14.337  0.00  0.00    +0.000 A 
ATOM      4  C   UNL     1      48.837   6.599  15.559  0.00  0.00    +0.000 A 
ATOM      5  C   UNL     1      50.159   6.960  15.840  0.00  0.00    +0.000 A 
ATOM      6  C   UNL     1      50.861   7.696  14.878  0.00  0.00    +0.000 A 
ATOM      7  F   UNL     1      52.127   8.093  15.073  0.00  0.00    +0.000 F 
ATOM      8  C   UNL     1      50.280   8.044  13.663  0.00  0.00    +0.000 A 
BRANCH   5   9
ATOM      9  O   UNL     1      50.636   6.535  17.057  0.00  0.00    +0.000 OA
BRANCH   9  10
ATOM     10  C   UNL     1      49.895   5.464  17.658  0.00  0.00    +0.000 C 
BRANCH  10  11
ATOM     11  C   UNL     1      50.666   4.141  17.550  0.00  0.00    +0.000 C 
BRANCH  11  12
ATOM     12  N   UNL     1      49.885   2.953  17.959  0.00  0.00    +0.000 NA
ATOM     13  C   UNL     1      48.440   3.060  17.719  0.00  0.00    +0.000 C 
ATOM     14  C   UNL     1      48.252   2.671  16.263  0.00  0.00    +0.000 C 
ATOM     15  O   UNL     1      49.404   1.894  15.909  0.00  0.00    +0.000 OA
ATOM     16  C   UNL     1      50.217   1.828  17.082  0.00  0.00    +0.000 C 
ENDBRANCH  11  12
ENDBRANCH  10  11
ENDBRANCH   9  10
ENDBRANCH   5   9
ENDBRANCH   1   2
BRANCH   1  19
ATOM     17  O   UNL     1      45.591   7.892  11.709  0.00  0.00    +0.000 OA
ATOM     18  C   UNL     1      46.261   6.932  11.334  0.00  0.00    +0.000 C 
ATOM     19  N   UNL     1      47.620   6.873  11.490  0.00  0.00    +0.000 N 
ATOM     20  H   UNL     1      48.148   6.156  11.004  0.00  0.00    +0.000 HD
BRANCH  18  21
ATOM     21  C   UNL     1      45.630   5.753  10.736  0.00  0.00    +0.000 A 
ATOM     22  C   UNL     1      45.815   5.465   9.391  0.00  0.00    +0.000 A 
ATOM     23  S   UNL     1      45.025   4.037   8.894  0.00  0.00    +0.000 S 
ATOM     24  C   UNL     1      44.437   3.745  10.466  0.00  0.00    +0.000 A 
ATOM     25  N   UNL     1      43.696   2.642  10.751  0.00  0.00    +0.000 NA
ATOM     26  C   UNL     1      43.353   2.539  11.993  0.00  0.00    +0.000 A 
ATOM     27  N   UNL     1      43.670   3.440  12.972  0.00  0.00    +0.000 N 
ATOM     28  C   UNL     1      44.348   4.608  12.718  0.00  0.00    +0.000 A 
ATOM     29  O   UNL     1      44.485   5.461  13.585  0.00  0.00    +0.000 OA
ATOM     30  C   UNL     1      44.807   4.744  11.347  0.00  0.00    +0.000 A 
ATOM     31  H   UNL     1      43.337   3.326  13.918  0.00  0.00    +0.000 HD
ENDBRANCH  18  21
ENDBRANCH   1  19
TORSDOF 7
ENDMDL
MODEL 4
REMARK VINA RESULT:    -6.827      1.657      1.905
REMARK INTER + INTRA:         -10.799
REMARK INTER:                  -9.950
REMARK INTRA:                  -0.849
REMARK UNBOUND:                -1.178
REMARK  Name = 
REMARK  7 active torsions:
REMARK  status: ('A' for Active; 'I' for Inactive)
REMARK    1  A    between atoms: C_2  and  C_20
REMARK    2  A    between atoms: N_3  and  C_4
REMARK    3  A    between atoms: C_4  and  C_5
REMARK    4  A    between atoms: C_8  and  O_9
REMARK    5  A    between atoms: O_9  and  C_10
REMARK    6  A    between atoms: C_10  and  C_11
REMARK    7  A    between atoms: C_11  and  N_12
REMARK                            x       y       z     vdW  Elec       q    Type
REMARK                         _______ _______ _______ _____ _____    ______ ____
ROOT
ATOM      1  C   UNL     1      48.175   6.922  13.361  0.00  0.00    +0.000 C 
ENDROOT
BRANCH   1   2
ATOM      2  C   UNL     1      47.038   6.253  12.639  0.00  0.00    +0.000 A 
ATOM      3  C   UNL     1      46.702   6.611  11.325  0.00  0.00    +0.000 A 
ATOM      4  C   UNL     1      45.677   5.943  10.641  0.00  0.00    +0.000 A 
ATOM      5  C   UNL     1      44.960   4.915  11.260  0.00  0.00    +0.000 A 
ATOM      6  C   UNL     1      45.278   4.593  12.585  0.00  0.00    +0.000 A 
ATOM      7  F   UNL     1      44.631   3.630  13.257  0.00  0.00    +0.000 F 
ATOM      8  C   UNL     1      46.294   5.253  13.270  0.00  0.00    +0.000 A 
BRANCH   5   9
ATOM      9  O   UNL     1      44.003   4.314  10.477  0.00  0.00    +0.000 OA
BRANCH   9  10
ATOM     10  C   UNL     1      44.271   2.948  10.133  0.00  0.00    +0.000 C 
BRANCH  10  11
ATOM     11  C   UNL     1      44.706   2.833   8.665  0.00  0.00    +0.000 C 
BRANCH  11  12
ATOM     12  N   UNL     1      46.170   2.906   8.464  0.00  0.00    +0.000 NA
ATOM     13  C   UNL     1      46.706   1.925   7.512  0.00  0.00    +0.000 C 
ATOM     14  C   UNL     1      46.496   2.548   6.143  0.00  0.00    +0.000 C 
ATOM     15  O   UNL     1      46.373   3.958   6.365  0.00  0.00    +0.000 OA
ATOM     16  C   UNL     1      46.504   4.154   7.775  0.00  0.00    +0.000 C 
ENDBRANCH  11  12
ENDBRANCH  10  11
ENDBRANCH   9  10
ENDBRANCH   5   9
ENDBRANCH   1   2
BRANCH   1  19
ATOM     17  O   UNL     1      50.209   6.663  15.265  0.00  0.00    +0.000 OA
ATOM     18  C   UNL     1      49.052   6.816  15.649  0.00  0.00    +0.000 C 
ATOM     19  N   UNL     1      47.993   6.909  14.786  0.00  0.00    +0.000 N 
ATOM     20  H   UNL     1      47.091   7.219  15.132  0.00  0.00    +0.000 HD
BRANCH  18  21
ATOM     21  C   UNL     1      48.724   6.856  17.076  0.00  0.00    +0.000 A 
ATOM     22  C   UNL     1      48.222   8.017  17.648  0.00  0.00    +0.000 A 
ATOM     23  S   UNL     1      47.877   7.853  19.310  0.00  0.00    +0.000 S 
ATOM     24  C   UNL     1      48.359   6.219  19.309  0.00  0.00    +0.000 A 
ATOM     25  N   UNL     1      48.282   5.458  20.432  0.00  0.00    +0.000 NA
ATOM     26  C   UNL     1      48.649   4.230  20.268  0.00  0.00    +0.000 A 
ATOM     27  N   UNL     1      49.096   3.695  19.091  0.00  0.00    +0.000 N 
ATOM     28  C   UNL     1      49.266   4.443  17.951  0.00  0.00    +0.000 A 
ATOM     29  O   UNL     1      49.807   3.971  16.959  0.00  0.00    +0.000 OA
ATOM     30  C   UNL     1      48.813   5.817  18.067  0.00  0.00    +0.000 A 
ATOM     31  H   UNL     1      49.409   2.737  19.035  0.00  0.00    +0.000 HD
ENDBRANCH  18  21
ENDBRANCH   1  19
TORSDOF 7
ENDMDL
MODEL 5
REMARK VINA RESULT:    -6.656      2.197      2.627
REMARK INTER + INTRA:         -10.559
REMARK INTER:                  -9.616
REMARK INTRA:                  -0.942
REMARK UNBOUND:                -1.178
REMARK  Name = 
REMARK  7 active torsions:
REMARK  status: ('A' for Active; 'I' for Inactive)
REMARK    1  A    between atoms: C_2  and  C_20
REMARK    2  A    between atoms: N_3  and  C_4
REMARK    3  A    between atoms: C_4  and  C_5
REMARK    4  A    between atoms: C_8  and  O_9
REMARK    5  A    between atoms: O_9  and  C_10
REMARK    6  A    between atoms: C_10  and  C_11
REMARK    7  A    between atoms: C_11  and  N_12
REMARK                            x       y       z     vdW  Elec       q    Type
REMARK                         _______ _______ _______ _____ _____    ______ ____
ROOT
ATOM      1  C   UNL     1      47.963   6.938  13.496  0.00  0.00    +0.000 C 
ENDROOT
BRANCH   1   2
ATOM      2  C   UNL     1      46.939   6.206  12.673  0.00  0.00    +0.000 A 
ATOM      3  C   UNL     1      46.591   6.647  11.387  0.00  0.00    +0.000 A 
ATOM      4  C   UNL     1      45.678   5.927  10.606  0.00  0.00    +0.000 A 
ATOM      5  C   UNL     1      45.083   4.761  11.099  0.00  0.00    +0.000 A 
ATOM      6  C   UNL     1      45.407   4.353  12.398  0.00  0.00    +0.000 A 
ATOM      7  F   UNL     1      44.871   3.255  12.952  0.00  0.00    +0.000 F 
ATOM      8  C   UNL     1      46.313   5.064  13.179  0.00  0.00    +0.000 A 
BRANCH   5   9
ATOM      9  O   UNL     1      44.229   4.126  10.228  0.00  0.00    +0.000 OA
BRANCH   9  10
ATOM     10  C   UNL     1      44.564   2.761   9.940  0.00  0.00    +0.000 C 
BRANCH  10  11
ATOM     11  C   UNL     1      44.972   2.600   8.469  0.00  0.00    +0.000 C 
BRANCH  11  12
ATOM     12  N   UNL     1      46.422   2.768   8.225  0.00  0.00    +0.000 NA
ATOM     13  C   UNL     1      46.982   1.858   7.220  0.00  0.00    +0.000 C 
ATOM     14  C   UNL     1      46.690   2.518   5.883  0.00  0.00    +0.000 C 
ATOM     15  O   UNL     1      46.491   3.909   6.164  0.00  0.00    +0.000 OA
ATOM     16  C   UNL     1      46.658   4.060   7.576  0.00  0.00    +0.000 C 
ENDBRANCH  11  12
ENDBRANCH  10  11
ENDBRANCH   9  10
ENDBRANCH   5   9
ENDBRANCH   1   2
BRANCH   1  19
ATOM     17  O   UNL     1      50.126   6.636  15.245  0.00  0.00    +0.000 OA
ATOM     18  C   UNL     1      48.984   6.515  15.685  0.00  0.00    +0.000 C 
ATOM     19  N   UNL     1      47.873   6.606  14.891  0.00  0.00    +0.000 N 
ATOM     20  H   UNL     1      46.957   6.686  15.320  0.00  0.00    +0.000 HD
BRANCH  18  21
ATOM     21  C   UNL     1      48.743   6.210  17.097  0.00  0.00    +0.000 A 
ATOM     22  C   UNL     1      48.975   4.933  17.588  0.00  0.00    +0.000 A 
ATOM     23  S   UNL     1      48.664   4.789  19.260  0.00  0.00    +0.000 S 
ATOM     24  C   UNL     1      48.239   6.434  19.382  0.00  0.00    +0.000 A 
ATOM     25  N   UNL     1      47.892   6.988  20.574  0.00  0.00    +0.000 NA
ATOM     26  C   UNL     1      47.631   8.252  20.515  0.00  0.00    +0.000 A 
ATOM     27  N   UNL     1      47.672   9.010  19.378  0.00  0.00    +0.000 N 
ATOM     28  C   UNL     1      47.940   8.480  18.139  0.00  0.00    +0.000 A 
ATOM     29  O   UNL     1      47.822   9.153  17.123  0.00  0.00    +0.000 OA
ATOM     30  C   UNL     1      48.297   7.073  18.158  0.00  0.00    +0.000 A 
ATOM     31  H   UNL     1      47.416   9.987  19.388  0.00  0.00    +0.000 HD
ENDBRANCH  18  21
ENDBRANCH   1  19
TORSDOF 7
ENDMDL
MODEL 6
REMARK VINA RESULT:    -6.652      4.834      9.185
REMARK INTER + INTRA:         -10.553
REMARK INTER:                  -9.592
REMARK INTRA:                  -0.960
REMARK UNBOUND:                -1.178
REMARK  Name = 
REMARK  7 active torsions:
REMARK  status: ('A' for Active; 'I' for Inactive)
REMARK    1  A    between atoms: C_2  and  C_20
REMARK    2  A    between atoms: N_3  and  C_4
REMARK    3  A    between atoms: C_4  and  C_5
REMARK    4  A    between atoms: C_8  and  O_9
REMARK    5  A    between atoms: O_9  and  C_10
REMARK    6  A    between atoms: C_10  and  C_11
REMARK    7  A    between atoms: C_11  and  N_12
REMARK                            x       y       z     vdW  Elec       q    Type
REMARK                         _______ _______ _______ _____ _____    ______ ____
ROOT
ATOM      1  C   UNL     1      47.163   3.477  16.755  0.00  0.00    +0.000 C 
ENDROOT
BRANCH   1   2
ATOM      2  C   UNL     1      48.624   3.584  17.095  0.00  0.00    +0.000 A 
ATOM      3  C   UNL     1      49.454   2.453  17.096  0.00  0.00    +0.000 A 
ATOM      4  C   UNL     1      50.825   2.571  17.358  0.00  0.00    +0.000 A 
ATOM      5  C   UNL     1      51.392   3.818  17.639  0.00  0.00    +0.000 A 
ATOM      6  C   UNL     1      50.547   4.934  17.675  0.00  0.00    +0.000 A 
ATOM      7  F   UNL     1      51.006   6.164  17.950  0.00  0.00    +0.000 F 
ATOM      8  C   UNL     1      49.184   4.823  17.416  0.00  0.00    +0.000 A 
BRANCH   5   9
ATOM      9  O   UNL     1      52.750   3.811  17.848  0.00  0.00    +0.000 OA
BRANCH   9  10
ATOM     10  C   UNL     1      53.211   2.848  18.806  0.00  0.00    +0.000 C 
BRANCH  10  11
ATOM     11  C   UNL     1      54.610   2.336  18.435  0.00  0.00    +0.000 C 
BRANCH  11  12
ATOM     12  N   UNL     1      54.601   1.131  17.577  0.00  0.00    +0.000 NA
ATOM     13  C   UNL     1      55.774   0.262  17.732  0.00  0.00    +0.000 C 
ATOM     14  C   UNL     1      55.466  -0.606  18.940  0.00  0.00    +0.000 C 
ATOM     15  O   UNL     1      54.040  -0.595  19.081  0.00  0.00    +0.000 OA
ATOM     16  C   UNL     1      53.540   0.226  18.022  0.00  0.00    +0.000 C 
ENDBRANCH  11  12
ENDBRANCH  10  11
ENDBRANCH   9  10
ENDBRANCH   5   9
ENDBRANCH   1   2
BRANCH   1  19
ATOM     17  O   UNL     1      47.271   3.182  13.975  0.00  0.00    +0.000 OA
ATOM     18  C   UNL     1      46.810   4.220  14.445  0.00  0.00    +0.000 C 
ATOM     19  N   UNL     1      46.759   4.463  15.791  0.00  0.00    +0.000 N 
ATOM     20  H   UNL     1      46.206   5.240  16.139  0.00  0.00    +0.000 HD
BRANCH  18  21
ATOM     21  C   UNL     1      46.328   5.297  13.578  0.00  0.00    +0.000 A 
ATOM     22  C   UNL     1      47.153   6.368  13.264  0.00  0.00    +0.000 A 
ATOM     23  S   UNL     1      46.419   7.499  12.219  0.00  0.00    +0.000 S 
ATOM     24  C   UNL     1      44.988   6.578  12.131  0.00  0.00    +0.000 A 
ATOM     25  N   UNL     1      43.941   6.971  11.359  0.00  0.00    +0.000 NA
ATOM     26  C   UNL     1      42.941   6.152  11.366  0.00  0.00    +0.000 A 
ATOM     27  N   UNL     1      42.885   4.987  12.079  0.00  0.00    +0.000 N 
ATOM     28  C   UNL     1      43.886   4.588  12.932  0.00  0.00    +0.000 A 
ATOM     29  O   UNL     1      43.742   3.619  13.667  0.00  0.00    +0.000 OA
ATOM     30  C   UNL     1      45.058   5.444  12.918  0.00  0.00    +0.000 A 
ATOM     31  H   UNL     1      42.058   4.408  12.075  0.00  0.00    +0.000 HD
ENDBRANCH  18  21
ENDBRANCH   1  19
TORSDOF 7
ENDMDL
MODEL 7
REMARK VINA RESULT:    -6.650      3.278      8.244
REMARK INTER + INTRA:         -10.549
REMARK INTER:                  -9.466
REMARK INTRA:                  -1.083
REMARK UNBOUND:                -1.178
REMARK  Name = 
REMARK  7 active torsions:
REMARK  status: ('A' for Active; 'I' for Inactive)
REMARK    1  A    between atoms: C_2  and  C_20
REMARK    2  A    between atoms: N_3  and  C_4
REMARK    3  A    between atoms: C_4  and  C_5
REMARK    4  A    between atoms: C_8  and  O_9
REMARK    5  A    between atoms: O_9  and  C_10
REMARK    6  A    between atoms: C_10  and  C_11
REMARK    7  A    between atoms: C_11  and  N_12
REMARK                            x       y       z     vdW  Elec       q    Type
REMARK                         _______ _______ _______ _____ _____    ______ ____
ROOT
ATOM      1  C   UNL     1      47.486   7.575  12.220  0.00  0.00    +0.000 C 
ENDROOT
BRANCH   1   2
ATOM      2  C   UNL     1      48.408   7.411  13.397  0.00  0.00    +0.000 A 
ATOM      3  C   UNL     1      48.000   6.718  14.547  0.00  0.00    +0.000 A 
ATOM      4  C   UNL     1      48.884   6.522  15.616  0.00  0.00    +0.000 A 
ATOM      5  C   UNL     1      50.187   7.027  15.564  0.00  0.00    +0.000 A 
ATOM      6  C   UNL     1      50.570   7.752  14.429  0.00  0.00    +0.000 A 
ATOM      7  F   UNL     1      51.796   8.281  14.305  0.00  0.00    +0.000 F 
ATOM      8  C   UNL     1      49.696   7.950  13.364  0.00  0.00    +0.000 A 
BRANCH   5   9
ATOM      9  O   UNL     1      50.970   6.743  16.658  0.00  0.00    +0.000 OA
BRANCH   9  10
ATOM     10  C   UNL     1      50.424   5.766  17.555  0.00  0.00    +0.000 C 
BRANCH  10  11
ATOM     11  C   UNL     1      51.070   4.393  17.323  0.00  0.00    +0.000 C 
BRANCH  11  12
ATOM     12  N   UNL     1      50.359   3.274  17.979  0.00  0.00    +0.000 NA
ATOM     13  C   UNL     1      48.895   3.345  17.893  0.00  0.00    +0.000 C 
ATOM     14  C   UNL     1      48.550   2.757  16.536  0.00  0.00    +0.000 C 
ATOM     15  O   UNL     1      49.666   1.939  16.164  0.00  0.00    +0.000 OA
ATOM     16  C   UNL     1      50.609   2.037  17.235  0.00  0.00    +0.000 C 
ENDBRANCH  11  12
ENDBRANCH  10  11
ENDBRANCH   9  10
ENDBRANCH   5   9
ENDBRANCH   1   2
BRANCH   1  19
ATOM     17  O   UNL     1      44.711   7.310  11.974  0.00  0.00    +0.000 OA
ATOM     18  C   UNL     1      45.422   6.328  11.772  0.00  0.00    +0.000 C 
ATOM     19  N   UNL     1      46.784   6.360  11.911  0.00  0.00    +0.000 N 
ATOM     20  H   UNL     1      47.341   5.590  11.556  0.00  0.00    +0.000 HD
BRANCH  18  21
ATOM     21  C   UNL     1      44.842   5.032  11.414  0.00  0.00    +0.000 A 
ATOM     22  C   UNL     1      44.056   4.340  12.324  0.00  0.00    +0.000 A 
ATOM     23  S   UNL     1      43.451   2.869  11.708  0.00  0.00    +0.000 S 
ATOM     24  C   UNL     1      44.195   3.126  10.197  0.00  0.00    +0.000 A 
ATOM     25  N   UNL     1      44.047   2.243   9.176  0.00  0.00    +0.000 NA
ATOM     26  C   UNL     1      44.641   2.592   8.082  0.00  0.00    +0.000 A 
ATOM     27  N   UNL     1      45.376   3.733   7.918  0.00  0.00    +0.000 N 
ATOM     28  C   UNL     1      45.619   4.616   8.942  0.00  0.00    +0.000 A 
ATOM     29  O   UNL     1      46.401   5.547   8.803  0.00  0.00    +0.000 OA
ATOM     30  C   UNL     1      44.926   4.300  10.178  0.00  0.00    +0.000 A 
ATOM     31  H   UNL     1      45.851   3.931   7.049  0.00  0.00    +0.000 HD
ENDBRANCH  18  21
ENDBRANCH   1  19
TORSDOF 7
ENDMDL
MODEL 8
REMARK VINA RESULT:    -6.515      3.353      4.734
REMARK INTER + INTRA:         -10.359
REMARK INTER:                  -9.342
REMARK INTRA:                  -1.017
REMARK UNBOUND:                -1.178
REMARK  Name = 
REMARK  7 active torsions:
REMARK  status: ('A' for Active; 'I' for Inactive)
REMARK    1  A    between atoms: C_2  and  C_20
REMARK    2  A    between atoms: N_3  and  C_4
REMARK    3  A    between atoms: C_4  and  C_5
REMARK    4  A    between atoms: C_8  and  O_9
REMARK    5  A    between atoms: O_9  and  C_10
REMARK    6  A    between atoms: C_10  and  C_11
REMARK    7  A    between atoms: C_11  and  N_12
REMARK                            x       y       z     vdW  Elec       q    Type
REMARK                         _______ _______ _______ _____ _____    ______ ____
ROOT
ATOM      1  C   UNL     1      48.937   6.075  17.525  0.00  0.00    +0.000 C 
ENDROOT
BRANCH   1   2
ATOM      2  C   UNL     1      48.330   5.807  16.176  0.00  0.00    +0.000 A 
ATOM      3  C   UNL     1      47.528   4.678  15.952  0.00  0.00    +0.000 A 
ATOM      4  C   UNL     1      46.921   4.467  14.707  0.00  0.00    +0.000 A 
ATOM      5  C   UNL     1      47.114   5.371  13.657  0.00  0.00    +0.000 A 
ATOM      6  C   UNL     1      47.949   6.473  13.881  0.00  0.00    +0.000 A 
ATOM      7  F   UNL     1      48.199   7.380  12.925  0.00  0.00    +0.000 F 
ATOM      8  C   UNL     1      48.554   6.688  15.115  0.00  0.00    +0.000 A 
BRANCH   5   9
ATOM      9  O   UNL     1      46.441   5.073  12.496  0.00  0.00    +0.000 OA
BRANCH   9  10
ATOM     10  C   UNL     1      45.200   4.378  12.677  0.00  0.00    +0.000 C 
BRANCH  10  11
ATOM     11  C   UNL     1      45.137   3.135  11.777  0.00  0.00    +0.000 C 
BRANCH  11  12
ATOM     12  N   UNL     1      44.110   3.213  10.716  0.00  0.00    +0.000 NA
ATOM     13  C   UNL     1      44.077   4.487   9.987  0.00  0.00    +0.000 C 
ATOM     14  C   UNL     1      45.154   4.361   8.924  0.00  0.00    +0.000 C 
ATOM     15  O   UNL     1      45.362   2.955   8.736  0.00  0.00    +0.000 OA
ATOM     16  C   UNL     1      44.463   2.295   9.631  0.00  0.00    +0.000 C 
ENDBRANCH  11  12
ENDBRANCH  10  11
ENDBRANCH   9  10
ENDBRANCH   5   9
ENDBRANCH   1   2
BRANCH   1  19
ATOM     17  O   UNL     1      51.579   6.272  16.627  0.00  0.00    +0.000 OA
ATOM     18  C   UNL     1      51.275   5.349  17.380  0.00  0.00    +0.000 C 
ATOM     19  N   UNL     1      49.997   5.155  17.832  0.00  0.00    +0.000 N 
ATOM     20  H   UNL     1      49.829   4.502  18.591  0.00  0.00    +0.000 HD
BRANCH  18  21
ATOM     21  C   UNL     1      52.265   4.356  17.803  0.00  0.00    +0.000 A 
ATOM     22  C   UNL     1      53.479   4.761  18.340  0.00  0.00    +0.000 A 
ATOM     23  S   UNL     1      54.480   3.458  18.798  0.00  0.00    +0.000 S 
ATOM     24  C   UNL     1      53.311   2.315  18.320  0.00  0.00    +0.000 A 
ATOM     25  N   UNL     1      53.521   0.982  18.476  0.00  0.00    +0.000 NA
ATOM     26  C   UNL     1      52.530   0.241  18.102  0.00  0.00    +0.000 A 
ATOM     27  N   UNL     1      51.356   0.707  17.577  0.00  0.00    +0.000 N 
ATOM     28  C   UNL     1      51.129   2.040  17.328  0.00  0.00    +0.000 A 
ATOM     29  O   UNL     1      50.132   2.409  16.722  0.00  0.00    +0.000 OA
ATOM     30  C   UNL     1      52.189   2.920  17.785  0.00  0.00    +0.000 A 
ATOM     31  H   UNL     1      50.634   0.076  17.264  0.00  0.00    +0.000 HD
ENDBRANCH  18  21
ENDBRANCH   1  19
TORSDOF 7
ENDMDL
MODEL 9
REMARK VINA RESULT:    -6.390      2.368      3.850
REMARK INTER + INTRA:         -10.183
REMARK INTER:                  -9.196
REMARK INTRA:                  -0.987
REMARK UNBOUND:                -1.178
REMARK  Name = 
REMARK  7 active torsions:
REMARK  status: ('A' for Active; 'I' for Inactive)
REMARK    1  A    between atoms: C_2  and  C_20
REMARK    2  A    between atoms: N_3  and  C_4
REMARK    3  A    between atoms: C_4  and  C_5
REMARK    4  A    between atoms: C_8  and  O_9
REMARK    5  A    between atoms: O_9  and  C_10
REMARK    6  A    between atoms: C_10  and  C_11
REMARK    7  A    between atoms: C_11  and  N_12
REMARK                            x       y       z     vdW  Elec       q    Type
REMARK                         _______ _______ _______ _____ _____    ______ ____
ROOT
ATOM      1  C   UNL     1      46.799   4.736  14.673  0.00  0.00    +0.000 C 
ENDROOT
BRANCH   1   2
ATOM      2  C   UNL     1      46.174   4.513  13.323  0.00  0.00    +0.000 A 
ATOM      3  C   UNL     1      45.753   3.236  12.921  0.00  0.00    +0.000 A 
ATOM      4  C   UNL     1      45.122   3.047  11.685  0.00  0.00    +0.000 A 
ATOM      5  C   UNL     1      44.911   4.126  10.820  0.00  0.00    +0.000 A 
ATOM      6  C   UNL     1      45.372   5.387  11.215  0.00  0.00    +0.000 A 
ATOM      7  F   UNL     1      45.223   6.472  10.440  0.00  0.00    +0.000 F 
ATOM      8  C   UNL     1      46.000   5.582  12.441  0.00  0.00    +0.000 A 
BRANCH   5   9
ATOM      9  O   UNL     1      44.253   3.821   9.653  0.00  0.00    +0.000 OA
BRANCH   9  10
ATOM     10  C   UNL     1      44.893   4.288   8.457  0.00  0.00    +0.000 C 
BRANCH  10  11
ATOM     11  C   UNL     1      46.160   3.471   8.164  0.00  0.00    +0.000 C 
BRANCH  11  12
ATOM     12  N   UNL     1      45.969   2.407   7.154  0.00  0.00    +0.000 NA
ATOM     13  C   UNL     1      46.594   2.679   5.854  0.00  0.00    +0.000 C 
ATOM     14  C   UNL     1      48.043   2.253   6.016  0.00  0.00    +0.000 C 
ATOM     15  O   UNL     1      48.063   1.327   7.109  0.00  0.00    +0.000 OA
ATOM     16  C   UNL     1      46.712   1.213   7.562  0.00  0.00    +0.000 C 
ENDBRANCH  11  12
ENDBRANCH  10  11
ENDBRANCH   9  10
ENDBRANCH   5   9
ENDBRANCH   1   2
BRANCH   1  19
ATOM     17  O   UNL     1      49.030   5.258  16.279  0.00  0.00    +0.000 OA
ATOM     18  C   UNL     1      48.621   6.139  15.526  0.00  0.00    +0.000 C 
ATOM     19  N   UNL     1      47.512   5.982  14.738  0.00  0.00    +0.000 N 
ATOM     20  H   UNL     1      47.322   6.655  14.003  0.00  0.00    +0.000 HD
BRANCH  18  21
ATOM     21  C   UNL     1      49.274   7.448  15.464  0.00  0.00    +0.000 A 
ATOM     22  C   UNL     1      49.447   8.201  16.617  0.00  0.00    +0.000 A 
ATOM     23  S   UNL     1      50.255   9.679  16.341  0.00  0.00    +0.000 S 
ATOM     24  C   UNL     1      50.423   9.344  14.678  0.00  0.00    +0.000 A 
ATOM     25  N   UNL     1      51.068  10.202  13.846  0.00  0.00    +0.000 NA
ATOM     26  C   UNL     1      51.148   9.795  12.622  0.00  0.00    +0.000 A 
ATOM     27  N   UNL     1      50.634   8.618  12.151  0.00  0.00    +0.000 N 
ATOM     28  C   UNL     1      49.908   7.756  12.937  0.00  0.00    +0.000 A 
ATOM     29  O   UNL     1      49.336   6.787  12.452  0.00  0.00    +0.000 OA
ATOM     30  C   UNL     1      49.838   8.139  14.335  0.00  0.00    +0.000 A 
ATOM     31  H   UNL     1      50.692   8.373  11.173  0.00  0.00    +0.000 HD
ENDBRANCH  18  21
ENDBRANCH   1  19
TORSDOF 7
ENDMDL
