MODEL 1
REMARK VINA RESULT:    -8.529      0.000      0.000
REMARK INTER + INTRA:         -11.799
REMARK INTER:                 -11.022
REMARK INTRA:                  -0.777
REMARK UNBOUND:                -0.777
REMARK  Name = 
REMARK  5 active torsions:
REMARK  status: ('A' for Active; 'I' for Inactive)
REMARK    1  A    between atoms: C_2  and  C_4
REMARK    2  A    between atoms: C_7  and  O_8
REMARK    3  A    between atoms: O_8  and  C_9
REMARK    4  A    between atoms: C_9  and  C_10
REMARK    5  A    between atoms: C_14  and  C_15
REMARK                            x       y       z     vdW  Elec       q    Type
REMARK                         _______ _______ _______ _____ _____    ______ ____
ROOT
ATOM      1  C   UNL     1      43.852   5.128  10.694  0.00  0.00    +0.000 C 
ENDROOT
BRANCH   1   2
ATOM      2  C   UNL     1      44.934   5.128  11.743  0.00  0.00    +0.000 A 
ATOM      3  C   UNL     1      44.822   4.263  12.825  0.00  0.00    +0.000 A 
ATOM      4  N   UNL     1      45.716   4.192  13.831  0.00  0.00    +0.000 NA
ATOM      5  C   UNL     1      46.776   5.032  13.760  0.00  0.00    +0.000 A 
ATOM      6  C   UNL     1      47.018   5.941  12.728  0.00  0.00    +0.000 A 
ATOM      7  C   UNL     1      46.056   5.963  11.704  0.00  0.00    +0.000 A 
BRANCH   6   8
ATOM      8  C   UNL     1      48.200   6.825  12.712  0.00  0.00    +0.000 A 
ATOM      9  C   UNL     1      48.595   7.535  11.568  0.00  0.00    +0.000 A 
ATOM     10  C   UNL     1      49.716   8.366  11.595  0.00  0.00    +0.000 A 
ATOM     11  C   UNL     1      50.422   8.480  12.778  0.00  0.00    +0.000 A 
ATOM     12  N   UNL     1      50.091   7.824  13.906  0.00  0.00    +0.000 NA
ATOM     13  C   UNL     1      49.002   7.017  13.842  0.00  0.00    +0.000 A 
ENDBRANCH   6   8
ENDBRANCH   1   2
BRANCH   1  14
ATOM     14  O   UNL     1      43.602   3.815  10.177  0.00  0.00    +0.000 OA
BRANCH  14  18
ATOM     15  C   UNL     1      46.471   2.625   7.470  0.00  0.00    +0.000 A 
ATOM     16  C   UNL     1      45.951   1.698   8.377  0.00  0.00    +0.000 A 
ATOM     17  C   UNL     1      44.980   2.113   9.292  0.00  0.00    +0.000 A 
ATOM     18  C   UNL     1      44.562   3.435   9.260  0.00  0.00    +0.000 A 
ATOM     19  N   UNL     1      45.046   4.349   8.394  0.00  0.00    +0.000 NA
ATOM     20  C   UNL     1      45.997   3.927   7.526  0.00  0.00    +0.000 A 
BRANCH  15  22
ATOM     21  N   UNL     1      47.525   3.039   5.318  0.00  0.00    +0.000 N 
ATOM     22  C   UNL     1      47.510   2.306   6.471  0.00  0.00    +0.000 C 
ATOM     23  O   UNL     1      48.353   1.445   6.683  0.00  0.00    +0.000 OA
ATOM     24  H   UNL     1      48.316   2.880   4.706  0.00  0.00    +0.000 HD
ATOM     25  H   UNL     1      47.026   3.911   5.218  0.00  0.00    +0.000 HD
ENDBRANCH  15  22
ENDBRANCH  14  18
ENDBRANCH   1  14
TORSDOF 5
ENDMDL
MODEL 2
REMARK VINA RESULT:    -8.367      1.248      1.366
REMARK INTER + INTRA:         -11.590
REMARK INTER:                 -10.933
REMARK INTRA:                  -0.657
REMARK UNBOUND:                -0.777
REMARK  Name = 
REMARK  5 active torsions:
REMARK  status: ('A' for Active; 'I' for Inactive)
REMARK    1  A    between atoms: C_2  and  C_4
REMARK    2  A    between atoms: C_7  and  O_8
REMARK    3  A    between atoms: O_8  and  C_9
REMARK    4  A    between atoms: C_9  and  C_10
REMARK    5  A    between atoms: C_14  and  C_15
REMARK                            x       y       z     vdW  Elec       q    Type
REMARK                         _______ _______ _______ _____ _____    ______ ____
ROOT
ATOM      1  C   UNL     1      43.532   4.430  11.063  0.00  0.00    +0.000 C 
ENDROOT
BRANCH   1   2
ATOM      2  C   UNL     1      44.746   4.847  11.854  0.00  0.00    +0.000 A 
ATOM      3  C   UNL     1      45.187   4.031  12.888  0.00  0.00    +0.000 A 
ATOM      4  N   UNL     1      46.246   4.312  13.674  0.00  0.00    +0.000 NA
ATOM      5  C   UNL     1      46.898   5.472  13.419  0.00  0.00    +0.000 A 
ATOM      6  C   UNL     1      46.570   6.377  12.407  0.00  0.00    +0.000 A 
ATOM      7  C   UNL     1      45.463   6.025  11.617  0.00  0.00    +0.000 A 
BRANCH   6   8
ATOM      8  C   UNL     1      47.330   7.623  12.183  0.00  0.00    +0.000 A 
ATOM      9  C   UNL     1      46.750   8.893  12.319  0.00  0.00    +0.000 A 
ATOM     10  C   UNL     1      47.503  10.048  12.104  0.00  0.00    +0.000 A 
ATOM     11  C   UNL     1      48.835   9.911  11.762  0.00  0.00    +0.000 A 
ATOM     12  N   UNL     1      49.445   8.719  11.616  0.00  0.00    +0.000 NA
ATOM     13  C   UNL     1      48.681   7.617  11.823  0.00  0.00    +0.000 A 
ENDBRANCH   6   8
ENDBRANCH   1   2
BRANCH   1  14
ATOM     14  O   UNL     1      43.638   4.789   9.681  0.00  0.00    +0.000 OA
BRANCH  14  18
ATOM     15  C   UNL     1      46.388   2.414   7.739  0.00  0.00    +0.000 A 
ATOM     16  C   UNL     1      45.445   1.827   8.586  0.00  0.00    +0.000 A 
ATOM     17  C   UNL     1      44.518   2.641   9.241  0.00  0.00    +0.000 A 
ATOM     18  C   UNL     1      44.566   4.009   9.019  0.00  0.00    +0.000 A 
ATOM     19  N   UNL     1      45.465   4.602   8.206  0.00  0.00    +0.000 NA
ATOM     20  C   UNL     1      46.363   3.793   7.592  0.00  0.00    +0.000 A 
BRANCH  15  22
ATOM     21  N   UNL     1      48.450   2.367   6.450  0.00  0.00    +0.000 N 
ATOM     22  C   UNL     1      47.424   1.657   7.009  0.00  0.00    +0.000 C 
ATOM     23  O   UNL     1      47.390   0.437   6.939  0.00  0.00    +0.000 OA
ATOM     24  H   UNL     1      49.204   1.815   6.059  0.00  0.00    +0.000 HD
ATOM     25  H   UNL     1      48.654   3.324   6.701  0.00  0.00    +0.000 HD
ENDBRANCH  15  22
ENDBRANCH  14  18
ENDBRANCH   1  14
TORSDOF 5
ENDMDL
MODEL 3
REMARK VINA RESULT:    -8.256      1.848      2.848
REMARK INTER + INTRA:         -11.446
REMARK INTER:                 -10.773
REMARK INTRA:                  -0.673
REMARK UNBOUND:                -0.777
REMARK  Name = 
REMARK  5 active torsions:
REMARK  status: ('A' for Active; 'I' for Inactive)
REMARK    1  A    between atoms: C_2  and  C_4
REMARK    2  A    between atoms: C_7  and  O_8
REMARK    3  A    between atoms: O_8  and  C_9
REMARK    4  A    between atoms: C_9  and  C_10
REMARK    5  A    between atoms: C_14  and  C_15
REMARK                            x       y       z     vdW  Elec       q    Type
REMARK                         _______ _______ _______ _____ _____    ______ ____
ROOT
ATOM      1  C   UNL     1      43.744   4.487  11.219  0.00  0.00    +0.000 C 
ENDROOT
BRANCH   1   2
ATOM      2  C   UNL     1      44.883   5.225  11.875  0.00  0.00    +0.000 A 
ATOM      3  C   UNL     1      45.314   6.424  11.319  0.00  0.00    +0.000 A 
ATOM      4  N   UNL     1      46.335   7.158  11.806  0.00  0.00    +0.000 NA
ATOM      5  C   UNL     1      46.963   6.670  12.903  0.00  0.00    +0.000 A 
ATOM      6  C   UNL     1      46.627   5.488  13.567  0.00  0.00    +0.000 A 
ATOM      7  C   UNL     1      45.551   4.771  13.018  0.00  0.00    +0.000 A 
BRANCH   6   8
ATOM      8  C   UNL     1      47.355   5.017  14.762  0.00  0.00    +0.000 A 
ATOM      9  C   UNL     1      47.156   3.741  15.310  0.00  0.00    +0.000 A 
ATOM     10  C   UNL     1      47.868   3.330  16.438  0.00  0.00    +0.000 A 
ATOM     11  C   UNL     1      48.779   4.206  16.996  0.00  0.00    +0.000 A 
ATOM     12  N   UNL     1      49.011   5.442  16.515  0.00  0.00    +0.000 NA
ATOM     13  C   UNL     1      48.294   5.813  15.423  0.00  0.00    +0.000 A 
ENDBRANCH   6   8
ENDBRANCH   1   2
BRANCH   1  14
ATOM     14  O   UNL     1      43.693   4.718   9.807  0.00  0.00    +0.000 OA
BRANCH  14  18
ATOM     15  C   UNL     1      46.310   2.247   7.802  0.00  0.00    +0.000 A 
ATOM     16  C   UNL     1      45.422   1.702   8.733  0.00  0.00    +0.000 A 
ATOM     17  C   UNL     1      44.540   2.549   9.409  0.00  0.00    +0.000 A 
ATOM     18  C   UNL     1      44.575   3.905   9.123  0.00  0.00    +0.000 A 
ATOM     19  N   UNL     1      45.421   4.457   8.228  0.00  0.00    +0.000 NA
ATOM     20  C   UNL     1      46.277   3.619   7.596  0.00  0.00    +0.000 A 
BRANCH  15  22
ATOM     21  N   UNL     1      48.382   2.113   6.537  0.00  0.00    +0.000 N 
ATOM     22  C   UNL     1      47.297   1.454   7.042  0.00  0.00    +0.000 C 
ATOM     23  O   UNL     1      47.170   0.246   6.903  0.00  0.00    +0.000 OA
ATOM     24  H   UNL     1      49.098   1.527   6.124  0.00  0.00    +0.000 HD
ATOM     25  H   UNL     1      48.655   3.035   6.844  0.00  0.00    +0.000 HD
ENDBRANCH  15  22
ENDBRANCH  14  18
ENDBRANCH   1  14
TORSDOF 5
ENDMDL
MODEL 4
REMARK VINA RESULT:    -8.136      1.304      1.732
REMARK INTER + INTRA:         -11.291
REMARK INTER:                 -10.656
REMARK INTRA:                  -0.636
REMARK UNBOUND:                -0.777
REMARK  Name = 
REMARK  5 active torsions:
REMARK  status: ('A' for Active; 'I' for Inactive)
REMARK    1  A    between atoms: C_2  and  C_4
REMARK    2  A    between atoms: C_7  and  O_8
REMARK    3  A    between atoms: O_8  and  C_9
REMARK    4  A    between atoms: C_9  and  C_10
REMARK    5  A    between atoms: C_14  and  C_15
REMARK                            x       y       z     vdW  Elec       q    Type
REMARK                         _______ _______ _______ _____ _____    ______ ____
ROOT
ATOM      1  C   UNL     1      44.101   3.460  11.597  0.00  0.00    +0.000 C 
ENDROOT
BRANCH   1   2
ATOM      2  C   UNL     1      44.573   4.886  11.726  0.00  0.00    +0.000 A 
ATOM      3  C   UNL     1      43.682   5.916  11.451  0.00  0.00    +0.000 A 
ATOM      4  N   UNL     1      43.998   7.225  11.513  0.00  0.00    +0.000 NA
ATOM      5  C   UNL     1      45.271   7.525  11.863  0.00  0.00    +0.000 A 
ATOM      6  C   UNL     1      46.263   6.592  12.176  0.00  0.00    +0.000 A 
ATOM      7  C   UNL     1      45.872   5.245  12.102  0.00  0.00    +0.000 A 
BRANCH   6   8
ATOM      8  C   UNL     1      47.633   6.991  12.555  0.00  0.00    +0.000 A 
ATOM      9  C   UNL     1      48.447   7.773  11.722  0.00  0.00    +0.000 A 
ATOM     10  C   UNL     1      49.735   8.135  12.119  0.00  0.00    +0.000 A 
ATOM     11  C   UNL     1      50.187   7.711  13.355  0.00  0.00    +0.000 A 
ATOM     12  N   UNL     1      49.452   6.958  14.195  0.00  0.00    +0.000 NA
ATOM     13  C   UNL     1      48.208   6.617  13.774  0.00  0.00    +0.000 A 
ENDBRANCH   6   8
ENDBRANCH   1   2
BRANCH   1  14
ATOM     14  O   UNL     1      43.538   3.193  10.307  0.00  0.00    +0.000 OA
BRANCH  14  18
ATOM     15  C   UNL     1      46.441   2.609   7.443  0.00  0.00    +0.000 A 
ATOM     16  C   UNL     1      45.824   3.857   7.556  0.00  0.00    +0.000 A 
ATOM     17  C   UNL     1      44.839   4.044   8.529  0.00  0.00    +0.000 A 
ATOM     18  C   UNL     1      44.515   2.979   9.355  0.00  0.00    +0.000 A 
ATOM     19  N   UNL     1      45.096   1.764   9.269  0.00  0.00    +0.000 NA
ATOM     20  C   UNL     1      46.038   1.602   8.308  0.00  0.00    +0.000 A 
BRANCH  15  22
ATOM     21  N   UNL     1      47.510   3.041   5.302  0.00  0.00    +0.000 N 
ATOM     22  C   UNL     1      47.480   2.290   6.443  0.00  0.00    +0.000 C 
ATOM     23  O   UNL     1      48.308   1.413   6.644  0.00  0.00    +0.000 OA
ATOM     24  H   UNL     1      48.302   2.879   4.691  0.00  0.00    +0.000 HD
ATOM     25  H   UNL     1      47.026   3.923   5.214  0.00  0.00    +0.000 HD
ENDBRANCH  15  22
ENDBRANCH  14  18
ENDBRANCH   1  14
TORSDOF 5
ENDMDL
MODEL 5
REMARK VINA RESULT:    -7.661      2.501      6.686
REMARK INTER + INTRA:         -10.677
REMARK INTER:                  -9.944
REMARK INTRA:                  -0.734
REMARK UNBOUND:                -0.777
REMARK  Name = 
REMARK  5 active torsions:
REMARK  status: ('A' for Active; 'I' for Inactive)
REMARK    1  A    between atoms: C_2  and  C_4
REMARK    2  A    between atoms: C_7  and  O_8
REMARK    3  A    between atoms: O_8  and  C_9
REMARK    4  A    between atoms: C_9  and  C_10
REMARK    5  A    between atoms: C_14  and  C_15
REMARK                            x       y       z     vdW  Elec       q    Type
REMARK                         _______ _______ _______ _____ _____    ______ ____
ROOT
ATOM      1  C   UNL     1      43.892   6.185  11.338  0.00  0.00    +0.000 C 
ENDROOT
BRANCH   1   2
ATOM      2  C   UNL     1      44.026   4.781  10.805  0.00  0.00    +0.000 A 
ATOM      3  C   UNL     1      43.312   3.759  11.418  0.00  0.00    +0.000 A 
ATOM      4  N   UNL     1      43.369   2.466  11.041  0.00  0.00    +0.000 NA
ATOM      5  C   UNL     1      44.187   2.173  10.002  0.00  0.00    +0.000 A 
ATOM      6  C   UNL     1      44.952   3.101   9.290  0.00  0.00    +0.000 A 
ATOM      7  C   UNL     1      44.843   4.433   9.724  0.00  0.00    +0.000 A 
BRANCH   6   8
ATOM      8  C   UNL     1      45.821   2.712   8.162  0.00  0.00    +0.000 A 
ATOM      9  C   UNL     1      46.133   3.591   7.114  0.00  0.00    +0.000 A 
ATOM     10  C   UNL     1      46.964   3.187   6.068  0.00  0.00    +0.000 A 
ATOM     11  C   UNL     1      47.478   1.904   6.093  0.00  0.00    +0.000 A 
ATOM     12  N   UNL     1      47.212   1.018   7.071  0.00  0.00    +0.000 NA
ATOM     13  C   UNL     1      46.393   1.440   8.067  0.00  0.00    +0.000 A 
ENDBRANCH   6   8
ENDBRANCH   1   2
BRANCH   1  14
ATOM     14  O   UNL     1      44.356   6.295  12.689  0.00  0.00    +0.000 OA
BRANCH  14  18
ATOM     15  C   UNL     1      48.278   7.548  12.844  0.00  0.00    +0.000 A 
ATOM     16  C   UNL     1      47.260   8.488  12.664  0.00  0.00    +0.000 A 
ATOM     17  C   UNL     1      45.933   8.052  12.611  0.00  0.00    +0.000 A 
ATOM     18  C   UNL     1      45.676   6.696  12.747  0.00  0.00    +0.000 A 
ATOM     19  N   UNL     1      46.640   5.768  12.922  0.00  0.00    +0.000 NA
ATOM     20  C   UNL     1      47.919   6.213  12.957  0.00  0.00    +0.000 A 
BRANCH  15  22
ATOM     21  N   UNL     1      50.532   7.325  11.961  0.00  0.00    +0.000 N 
ATOM     22  C   UNL     1      49.713   7.889  12.898  0.00  0.00    +0.000 C 
ATOM     23  O   UNL     1      50.149   8.676  13.726  0.00  0.00    +0.000 OA
ATOM     24  H   UNL     1      51.486   7.666  11.949  0.00  0.00    +0.000 HD
ATOM     25  H   UNL     1      50.183   6.889  11.120  0.00  0.00    +0.000 HD
ENDBRANCH  15  22
ENDBRANCH  14  18
ENDBRANCH   1  14
TORSDOF 5
ENDMDL
MODEL 6
REMARK VINA RESULT:    -7.288      2.589      7.205
REMARK INTER + INTRA:         -10.195
REMARK INTER:                  -9.953
REMARK INTRA:                  -0.243
REMARK UNBOUND:                -0.777
REMARK  Name = 
REMARK  5 active torsions:
REMARK  status: ('A' for Active; 'I' for Inactive)
REMARK    1  A    between atoms: C_2  and  C_4
REMARK    2  A    between atoms: C_7  and  O_8
REMARK    3  A    between atoms: O_8  and  C_9
REMARK    4  A    between atoms: C_9  and  C_10
REMARK    5  A    between atoms: C_14  and  C_15
REMARK                            x       y       z     vdW  Elec       q    Type
REMARK                         _______ _______ _______ _____ _____    ______ ____
ROOT
ATOM      1  C   UNL     1      45.077   6.609  11.331  0.00  0.00    +0.000 C 
ENDROOT
BRANCH   1   2
ATOM      2  C   UNL     1      44.779   5.261  10.725  0.00  0.00    +0.000 A 
ATOM      3  C   UNL     1      43.736   4.506  11.247  0.00  0.00    +0.000 A 
ATOM      4  N   UNL     1      43.393   3.281  10.800  0.00  0.00    +0.000 NA
ATOM      5  C   UNL     1      44.133   2.778   9.783  0.00  0.00    +0.000 A 
ATOM      6  C   UNL     1      45.198   3.432   9.159  0.00  0.00    +0.000 A 
ATOM      7  C   UNL     1      45.502   4.708   9.662  0.00  0.00    +0.000 A 
BRANCH   6   8
ATOM      8  C   UNL     1      45.960   2.825   8.050  0.00  0.00    +0.000 A 
ATOM      9  C   UNL     1      46.325   3.546   6.904  0.00  0.00    +0.000 A 
ATOM     10  C   UNL     1      47.051   2.938   5.879  0.00  0.00    +0.000 A 
ATOM     11  C   UNL     1      47.408   1.610   6.023  0.00  0.00    +0.000 A 
ATOM     12  N   UNL     1      47.084   0.868   7.099  0.00  0.00    +0.000 NA
ATOM     13  C   UNL     1      46.370   1.488   8.072  0.00  0.00    +0.000 A 
ENDBRANCH   6   8
ENDBRANCH   1   2
BRANCH   1  14
ATOM     14  O   UNL     1      46.481   6.824  11.507  0.00  0.00    +0.000 OA
BRANCH  14  18
ATOM     15  C   UNL     1      47.823   5.546  15.187  0.00  0.00    +0.000 A 
ATOM     16  C   UNL     1      48.308   6.742  14.652  0.00  0.00    +0.000 A 
ATOM     17  C   UNL     1      47.848   7.165  13.403  0.00  0.00    +0.000 A 
ATOM     18  C   UNL     1      46.917   6.380  12.740  0.00  0.00    +0.000 A 
ATOM     19  N   UNL     1      46.431   5.222  13.233  0.00  0.00    +0.000 NA
ATOM     20  C   UNL     1      46.903   4.825  14.440  0.00  0.00    +0.000 A 
BRANCH  15  22
ATOM     21  N   UNL     1      47.991   5.732  17.605  0.00  0.00    +0.000 N 
ATOM     22  C   UNL     1      48.249   4.991  16.487  0.00  0.00    +0.000 C 
ATOM     23  O   UNL     1      48.778   3.891  16.566  0.00  0.00    +0.000 OA
ATOM     24  H   UNL     1      48.187   5.277  18.489  0.00  0.00    +0.000 HD
ATOM     25  H   UNL     1      47.339   6.503  17.613  0.00  0.00    +0.000 HD
ENDBRANCH  15  22
ENDBRANCH  14  18
ENDBRANCH   1  14
TORSDOF 5
ENDMDL
MODEL 7
REMARK VINA RESULT:    -6.607      1.575      2.180
REMARK INTER + INTRA:          -9.315
REMARK INTER:                  -8.797
REMARK INTRA:                  -0.518
REMARK UNBOUND:                -0.777
REMARK  Name = 
REMARK  5 active torsions:
REMARK  status: ('A' for Active; 'I' for Inactive)
REMARK    1  A    between atoms: C_2  and  C_4
REMARK    2  A    between atoms: C_7  and  O_8
REMARK    3  A    between atoms: O_8  and  C_9
REMARK    4  A    between atoms: C_9  and  C_10
REMARK    5  A    between atoms: C_14  and  C_15
REMARK                            x       y       z     vdW  Elec       q    Type
REMARK                         _______ _______ _______ _____ _____    ______ ____
ROOT
ATOM      1  C   UNL     1      45.438   6.222  11.159  0.00  0.00    +0.000 C 
ENDROOT
BRANCH   1   2
ATOM      2  C   UNL     1      46.091   5.753  12.434  0.00  0.00    +0.000 A 
ATOM      3  C   UNL     1      45.639   4.582  13.029  0.00  0.00    +0.000 A 
ATOM      4  N   UNL     1      46.132   4.079  14.179  0.00  0.00    +0.000 NA
ATOM      5  C   UNL     1      47.125   4.784  14.771  0.00  0.00    +0.000 A 
ATOM      6  C   UNL     1      47.680   5.968  14.279  0.00  0.00    +0.000 A 
ATOM      7  C   UNL     1      47.131   6.437  13.074  0.00  0.00    +0.000 A 
BRANCH   6   8
ATOM      8  C   UNL     1      48.767   6.683  14.977  0.00  0.00    +0.000 A 
ATOM      9  C   UNL     1      48.883   6.697  16.374  0.00  0.00    +0.000 A 
ATOM     10  C   UNL     1      49.929   7.380  16.997  0.00  0.00    +0.000 A 
ATOM     11  C   UNL     1      50.851   8.036  16.203  0.00  0.00    +0.000 A 
ATOM     12  N   UNL     1      50.789   8.059  14.859  0.00  0.00    +0.000 NA
ATOM     13  C   UNL     1      49.755   7.392  14.287  0.00  0.00    +0.000 A 
ENDBRANCH   6   8
ENDBRANCH   1   2
BRANCH   1  14
ATOM     14  O   UNL     1      44.521   5.255  10.635  0.00  0.00    +0.000 OA
BRANCH  14  18
ATOM     15  C   UNL     1      46.198   2.957   7.655  0.00  0.00    +0.000 A 
ATOM     16  C   UNL     1      45.398   2.351   8.627  0.00  0.00    +0.000 A 
ATOM     17  C   UNL     1      44.835   3.139   9.634  0.00  0.00    +0.000 A 
ATOM     18  C   UNL     1      45.089   4.502   9.627  0.00  0.00    +0.000 A 
ATOM     19  N   UNL     1      45.858   5.113   8.701  0.00  0.00    +0.000 NA
ATOM     20  C   UNL     1      46.404   4.326   7.742  0.00  0.00    +0.000 A 
BRANCH  15  22
ATOM     21  N   UNL     1      47.393   1.001   6.844  0.00  0.00    +0.000 N 
ATOM     22  C   UNL     1      46.858   2.225   6.556  0.00  0.00    +0.000 C 
ATOM     23  O   UNL     1      46.891   2.677   5.421  0.00  0.00    +0.000 OA
ATOM     24  H   UNL     1      47.734   0.472   6.050  0.00  0.00    +0.000 HD
ATOM     25  H   UNL     1      47.164   0.486   7.682  0.00  0.00    +0.000 HD
ENDBRANCH  15  22
ENDBRANCH  14  18
ENDBRANCH   1  14
TORSDOF 5
ENDMDL
MODEL 8
REMARK VINA RESULT:    -6.478      4.926      6.869
REMARK INTER + INTRA:          -9.148
REMARK INTER:                  -8.578
REMARK INTRA:                  -0.571
REMARK UNBOUND:                -0.777
REMARK  Name = 
REMARK  5 active torsions:
REMARK  status: ('A' for Active; 'I' for Inactive)
REMARK    1  A    between atoms: C_2  and  C_4
REMARK    2  A    between atoms: C_7  and  O_8
REMARK    3  A    between atoms: O_8  and  C_9
REMARK    4  A    between atoms: C_9  and  C_10
REMARK    5  A    between atoms: C_14  and  C_15
REMARK                            x       y       z     vdW  Elec       q    Type
REMARK                         _______ _______ _______ _____ _____    ______ ____
ROOT
ATOM      1  C   UNL     1      47.133   3.729  16.002  0.00  0.00    +0.000 C 
ENDROOT
BRANCH   1   2
ATOM      2  C   UNL     1      48.326   4.039  16.870  0.00  0.00    +0.000 A 
ATOM      3  C   UNL     1      48.348   5.234  17.578  0.00  0.00    +0.000 A 
ATOM      4  N   UNL     1      49.369   5.626  18.367  0.00  0.00    +0.000 NA
ATOM      5  C   UNL     1      50.428   4.785  18.451  0.00  0.00    +0.000 A 
ATOM      6  C   UNL     1      50.532   3.551  17.803  0.00  0.00    +0.000 A 
ATOM      7  C   UNL     1      49.434   3.194  17.002  0.00  0.00    +0.000 A 
BRANCH   6   8
ATOM      8  C   UNL     1      51.716   2.681  17.943  0.00  0.00    +0.000 A 
ATOM      9  C   UNL     1      51.755   1.374  17.433  0.00  0.00    +0.000 A 
ATOM     10  C   UNL     1      52.896   0.585  17.580  0.00  0.00    +0.000 A 
ATOM     11  C   UNL     1      53.989   1.123  18.232  0.00  0.00    +0.000 A 
ATOM     12  N   UNL     1      54.010   2.369  18.742  0.00  0.00    +0.000 NA
ATOM     13  C   UNL     1      52.880   3.106  18.590  0.00  0.00    +0.000 A 
ENDBRANCH   6   8
ENDBRANCH   1   2
BRANCH   1  14
ATOM     14  O   UNL     1      47.514   3.359  14.672  0.00  0.00    +0.000 OA
BRANCH  14  18
ATOM     15  C   UNL     1      44.859   4.834  11.889  0.00  0.00    +0.000 A 
ATOM     16  C   UNL     1      45.588   5.720  12.685  0.00  0.00    +0.000 A 
ATOM     17  C   UNL     1      46.484   5.210  13.628  0.00  0.00    +0.000 A 
ATOM     18  C   UNL     1      46.622   3.834  13.732  0.00  0.00    +0.000 A 
ATOM     19  N   UNL     1      45.932   2.956  12.975  0.00  0.00    +0.000 NA
ATOM     20  C   UNL     1      45.058   3.474  12.078  0.00  0.00    +0.000 A 
BRANCH  15  22
ATOM     21  N   UNL     1      44.008   4.751   9.613  0.00  0.00    +0.000 N 
ATOM     22  C   UNL     1      43.873   5.256  10.875  0.00  0.00    +0.000 C 
ATOM     23  O   UNL     1      42.945   6.000  11.161  0.00  0.00    +0.000 OA
ATOM     24  H   UNL     1      43.253   4.964   8.971  0.00  0.00    +0.000 HD
ATOM     25  H   UNL     1      44.586   3.951   9.402  0.00  0.00    +0.000 HD
ENDBRANCH  15  22
ENDBRANCH  14  18
ENDBRANCH   1  14
TORSDOF 5
ENDMDL
MODEL 9
REMARK VINA RESULT:    -6.303      4.197      8.431
REMARK INTER + INTRA:          -8.922
REMARK INTER:                  -8.280
REMARK INTRA:                  -0.643
REMARK UNBOUND:                -0.777
REMARK  Name = 
REMARK  5 active torsions:
REMARK  status: ('A' for Active; 'I' for Inactive)
REMARK    1  A    between atoms: C_2  and  C_4
REMARK    2  A    between atoms: C_7  and  O_8
REMARK    3  A    between atoms: O_8  and  C_9
REMARK    4  A    between atoms: C_9  and  C_10
REMARK    5  A    between atoms: C_14  and  C_15
REMARK                            x       y       z     vdW  Elec       q    Type
REMARK                         _______ _______ _______ _____ _____    ______ ____
ROOT
ATOM      1  C   UNL     1      48.300   7.419  14.176  0.00  0.00    +0.000 C 
ENDROOT
BRANCH   1   2
ATOM      2  C   UNL     1      47.130   7.399  13.226  0.00  0.00    +0.000 A 
ATOM      3  C   UNL     1      46.302   8.513  13.157  0.00  0.00    +0.000 A 
ATOM      4  N   UNL     1      45.217   8.601  12.362  0.00  0.00    +0.000 NA
ATOM      5  C   UNL     1      44.938   7.518  11.597  0.00  0.00    +0.000 A 
ATOM      6  C   UNL     1      45.689   6.341  11.559  0.00  0.00    +0.000 A 
ATOM      7  C   UNL     1      46.812   6.313  12.403  0.00  0.00    +0.000 A 
BRANCH   6   8
ATOM      8  C   UNL     1      45.328   5.199  10.696  0.00  0.00    +0.000 A 
ATOM      9  C   UNL     1      45.598   5.180   9.320  0.00  0.00    +0.000 A 
ATOM     10  C   UNL     1      45.246   4.079   8.538  0.00  0.00    +0.000 A 
ATOM     11  C   UNL     1      44.634   3.003   9.155  0.00  0.00    +0.000 A 
ATOM     12  N   UNL     1      44.350   2.965  10.470  0.00  0.00    +0.000 NA
ATOM     13  C   UNL     1      44.696   4.057  11.198  0.00  0.00    +0.000 A 
ENDBRANCH   6   8
ENDBRANCH   1   2
BRANCH   1  14
ATOM     14  O   UNL     1      48.738   6.099  14.519  0.00  0.00    +0.000 OA
BRANCH  14  18
ATOM     15  C   UNL     1      48.182   5.275  18.517  0.00  0.00    +0.000 A 
ATOM     16  C   UNL     1      47.518   4.510  17.556  0.00  0.00    +0.000 A 
ATOM     17  C   UNL     1      47.711   4.799  16.203  0.00  0.00    +0.000 A 
ATOM     18  C   UNL     1      48.567   5.836  15.864  0.00  0.00    +0.000 A 
ATOM     19  N   UNL     1      49.222   6.590  16.772  0.00  0.00    +0.000 NA
ATOM     20  C   UNL     1      49.008   6.300  18.078  0.00  0.00    +0.000 A 
BRANCH  15  22
ATOM     21  N   UNL     1      48.596   3.947  20.512  0.00  0.00    +0.000 N 
ATOM     22  C   UNL     1      48.041   5.073  19.973  0.00  0.00    +0.000 C 
ATOM     23  O   UNL     1      47.484   5.902  20.679  0.00  0.00    +0.000 OA
ATOM     24  H   UNL     1      48.586   3.893  21.524  0.00  0.00    +0.000 HD
ATOM     25  H   UNL     1      49.275   3.382  20.022  0.00  0.00    +0.000 HD
ENDBRANCH  15  22
ENDBRANCH  14  18
ENDBRANCH   1  14
TORSDOF 5
ENDMDL
