MODEL 1
REMARK VINA RESULT:    -8.168      0.000      0.000
REMARK INTER + INTRA:         -12.006
REMARK INTER:                 -11.510
REMARK INTRA:                  -0.496
REMARK UNBOUND:                -0.496
REMARK  Name = 
REMARK  8 active torsions:
REMARK  status: ('A' for Active; 'I' for Inactive)
REMARK    1  A    between atoms: C_1  and  C_2
REMARK    2  A    between atoms: C_2  and  O_3
REMARK    3  A    between atoms: O_3  and  C_4
REMARK    4  A    between atoms: C_8  and  C_9
REMARK    5  A    between atoms: C_9  and  C_10
REMARK    6  A    between atoms: C_10  and  N_11
REMARK    7  A    between atoms: N_11  and  C_12
REMARK    8  A    between atoms: C_15  and  C_16
REMARK                            x       y       z     vdW  Elec       q    Type
REMARK                         _______ _______ _______ _____ _____    ______ ____
ROOT
ATOM      1  C   UNL     1      43.353   4.199  11.462  0.00  0.00    +0.000 C 
ENDROOT
BRANCH   1   2
ATOM      2  N   UNL     1      43.746   4.741  10.156  0.00  0.00    +0.000 N 
ATOM      3  H   UNL     1      44.023   5.719  10.209  0.00  0.00    +0.000 HD
BRANCH   2   4
ATOM      4  C   UNL     1      44.671   3.982   9.410  0.00  0.00    +0.000 A 
ATOM      5  C   UNL     1      44.750   2.588   9.486  0.00  0.00    +0.000 A 
ATOM      6  C   UNL     1      45.638   1.875   8.680  0.00  0.00    +0.000 A 
ATOM      7  C   UNL     1      46.414   2.581   7.776  0.00  0.00    +0.000 A 
ATOM      8  N   UNL     1      46.352   3.931   7.621  0.00  0.00    +0.000 NA
ATOM      9  C   UNL     1      45.468   4.579   8.427  0.00  0.00    +0.000 A 
BRANCH   7  10
ATOM     10  C   UNL     1      47.379   1.836   6.907  0.00  0.00    +0.000 C 
ATOM     11  N   UNL     1      48.462   2.553   6.482  0.00  0.00    +0.000 N 
ATOM     12  O   UNL     1      47.218   0.663   6.591  0.00  0.00    +0.000 OA
ATOM     13  H   UNL     1      48.554   3.526   6.751  0.00  0.00    +0.000 HD
ATOM     14  H   UNL     1      49.142   2.118   5.875  0.00  0.00    +0.000 HD
ENDBRANCH   7  10
ENDBRANCH   2   4
ENDBRANCH   1   2
BRANCH   1  15
ATOM     15  C   UNL     1      43.395   5.262  12.566  0.00  0.00    +0.000 C 
BRANCH  15  20
ATOM     16  C   UNL     1      46.954   4.948  13.942  0.00  0.00    +0.000 A 
ATOM     17  C   UNL     1      47.563   6.052  13.352  0.00  0.00    +0.000 A 
ATOM     18  C   UNL     1      46.815   6.929  12.564  0.00  0.00    +0.000 A 
ATOM     19  C   UNL     1      45.458   6.699  12.346  0.00  0.00    +0.000 A 
ATOM     20  C   UNL     1      44.834   5.580  12.911  0.00  0.00    +0.000 A 
ATOM     21  C   UNL     1      45.592   4.712  13.714  0.00  0.00    +0.000 A 
BRANCH  16  22
ATOM     22  O   UNL     1      47.585   4.022  14.737  0.00  0.00    +0.000 OA
BRANCH  22  24
ATOM     23  C   UNL     1      48.621   5.609  16.297  0.00  0.00    +0.000 C 
ATOM     24  C   UNL     1      47.855   4.298  16.142  0.00  0.00    +0.000 C 
ATOM     25  C   UNL     1      46.750   3.993  17.183  0.00  0.00    +0.000 C 
ATOM     26  O   UNL     1      47.403   2.772  17.599  0.00  0.00    +0.000 OA
ATOM     27  C   UNL     1      48.592   3.141  16.864  0.00  0.00    +0.000 C 
ENDBRANCH  22  24
ENDBRANCH  16  22
ENDBRANCH  15  20
ENDBRANCH   1  15
TORSDOF 7
ENDMDL
MODEL 2
REMARK VINA RESULT:    -7.612      1.962      2.477
REMARK INTER + INTRA:         -11.224
REMARK INTER:                 -10.388
REMARK INTRA:                  -0.836
REMARK UNBOUND:                -0.496
REMARK  Name = 
REMARK  8 active torsions:
REMARK  status: ('A' for Active; 'I' for Inactive)
REMARK    1  A    between atoms: C_1  and  C_2
REMARK    2  A    between atoms: C_2  and  O_3
REMARK    3  A    between atoms: O_3  and  C_4
REMARK    4  A    between atoms: C_8  and  C_9
REMARK    5  A    between atoms: C_9  and  C_10
REMARK    6  A    between atoms: C_10  and  N_11
REMARK    7  A    between atoms: N_11  and  C_12
REMARK    8  A    between atoms: C_15  and  C_16
REMARK                            x       y       z     vdW  Elec       q    Type
REMARK                         _______ _______ _______ _____ _____    ______ ____
ROOT
ATOM      1  C   UNL     1      44.340   5.598  11.049  0.00  0.00    +0.000 C 
ENDROOT
BRANCH   1   2
ATOM      2  N   UNL     1      43.781   4.490  10.265  0.00  0.00    +0.000 N 
ATOM      3  H   UNL     1      42.906   4.740   9.809  0.00  0.00    +0.000 HD
BRANCH   2   4
ATOM      4  C   UNL     1      44.660   3.840   9.375  0.00  0.00    +0.000 A 
ATOM      5  C   UNL     1      45.522   4.529   8.517  0.00  0.00    +0.000 A 
ATOM      6  C   UNL     1      46.421   3.842   7.700  0.00  0.00    +0.000 A 
ATOM      7  C   UNL     1      46.463   2.461   7.788  0.00  0.00    +0.000 A 
ATOM      8  N   UNL     1      45.684   1.734   8.634  0.00  0.00    +0.000 NA
ATOM      9  C   UNL     1      44.828   2.451   9.412  0.00  0.00    +0.000 A 
BRANCH   7  10
ATOM     10  C   UNL     1      47.414   1.704   6.914  0.00  0.00    +0.000 C 
ATOM     11  N   UNL     1      48.456   2.431   6.411  0.00  0.00    +0.000 N 
ATOM     12  O   UNL     1      47.276   0.513   6.658  0.00  0.00    +0.000 OA
ATOM     13  H   UNL     1      48.529   3.418   6.631  0.00  0.00    +0.000 HD
ATOM     14  H   UNL     1      49.124   1.987   5.797  0.00  0.00    +0.000 HD
ENDBRANCH   7  10
ENDBRANCH   2   4
ENDBRANCH   1   2
BRANCH   1  15
ATOM     15  C   UNL     1      45.058   5.111  12.311  0.00  0.00    +0.000 C 
BRANCH  15  20
ATOM     16  C   UNL     1      48.358   6.372  13.787  0.00  0.00    +0.000 A 
ATOM     17  C   UNL     1      48.832   7.159  12.740  0.00  0.00    +0.000 A 
ATOM     18  C   UNL     1      48.061   7.334  11.589  0.00  0.00    +0.000 A 
ATOM     19  C   UNL     1      46.822   6.708  11.468  0.00  0.00    +0.000 A 
ATOM     20  C   UNL     1      46.341   5.892  12.500  0.00  0.00    +0.000 A 
ATOM     21  C   UNL     1      47.118   5.735  13.660  0.00  0.00    +0.000 A 
BRANCH  16  22
ATOM     22  O   UNL     1      49.025   6.132  14.965  0.00  0.00    +0.000 OA
BRANCH  22  24
ATOM     23  C   UNL     1      51.064   7.415  15.431  0.00  0.00    +0.000 C 
ATOM     24  C   UNL     1      49.583   7.226  15.747  0.00  0.00    +0.000 C 
ATOM     25  C   UNL     1      48.730   8.503  15.950  0.00  0.00    +0.000 C 
ATOM     26  O   UNL     1      48.368   8.113  17.295  0.00  0.00    +0.000 OA
ATOM     27  C   UNL     1      49.362   7.063  17.273  0.00  0.00    +0.000 C 
ENDBRANCH  22  24
ENDBRANCH  16  22
ENDBRANCH  15  20
ENDBRANCH   1  15
TORSDOF 7
ENDMDL
MODEL 3
REMARK VINA RESULT:    -7.547      2.373      3.627
REMARK INTER + INTRA:         -11.132
REMARK INTER:                 -10.392
REMARK INTRA:                  -0.740
REMARK UNBOUND:                -0.496
REMARK  Name = 
REMARK  8 active torsions:
REMARK  status: ('A' for Active; 'I' for Inactive)
REMARK    1  A    between atoms: C_1  and  C_2
REMARK    2  A    between atoms: C_2  and  O_3
REMARK    3  A    between atoms: O_3  and  C_4
REMARK    4  A    between atoms: C_8  and  C_9
REMARK    5  A    between atoms: C_9  and  C_10
REMARK    6  A    between atoms: C_10  and  N_11
REMARK    7  A    between atoms: N_11  and  C_12
REMARK    8  A    between atoms: C_15  and  C_16
REMARK                            x       y       z     vdW  Elec       q    Type
REMARK                         _______ _______ _______ _____ _____    ______ ____
ROOT
ATOM      1  C   UNL     1      43.401   5.123  10.644  0.00  0.00    +0.000 C 
ENDROOT
BRANCH   1   2
ATOM      2  N   UNL     1      43.681   3.690  10.501  0.00  0.00    +0.000 N 
ATOM      3  H   UNL     1      42.832   3.137  10.398  0.00  0.00    +0.000 HD
BRANCH   2   4
ATOM      4  C   UNL     1      44.651   3.328   9.544  0.00  0.00    +0.000 A 
ATOM      5  C   UNL     1      45.050   2.007   9.324  0.00  0.00    +0.000 A 
ATOM      6  C   UNL     1      45.966   1.691   8.320  0.00  0.00    +0.000 A 
ATOM      7  C   UNL     1      46.443   2.717   7.523  0.00  0.00    +0.000 A 
ATOM      8  N   UNL     1      46.062   4.016   7.655  0.00  0.00    +0.000 NA
ATOM      9  C   UNL     1      45.163   4.271   8.645  0.00  0.00    +0.000 A 
BRANCH   7  10
ATOM     10  C   UNL     1      47.434   2.402   6.445  0.00  0.00    +0.000 C 
ATOM     11  N   UNL     1      47.347   3.176   5.321  0.00  0.00    +0.000 N 
ATOM     12  O   UNL     1      48.268   1.511   6.551  0.00  0.00    +0.000 OA
ATOM     13  H   UNL     1      46.633   3.892   5.263  0.00  0.00    +0.000 HD
ATOM     14  H   UNL     1      47.971   3.002   4.547  0.00  0.00    +0.000 HD
ENDBRANCH   7  10
ENDBRANCH   2   4
ENDBRANCH   1   2
BRANCH   1  15
ATOM     15  C   UNL     1      43.556   5.602  12.091  0.00  0.00    +0.000 C 
BRANCH  15  20
ATOM     16  C   UNL     1      47.241   6.627  12.263  0.00  0.00    +0.000 A 
ATOM     17  C   UNL     1      47.685   5.838  13.321  0.00  0.00    +0.000 A 
ATOM     18  C   UNL     1      46.816   4.933  13.935  0.00  0.00    +0.000 A 
ATOM     19  C   UNL     1      45.494   4.825  13.509  0.00  0.00    +0.000 A 
ATOM     20  C   UNL     1      45.023   5.628  12.464  0.00  0.00    +0.000 A 
ATOM     21  C   UNL     1      45.909   6.524  11.843  0.00  0.00    +0.000 A 
BRANCH  16  22
ATOM     22  O   UNL     1      48.003   7.545  11.583  0.00  0.00    +0.000 OA
BRANCH  22  24
ATOM     23  C   UNL     1      47.153   9.793  12.079  0.00  0.00    +0.000 C 
ATOM     24  C   UNL     1      48.335   8.832  12.177  0.00  0.00    +0.000 C 
ATOM     25  C   UNL     1      49.162   8.854  13.486  0.00  0.00    +0.000 C 
ATOM     26  O   UNL     1      50.375   9.197  12.778  0.00  0.00    +0.000 OA
ATOM     27  C   UNL     1      49.615   9.472  11.580  0.00  0.00    +0.000 C 
ENDBRANCH  22  24
ENDBRANCH  16  22
ENDBRANCH  15  20
ENDBRANCH   1  15
TORSDOF 7
ENDMDL
MODEL 4
REMARK VINA RESULT:    -7.156      2.537      3.557
REMARK INTER + INTRA:         -10.581
REMARK INTER:                 -10.028
REMARK INTRA:                  -0.553
REMARK UNBOUND:                -0.496
REMARK  Name = 
REMARK  8 active torsions:
REMARK  status: ('A' for Active; 'I' for Inactive)
REMARK    1  A    between atoms: C_1  and  C_2
REMARK    2  A    between atoms: C_2  and  O_3
REMARK    3  A    between atoms: O_3  and  C_4
REMARK    4  A    between atoms: C_8  and  C_9
REMARK    5  A    between atoms: C_9  and  C_10
REMARK    6  A    between atoms: C_10  and  N_11
REMARK    7  A    between atoms: N_11  and  C_12
REMARK    8  A    between atoms: C_15  and  C_16
REMARK                            x       y       z     vdW  Elec       q    Type
REMARK                         _______ _______ _______ _____ _____    ______ ____
ROOT
ATOM      1  C   UNL     1      43.973   4.993  11.419  0.00  0.00    +0.000 C 
ENDROOT
BRANCH   1   2
ATOM      2  N   UNL     1      43.798   4.929   9.963  0.00  0.00    +0.000 N 
ATOM      3  H   UNL     1      43.726   5.853   9.541  0.00  0.00    +0.000 HD
BRANCH   2   4
ATOM      4  C   UNL     1      44.697   4.106   9.256  0.00  0.00    +0.000 A 
ATOM      5  C   UNL     1      44.694   2.711   9.356  0.00  0.00    +0.000 A 
ATOM      6  C   UNL     1      45.560   1.934   8.586  0.00  0.00    +0.000 A 
ATOM      7  C   UNL     1      46.398   2.578   7.692  0.00  0.00    +0.000 A 
ATOM      8  N   UNL     1      46.418   3.927   7.513  0.00  0.00    +0.000 NA
ATOM      9  C   UNL     1      45.552   4.639   8.284  0.00  0.00    +0.000 A 
BRANCH   7  10
ATOM     10  C   UNL     1      47.341   1.764   6.862  0.00  0.00    +0.000 C 
ATOM     11  N   UNL     1      48.408   2.446   6.344  0.00  0.00    +0.000 N 
ATOM     12  O   UNL     1      47.177   0.569   6.651  0.00  0.00    +0.000 OA
ATOM     13  H   UNL     1      48.502   3.438   6.527  0.00  0.00    +0.000 HD
ATOM     14  H   UNL     1      49.071   1.962   5.757  0.00  0.00    +0.000 HD
ENDBRANCH   7  10
ENDBRANCH   2   4
ENDBRANCH   1   2
BRANCH   1  15
ATOM     15  C   UNL     1      45.445   4.883  11.831  0.00  0.00    +0.000 C 
BRANCH  15  20
ATOM     16  C   UNL     1      47.687   7.619  13.296  0.00  0.00    +0.000 A 
ATOM     17  C   UNL     1      46.804   8.695  13.329  0.00  0.00    +0.000 A 
ATOM     18  C   UNL     1      45.473   8.523  12.941  0.00  0.00    +0.000 A 
ATOM     19  C   UNL     1      45.023   7.281  12.499  0.00  0.00    +0.000 A 
ATOM     20  C   UNL     1      45.904   6.194  12.434  0.00  0.00    +0.000 A 
ATOM     21  C   UNL     1      47.236   6.374  12.842  0.00  0.00    +0.000 A 
BRANCH  16  22
ATOM     22  O   UNL     1      49.013   7.669  13.656  0.00  0.00    +0.000 OA
BRANCH  22  24
ATOM     23  C   UNL     1      50.034   7.969  11.445  0.00  0.00    +0.000 C 
ATOM     24  C   UNL     1      49.969   8.455  12.891  0.00  0.00    +0.000 C 
ATOM     25  C   UNL     1      50.034   9.984  13.130  0.00  0.00    +0.000 C 
ATOM     26  O   UNL     1      51.225   9.861  13.940  0.00  0.00    +0.000 OA
ATOM     27  C   UNL     1      51.384   8.486  13.524  0.00  0.00    +0.000 C 
ENDBRANCH  22  24
ENDBRANCH  16  22
ENDBRANCH  15  20
ENDBRANCH   1  15
TORSDOF 7
ENDMDL
MODEL 5
REMARK VINA RESULT:    -6.625      2.845      4.326
REMARK INTER + INTRA:          -9.833
REMARK INTER:                  -8.912
REMARK INTRA:                  -0.920
REMARK UNBOUND:                -0.496
REMARK  Name = 
REMARK  8 active torsions:
REMARK  status: ('A' for Active; 'I' for Inactive)
REMARK    1  A    between atoms: C_1  and  C_2
REMARK    2  A    between atoms: C_2  and  O_3
REMARK    3  A    between atoms: O_3  and  C_4
REMARK    4  A    between atoms: C_8  and  C_9
REMARK    5  A    between atoms: C_9  and  C_10
REMARK    6  A    between atoms: C_10  and  N_11
REMARK    7  A    between atoms: N_11  and  C_12
REMARK    8  A    between atoms: C_15  and  C_16
REMARK                            x       y       z     vdW  Elec       q    Type
REMARK                         _______ _______ _______ _____ _____    ______ ____
ROOT
ATOM      1  C   UNL     1      46.795   8.438  12.526  0.00  0.00    +0.000 C 
ENDROOT
BRANCH   1   2
ATOM      2  N   UNL     1      45.725   7.776  13.282  0.00  0.00    +0.000 N 
ATOM      3  H   UNL     1      44.980   8.420  13.543  0.00  0.00    +0.000 HD
BRANCH   2   4
ATOM      4  C   UNL     1      45.209   6.585  12.733  0.00  0.00    +0.000 A 
ATOM      5  C   UNL     1      44.662   6.511  11.449  0.00  0.00    +0.000 A 
ATOM      6  C   UNL     1      44.223   5.295  10.925  0.00  0.00    +0.000 A 
ATOM      7  C   UNL     1      44.377   4.155  11.696  0.00  0.00    +0.000 A 
ATOM      8  N   UNL     1      44.942   4.152  12.933  0.00  0.00    +0.000 NA
ATOM      9  C   UNL     1      45.358   5.362  13.397  0.00  0.00    +0.000 A 
BRANCH   7  10
ATOM     10  C   UNL     1      43.905   2.841  11.155  0.00  0.00    +0.000 C 
ATOM     11  N   UNL     1      44.595   2.368  10.074  0.00  0.00    +0.000 N 
ATOM     12  O   UNL     1      42.964   2.224  11.639  0.00  0.00    +0.000 OA
ATOM     13  H   UNL     1      45.358   2.914   9.690  0.00  0.00    +0.000 HD
ATOM     14  H   UNL     1      44.316   1.497   9.646  0.00  0.00    +0.000 HD
ENDBRANCH   7  10
ENDBRANCH   2   4
ENDBRANCH   1   2
BRANCH   1  15
ATOM     15  C   UNL     1      48.165   7.803  12.785  0.00  0.00    +0.000 C 
BRANCH  15  20
ATOM     16  C   UNL     1      49.051   6.346  16.213  0.00  0.00    +0.000 A 
ATOM     17  C   UNL     1      49.047   7.496  16.998  0.00  0.00    +0.000 A 
ATOM     18  C   UNL     1      48.698   8.727  16.438  0.00  0.00    +0.000 A 
ATOM     19  C   UNL     1      48.370   8.819  15.086  0.00  0.00    +0.000 A 
ATOM     20  C   UNL     1      48.394   7.677  14.276  0.00  0.00    +0.000 A 
ATOM     21  C   UNL     1      48.731   6.442  14.853  0.00  0.00    +0.000 A 
BRANCH  16  22
ATOM     22  O   UNL     1      49.371   5.084  16.654  0.00  0.00    +0.000 OA
BRANCH  22  24
ATOM     23  C   UNL     1      49.345   4.381  19.005  0.00  0.00    +0.000 C 
ATOM     24  C   UNL     1      48.581   4.426  17.685  0.00  0.00    +0.000 C 
ATOM     25  C   UNL     1      47.061   4.717  17.753  0.00  0.00    +0.000 C 
ATOM     26  O   UNL     1      46.737   3.461  17.113  0.00  0.00    +0.000 OA
ATOM     27  C   UNL     1      48.100   3.009  17.278  0.00  0.00    +0.000 C 
ENDBRANCH  22  24
ENDBRANCH  16  22
ENDBRANCH  15  20
ENDBRANCH   1  15
TORSDOF 7
ENDMDL
MODEL 6
REMARK VINA RESULT:    -6.590      3.790      7.403
REMARK INTER + INTRA:          -9.784
REMARK INTER:                  -8.513
REMARK INTRA:                  -1.271
REMARK UNBOUND:                -0.496
REMARK  Name = 
REMARK  8 active torsions:
REMARK  status: ('A' for Active; 'I' for Inactive)
REMARK    1  A    between atoms: C_1  and  C_2
REMARK    2  A    between atoms: C_2  and  O_3
REMARK    3  A    between atoms: O_3  and  C_4
REMARK    4  A    between atoms: C_8  and  C_9
REMARK    5  A    between atoms: C_9  and  C_10
REMARK    6  A    between atoms: C_10  and  N_11
REMARK    7  A    between atoms: N_11  and  C_12
REMARK    8  A    between atoms: C_15  and  C_16
REMARK                            x       y       z     vdW  Elec       q    Type
REMARK                         _______ _______ _______ _____ _____    ______ ____
ROOT
ATOM      1  C   UNL     1      49.792   7.460  13.196  0.00  0.00    +0.000 C 
ENDROOT
BRANCH   1   2
ATOM      2  N   UNL     1      49.507   7.757  14.605  0.00  0.00    +0.000 N 
ATOM      3  H   UNL     1      48.975   8.618  14.719  0.00  0.00    +0.000 HD
BRANCH   2   4
ATOM      4  C   UNL     1      48.965   6.708  15.374  0.00  0.00    +0.000 A 
ATOM      5  C   UNL     1      47.972   5.848  14.897  0.00  0.00    +0.000 A 
ATOM      6  C   UNL     1      47.513   4.782  15.672  0.00  0.00    +0.000 A 
ATOM      7  C   UNL     1      48.092   4.577  16.913  0.00  0.00    +0.000 A 
ATOM      8  N   UNL     1      49.092   5.349  17.416  0.00  0.00    +0.000 NA
ATOM      9  C   UNL     1      49.508   6.372  16.619  0.00  0.00    +0.000 A 
BRANCH   7  10
ATOM     10  C   UNL     1      47.608   3.445  17.764  0.00  0.00    +0.000 C 
ATOM     11  N   UNL     1      48.381   3.156  18.854  0.00  0.00    +0.000 N 
ATOM     12  O   UNL     1      46.591   2.811  17.509  0.00  0.00    +0.000 OA
ATOM     13  H   UNL     1      49.224   3.692  19.024  0.00  0.00    +0.000 HD
ATOM     14  H   UNL     1      48.123   2.390  19.459  0.00  0.00    +0.000 HD
ENDBRANCH   7  10
ENDBRANCH   2   4
ENDBRANCH   1   2
BRANCH   1  15
ATOM     15  C   UNL     1      49.111   8.451  12.246  0.00  0.00    +0.000 C 
BRANCH  15  20
ATOM     16  C   UNL     1      45.897   6.541  11.427  0.00  0.00    +0.000 A 
ATOM     17  C   UNL     1      44.948   7.334  12.067  0.00  0.00    +0.000 A 
ATOM     18  C   UNL     1      45.335   8.513  12.706  0.00  0.00    +0.000 A 
ATOM     19  C   UNL     1      46.674   8.898  12.726  0.00  0.00    +0.000 A 
ATOM     20  C   UNL     1      47.645   8.100  12.110  0.00  0.00    +0.000 A 
ATOM     21  C   UNL     1      47.243   6.923  11.456  0.00  0.00    +0.000 A 
BRANCH  16  22
ATOM     22  O   UNL     1      45.633   5.365  10.765  0.00  0.00    +0.000 OA
BRANCH  22  24
ATOM     23  C   UNL     1      45.683   3.899  12.732  0.00  0.00    +0.000 C 
ATOM     24  C   UNL     1      44.963   4.261  11.435  0.00  0.00    +0.000 C 
ATOM     25  C   UNL     1      43.414   4.231  11.451  0.00  0.00    +0.000 C 
ATOM     26  O   UNL     1      43.369   3.239  10.400  0.00  0.00    +0.000 OA
ATOM     27  C   UNL     1      44.790   3.011  10.535  0.00  0.00    +0.000 C 
ENDBRANCH  22  24
ENDBRANCH  16  22
ENDBRANCH  15  20
ENDBRANCH   1  15
TORSDOF 7
ENDMDL
MODEL 7
REMARK VINA RESULT:    -6.517      2.816      7.324
REMARK INTER + INTRA:          -9.681
REMARK INTER:                  -8.839
REMARK INTRA:                  -0.841
REMARK UNBOUND:                -0.496
REMARK  Name = 
REMARK  8 active torsions:
REMARK  status: ('A' for Active; 'I' for Inactive)
REMARK    1  A    between atoms: C_1  and  C_2
REMARK    2  A    between atoms: C_2  and  O_3
REMARK    3  A    between atoms: O_3  and  C_4
REMARK    4  A    between atoms: C_8  and  C_9
REMARK    5  A    between atoms: C_9  and  C_10
REMARK    6  A    between atoms: C_10  and  N_11
REMARK    7  A    between atoms: N_11  and  C_12
REMARK    8  A    between atoms: C_15  and  C_16
REMARK                            x       y       z     vdW  Elec       q    Type
REMARK                         _______ _______ _______ _____ _____    ______ ____
ROOT
ATOM      1  C   UNL     1      45.964   7.783  12.925  0.00  0.00    +0.000 C 
ENDROOT
BRANCH   1   2
ATOM      2  N   UNL     1      47.271   7.116  12.898  0.00  0.00    +0.000 N 
ATOM      3  H   UNL     1      48.042   7.777  12.820  0.00  0.00    +0.000 HD
BRANCH   2   4
ATOM      4  C   UNL     1      47.512   6.159  13.904  0.00  0.00    +0.000 A 
ATOM      5  C   UNL     1      48.162   6.461  15.104  0.00  0.00    +0.000 A 
ATOM      6  C   UNL     1      48.320   5.494  16.098  0.00  0.00    +0.000 A 
ATOM      7  C   UNL     1      47.784   4.236  15.880  0.00  0.00    +0.000 A 
ATOM      8  N   UNL     1      47.102   3.891  14.755  0.00  0.00    +0.000 NA
ATOM      9  C   UNL     1      46.971   4.870  13.818  0.00  0.00    +0.000 A 
BRANCH   7  10
ATOM     10  C   UNL     1      47.950   3.182  16.930  0.00  0.00    +0.000 C 
ATOM     11  N   UNL     1      47.200   3.354  18.060  0.00  0.00    +0.000 N 
ATOM     12  O   UNL     1      48.705   2.226  16.797  0.00  0.00    +0.000 OA
ATOM     13  H   UNL     1      46.598   4.166  18.141  0.00  0.00    +0.000 HD
ATOM     14  H   UNL     1      47.279   2.691  18.817  0.00  0.00    +0.000 HD
ENDBRANCH   7  10
ENDBRANCH   2   4
ENDBRANCH   1   2
BRANCH   1  15
ATOM     15  C   UNL     1      45.275   7.763  11.556  0.00  0.00    +0.000 C 
BRANCH  15  20
ATOM     16  C   UNL     1      44.772   4.081  10.634  0.00  0.00    +0.000 A 
ATOM     17  C   UNL     1      43.496   3.854  11.140  0.00  0.00    +0.000 A 
ATOM     18  C   UNL     1      42.774   4.900  11.721  0.00  0.00    +0.000 A 
ATOM     19  C   UNL     1      43.332   6.173  11.815  0.00  0.00    +0.000 A 
ATOM     20  C   UNL     1      44.624   6.414  11.334  0.00  0.00    +0.000 A 
ATOM     21  C   UNL     1      45.335   5.359  10.739  0.00  0.00    +0.000 A 
BRANCH  16  22
ATOM     22  O   UNL     1      45.572   3.134  10.040  0.00  0.00    +0.000 OA
BRANCH  22  24
ATOM     23  C   UNL     1      44.636   1.275   8.739  0.00  0.00    +0.000 C 
ATOM     24  C   UNL     1      45.292   2.653   8.694  0.00  0.00    +0.000 C 
ATOM     25  C   UNL     1      44.762   3.658   7.642  0.00  0.00    +0.000 C 
ATOM     26  O   UNL     1      46.060   3.772   7.017  0.00  0.00    +0.000 OA
ATOM     27  C   UNL     1      46.540   2.639   7.776  0.00  0.00    +0.000 C 
ENDBRANCH  22  24
ENDBRANCH  16  22
ENDBRANCH  15  20
ENDBRANCH   1  15
TORSDOF 7
ENDMDL
MODEL 8
REMARK VINA RESULT:    -6.294      4.555      7.828
REMARK INTER + INTRA:          -9.366
REMARK INTER:                  -8.716
REMARK INTRA:                  -0.650
REMARK UNBOUND:                -0.496
REMARK  Name = 
REMARK  8 active torsions:
REMARK  status: ('A' for Active; 'I' for Inactive)
REMARK    1  A    between atoms: C_1  and  C_2
REMARK    2  A    between atoms: C_2  and  O_3
REMARK    3  A    between atoms: O_3  and  C_4
REMARK    4  A    between atoms: C_8  and  C_9
REMARK    5  A    between atoms: C_9  and  C_10
REMARK    6  A    between atoms: C_10  and  N_11
REMARK    7  A    between atoms: N_11  and  C_12
REMARK    8  A    between atoms: C_15  and  C_16
REMARK                            x       y       z     vdW  Elec       q    Type
REMARK                         _______ _______ _______ _____ _____    ______ ____
ROOT
ATOM      1  C   UNL     1      48.751   7.176  16.037  0.00  0.00    +0.000 C 
ENDROOT
BRANCH   1   2
ATOM      2  N   UNL     1      48.229   6.093  16.880  0.00  0.00    +0.000 N 
ATOM      3  H   UNL     1      47.310   5.774  16.576  0.00  0.00    +0.000 HD
BRANCH   2   4
ATOM      4  C   UNL     1      49.097   5.011  17.125  0.00  0.00    +0.000 A 
ATOM      5  C   UNL     1      48.694   3.675  17.036  0.00  0.00    +0.000 A 
ATOM      6  C   UNL     1      49.606   2.636  17.225  0.00  0.00    +0.000 A 
ATOM      7  C   UNL     1      50.929   2.962  17.468  0.00  0.00    +0.000 A 
ATOM      8  N   UNL     1      51.394   4.239  17.523  0.00  0.00    +0.000 NA
ATOM      9  C   UNL     1      50.466   5.216  17.328  0.00  0.00    +0.000 A 
BRANCH   7  10
ATOM     10  C   UNL     1      51.923   1.863  17.682  0.00  0.00    +0.000 C 
ATOM     11  N   UNL     1      51.390   0.634  17.959  0.00  0.00    +0.000 N 
ATOM     12  O   UNL     1      53.133   2.041  17.618  0.00  0.00    +0.000 OA
ATOM     13  H   UNL     1      50.384   0.529  18.021  0.00  0.00    +0.000 HD
ATOM     14  H   UNL     1      52.005  -0.147  18.136  0.00  0.00    +0.000 HD
ENDBRANCH   7  10
ENDBRANCH   2   4
ENDBRANCH   1   2
BRANCH   1  15
ATOM     15  C   UNL     1      48.980   6.725  14.591  0.00  0.00    +0.000 C 
BRANCH  15  20
ATOM     16  C   UNL     1      46.008   6.573  12.182  0.00  0.00    +0.000 A 
ATOM     17  C   UNL     1      45.477   7.852  12.336  0.00  0.00    +0.000 A 
ATOM     18  C   UNL     1      46.112   8.779  13.164  0.00  0.00    +0.000 A 
ATOM     19  C   UNL     1      47.268   8.430  13.859  0.00  0.00    +0.000 A 
ATOM     20  C   UNL     1      47.801   7.141  13.736  0.00  0.00    +0.000 A 
ATOM     21  C   UNL     1      47.164   6.220  12.888  0.00  0.00    +0.000 A 
BRANCH  16  22
ATOM     22  O   UNL     1      45.475   5.582  11.393  0.00  0.00    +0.000 OA
BRANCH  22  24
ATOM     23  C   UNL     1      45.211   3.292  12.234  0.00  0.00    +0.000 C 
ATOM     24  C   UNL     1      44.524   4.622  11.936  0.00  0.00    +0.000 C 
ATOM     25  C   UNL     1      43.466   5.118  12.952  0.00  0.00    +0.000 C 
ATOM     26  O   UNL     1      42.429   5.135  11.944  0.00  0.00    +0.000 OA
ATOM     27  C   UNL     1      43.283   4.409  11.032  0.00  0.00    +0.000 C 
ENDBRANCH  22  24
ENDBRANCH  16  22
ENDBRANCH  15  20
ENDBRANCH   1  15
TORSDOF 7
ENDMDL
MODEL 9
REMARK VINA RESULT:    -6.073      3.179      4.382
REMARK INTER + INTRA:          -9.055
REMARK INTER:                  -8.126
REMARK INTRA:                  -0.929
REMARK UNBOUND:                -0.496
REMARK  Name = 
REMARK  8 active torsions:
REMARK  status: ('A' for Active; 'I' for Inactive)
REMARK    1  A    between atoms: C_1  and  C_2
REMARK    2  A    between atoms: C_2  and  O_3
REMARK    3  A    between atoms: O_3  and  C_4
REMARK    4  A    between atoms: C_8  and  C_9
REMARK    5  A    between atoms: C_9  and  C_10
REMARK    6  A    between atoms: C_10  and  N_11
REMARK    7  A    between atoms: N_11  and  C_12
REMARK    8  A    between atoms: C_15  and  C_16
REMARK                            x       y       z     vdW  Elec       q    Type
REMARK                         _______ _______ _______ _____ _____    ______ ____
ROOT
ATOM      1  C   UNL     1      45.306   8.850  12.690  0.00  0.00    +0.000 C 
ENDROOT
BRANCH   1   2
ATOM      2  N   UNL     1      44.427   8.423  11.595  0.00  0.00    +0.000 N 
ATOM      3  H   UNL     1      44.623   8.916  10.725  0.00  0.00    +0.000 HD
BRANCH   2   4
ATOM      4  C   UNL     1      44.309   7.034  11.386  0.00  0.00    +0.000 A 
ATOM      5  C   UNL     1      45.412   6.182  11.285  0.00  0.00    +0.000 A 
ATOM      6  C   UNL     1      45.244   4.804  11.143  0.00  0.00    +0.000 A 
ATOM      7  C   UNL     1      43.955   4.298  11.141  0.00  0.00    +0.000 A 
ATOM      8  N   UNL     1      42.842   5.067  11.280  0.00  0.00    +0.000 NA
ATOM      9  C   UNL     1      43.060   6.404  11.420  0.00  0.00    +0.000 A 
BRANCH   7  10
ATOM     10  C   UNL     1      43.752   2.823  10.982  0.00  0.00    +0.000 C 
ATOM     11  N   UNL     1      44.493   2.231   9.997  0.00  0.00    +0.000 N 
ATOM     12  O   UNL     1      42.975   2.181  11.678  0.00  0.00    +0.000 OA
ATOM     13  H   UNL     1      45.113   2.797   9.430  0.00  0.00    +0.000 HD
ATOM     14  H   UNL     1      44.388   1.242   9.822  0.00  0.00    +0.000 HD
ENDBRANCH   7  10
ENDBRANCH   2   4
ENDBRANCH   1   2
BRANCH   1  15
ATOM     15  C   UNL     1      46.516   9.645  12.185  0.00  0.00    +0.000 C 
BRANCH  15  20
ATOM     16  C   UNL     1      49.321   8.287  14.408  0.00  0.00    +0.000 A 
ATOM     17  C   UNL     1      50.028   7.509  13.496  0.00  0.00    +0.000 A 
ATOM     18  C   UNL     1      49.639   7.472  12.155  0.00  0.00    +0.000 A 
ATOM     19  C   UNL     1      48.530   8.197  11.722  0.00  0.00    +0.000 A 
ATOM     20  C   UNL     1      47.793   8.965  12.631  0.00  0.00    +0.000 A 
ATOM     21  C   UNL     1      48.202   9.007  13.974  0.00  0.00    +0.000 A 
BRANCH  16  22
ATOM     22  O   UNL     1      49.613   8.404  15.746  0.00  0.00    +0.000 OA
BRANCH  22  24
ATOM     23  C   UNL     1      48.335   8.081  17.817  0.00  0.00    +0.000 C 
ATOM     24  C   UNL     1      49.142   7.415  16.706  0.00  0.00    +0.000 C 
ATOM     25  C   UNL     1      48.632   6.052  16.176  0.00  0.00    +0.000 C 
ATOM     26  O   UNL     1      49.865   5.388  16.537  0.00  0.00    +0.000 OA
ATOM     27  C   UNL     1      50.281   6.545  17.298  0.00  0.00    +0.000 C 
ENDBRANCH  22  24
ENDBRANCH  16  22
ENDBRANCH  15  20
ENDBRANCH   1  15
TORSDOF 7
ENDMDL
