MODEL 1
REMARK VINA RESULT:    -7.821      0.000      0.000
REMARK INTER + INTRA:         -10.208
REMARK INTER:                  -9.879
REMARK INTRA:                  -0.329
REMARK UNBOUND:                -0.329
REMARK  Name = 
REMARK  5 active torsions:
REMARK  status: ('A' for Active; 'I' for Inactive)
REMARK    1  A    between atoms: N_1  and  C_2
REMARK    2  A    between atoms: C_2  and  C_3
REMARK    3  A    between atoms: C_3  and  C_4
REMARK    4  A    between atoms: C_7  and  C_8
REMARK    5  A    between atoms: C_8  and  N_9
REMARK                            x       y       z     vdW  Elec       q    Type
REMARK                         _______ _______ _______ _____ _____    ______ ____
ROOT
ATOM      1  C   UNL     1      46.119   2.241   7.779  0.00  0.00    +0.000 A 
ATOM      2  C   UNL     1      45.308   1.600   8.722  0.00  0.00    +0.000 A 
ATOM      3  C   UNL     1      44.533   2.343   9.617  0.00  0.00    +0.000 A 
ATOM      4  C   UNL     1      44.549   3.744   9.586  0.00  0.00    +0.000 A 
ATOM      5  C   UNL     1      45.335   4.383   8.616  0.00  0.00    +0.000 A 
ATOM      6  C   UNL     1      46.107   3.639   7.717  0.00  0.00    +0.000 A 
ENDROOT
BRANCH   1   7
ATOM      7  C   UNL     1      47.011   1.437   6.862  0.00  0.00    +0.000 C 
BRANCH   7   8
ATOM      8  C   UNL     1      48.280   2.189   6.450  0.00  0.00    +0.000 C 
BRANCH   8   9
ATOM      9  N   UNL     1      48.271   2.478   5.015  0.00  0.00    +0.000 NA
ATOM     10  H   UNL     1      48.682   1.695   4.509  0.00  0.00    +0.000 HD
ATOM     11  H   UNL     1      48.865   3.284   4.824  0.00  0.00    +0.000 HD
ENDBRANCH   8   9
ENDBRANCH   7   8
ENDBRANCH   1   7
BRANCH   4  12
ATOM     12  C   UNL     1      43.745   4.553  10.572  0.00  0.00    +0.000 C 
BRANCH  12  13
ATOM     13  N   UNL     1      44.585   5.304  11.504  0.00  0.00    +0.000 N 
ATOM     14  C   UNL     1      44.521   6.666  11.678  0.00  0.00    +0.000 A 
ATOM     15  C   UNL     1      45.342   7.004  12.731  0.00  0.00    +0.000 A 
ATOM     16  C   UNL     1      45.923   5.808  13.224  0.00  0.00    +0.000 A 
ATOM     17  C   UNL     1      46.802   5.518  14.276  0.00  0.00    +0.000 A 
ATOM     18  C   UNL     1      47.144   4.187  14.451  0.00  0.00    +0.000 A 
ATOM     19  N   UNL     1      46.701   3.171  13.681  0.00  0.00    +0.000 NA
ATOM     20  C   UNL     1      45.853   3.443  12.662  0.00  0.00    +0.000 A 
ATOM     21  C   UNL     1      45.452   4.756  12.433  0.00  0.00    +0.000 A 
ENDBRANCH  12  13
ENDBRANCH   4  12
TORSDOF 5
ENDMDL
MODEL 2
REMARK VINA RESULT:    -7.679      1.144      2.521
REMARK INTER + INTRA:         -10.027
REMARK INTER:                  -9.492
REMARK INTRA:                  -0.535
REMARK UNBOUND:                -0.329
REMARK  Name = 
REMARK  5 active torsions:
REMARK  status: ('A' for Active; 'I' for Inactive)
REMARK    1  A    between atoms: N_1  and  C_2
REMARK    2  A    between atoms: C_2  and  C_3
REMARK    3  A    between atoms: C_3  and  C_4
REMARK    4  A    between atoms: C_7  and  C_8
REMARK    5  A    between atoms: C_8  and  N_9
REMARK                            x       y       z     vdW  Elec       q    Type
REMARK                         _______ _______ _______ _____ _____    ______ ____
ROOT
ATOM      1  C   UNL     1      46.072   2.316   7.943  0.00  0.00    +0.000 A 
ATOM      2  C   UNL     1      45.194   1.742   8.869  0.00  0.00    +0.000 A 
ATOM      3  C   UNL     1      44.446   2.546   9.734  0.00  0.00    +0.000 A 
ATOM      4  C   UNL     1      44.557   3.942   9.688  0.00  0.00    +0.000 A 
ATOM      5  C   UNL     1      45.410   4.515   8.734  0.00  0.00    +0.000 A 
ATOM      6  C   UNL     1      46.156   3.711   7.866  0.00  0.00    +0.000 A 
ENDROOT
BRANCH   1   7
ATOM      7  C   UNL     1      46.933   1.443   7.060  0.00  0.00    +0.000 C 
BRANCH   7   8
ATOM      8  C   UNL     1      48.250   2.112   6.657  0.00  0.00    +0.000 C 
BRANCH   8   9
ATOM      9  N   UNL     1      48.381   2.168   5.199  0.00  0.00    +0.000 NA
ATOM     10  H   UNL     1      47.463   2.052   4.773  0.00  0.00    +0.000 HD
ATOM     11  H   UNL     1      48.945   1.383   4.876  0.00  0.00    +0.000 HD
ENDBRANCH   8   9
ENDBRANCH   7   8
ENDBRANCH   1   7
BRANCH   4  12
ATOM     12  C   UNL     1      43.782   4.815  10.642  0.00  0.00    +0.000 C 
BRANCH  12  13
ATOM     13  N   UNL     1      44.624   5.394  11.687  0.00  0.00    +0.000 N 
ATOM     14  C   UNL     1      45.390   4.658  12.559  0.00  0.00    +0.000 A 
ATOM     15  C   UNL     1      46.159   5.530  13.297  0.00  0.00    +0.000 A 
ATOM     16  C   UNL     1      45.861   6.845  12.858  0.00  0.00    +0.000 A 
ATOM     17  C   UNL     1      46.335   8.116  13.208  0.00  0.00    +0.000 A 
ATOM     18  C   UNL     1      45.786   9.192  12.529  0.00  0.00    +0.000 A 
ATOM     19  N   UNL     1      44.835   9.097  11.576  0.00  0.00    +0.000 NA
ATOM     20  C   UNL     1      44.371   7.873  11.234  0.00  0.00    +0.000 A 
ATOM     21  C   UNL     1      44.885   6.743  11.862  0.00  0.00    +0.000 A 
ENDBRANCH  12  13
ENDBRANCH   4  12
TORSDOF 5
ENDMDL
MODEL 3
REMARK VINA RESULT:    -7.112      1.308      1.883
REMARK INTER + INTRA:          -9.311
REMARK INTER:                  -8.878
REMARK INTRA:                  -0.434
REMARK UNBOUND:                -0.329
REMARK  Name = 
REMARK  5 active torsions:
REMARK  status: ('A' for Active; 'I' for Inactive)
REMARK    1  A    between atoms: N_1  and  C_2
REMARK    2  A    between atoms: C_2  and  C_3
REMARK    3  A    between atoms: C_3  and  C_4
REMARK    4  A    between atoms: C_7  and  C_8
REMARK    5  A    between atoms: C_8  and  N_9
REMARK                            x       y       z     vdW  Elec       q    Type
REMARK                         _______ _______ _______ _____ _____    ______ ____
ROOT
ATOM      1  C   UNL     1      45.810   2.934   8.003  0.00  0.00    +0.000 A 
ATOM      2  C   UNL     1      46.000   4.312   8.158  0.00  0.00    +0.000 A 
ATOM      3  C   UNL     1      45.507   4.976   9.286  0.00  0.00    +0.000 A 
ATOM      4  C   UNL     1      44.816   4.275  10.283  0.00  0.00    +0.000 A 
ATOM      5  C   UNL     1      44.658   2.889  10.140  0.00  0.00    +0.000 A 
ATOM      6  C   UNL     1      45.155   2.224   9.015  0.00  0.00    +0.000 A 
ENDROOT
BRANCH   1   7
ATOM      7  C   UNL     1      46.279   2.233   6.750  0.00  0.00    +0.000 C 
BRANCH   7   8
ATOM      8  C   UNL     1      47.688   1.647   6.883  0.00  0.00    +0.000 C 
BRANCH   8   9
ATOM      9  N   UNL     1      48.687   2.565   6.335  0.00  0.00    +0.000 NA
ATOM     10  H   UNL     1      48.250   3.463   6.138  0.00  0.00    +0.000 HD
ATOM     11  H   UNL     1      49.024   2.211   5.440  0.00  0.00    +0.000 HD
ENDBRANCH   8   9
ENDBRANCH   7   8
ENDBRANCH   1   7
BRANCH   4  12
ATOM     12  C   UNL     1      44.248   4.989  11.483  0.00  0.00    +0.000 C 
BRANCH  12  13
ATOM     13  N   UNL     1      45.021   6.175  11.852  0.00  0.00    +0.000 N 
ATOM     14  C   UNL     1      44.655   7.463  11.544  0.00  0.00    +0.000 A 
ATOM     15  C   UNL     1      45.530   8.321  12.173  0.00  0.00    +0.000 A 
ATOM     16  C   UNL     1      46.460   7.532  12.897  0.00  0.00    +0.000 A 
ATOM     17  C   UNL     1      47.543   7.831  13.733  0.00  0.00    +0.000 A 
ATOM     18  C   UNL     1      48.225   6.754  14.277  0.00  0.00    +0.000 A 
ATOM     19  N   UNL     1      47.923   5.459  14.050  0.00  0.00    +0.000 NA
ATOM     20  C   UNL     1      46.879   5.162  13.242  0.00  0.00    +0.000 A 
ATOM     21  C   UNL     1      46.137   6.190  12.671  0.00  0.00    +0.000 A 
ENDBRANCH  12  13
ENDBRANCH   4  12
TORSDOF 5
ENDMDL
MODEL 4
REMARK VINA RESULT:    -6.190      1.793      6.440
REMARK INTER + INTRA:          -8.148
REMARK INTER:                  -7.711
REMARK INTRA:                  -0.437
REMARK UNBOUND:                -0.329
REMARK  Name = 
REMARK  5 active torsions:
REMARK  status: ('A' for Active; 'I' for Inactive)
REMARK    1  A    between atoms: N_1  and  C_2
REMARK    2  A    between atoms: C_2  and  C_3
REMARK    3  A    between atoms: C_3  and  C_4
REMARK    4  A    between atoms: C_7  and  C_8
REMARK    5  A    between atoms: C_8  and  N_9
REMARK                            x       y       z     vdW  Elec       q    Type
REMARK                         _______ _______ _______ _____ _____    ______ ____
ROOT
ATOM      1  C   UNL     1      46.468   5.000  13.551  0.00  0.00    +0.000 A 
ATOM      2  C   UNL     1      46.211   5.990  12.595  0.00  0.00    +0.000 A 
ATOM      3  C   UNL     1      45.529   5.680  11.415  0.00  0.00    +0.000 A 
ATOM      4  C   UNL     1      45.086   4.374  11.166  0.00  0.00    +0.000 A 
ATOM      5  C   UNL     1      45.313   3.393  12.142  0.00  0.00    +0.000 A 
ATOM      6  C   UNL     1      45.992   3.704  13.325  0.00  0.00    +0.000 A 
ENDROOT
BRANCH   1   7
ATOM      7  C   UNL     1      47.268   5.321  14.791  0.00  0.00    +0.000 C 
BRANCH   7   8
ATOM      8  C   UNL     1      47.348   4.150  15.773  0.00  0.00    +0.000 C 
BRANCH   8   9
ATOM      9  N   UNL     1      48.084   4.531  16.980  0.00  0.00    +0.000 NA
ATOM     10  H   UNL     1      49.084   4.503  16.790  0.00  0.00    +0.000 HD
ATOM     11  H   UNL     1      47.915   3.846  17.716  0.00  0.00    +0.000 HD
ENDBRANCH   8   9
ENDBRANCH   7   8
ENDBRANCH   1   7
BRANCH   4  12
ATOM     12  C   UNL     1      44.383   4.024   9.879  0.00  0.00    +0.000 C 
BRANCH  12  13
ATOM     13  N   UNL     1      45.311   3.814   8.769  0.00  0.00    +0.000 N 
ATOM     14  C   UNL     1      45.947   4.827   8.091  0.00  0.00    +0.000 A 
ATOM     15  C   UNL     1      46.851   4.260   7.220  0.00  0.00    +0.000 A 
ATOM     16  C   UNL     1      46.772   2.852   7.374  0.00  0.00    +0.000 A 
ATOM     17  C   UNL     1      47.449   1.773   6.792  0.00  0.00    +0.000 A 
ATOM     18  C   UNL     1      47.084   0.507   7.220  0.00  0.00    +0.000 A 
ATOM     19  N   UNL     1      46.129   0.251   8.138  0.00  0.00    +0.000 NA
ATOM     20  C   UNL     1      45.469   1.288   8.703  0.00  0.00    +0.000 A 
ATOM     21  C   UNL     1      45.792   2.590   8.335  0.00  0.00    +0.000 A 
ENDBRANCH  12  13
ENDBRANCH   4  12
TORSDOF 5
ENDMDL
MODEL 5
REMARK VINA RESULT:    -6.169      2.289      6.119
REMARK INTER + INTRA:          -8.121
REMARK INTER:                  -7.631
REMARK INTRA:                  -0.490
REMARK UNBOUND:                -0.329
REMARK  Name = 
REMARK  5 active torsions:
REMARK  status: ('A' for Active; 'I' for Inactive)
REMARK    1  A    between atoms: N_1  and  C_2
REMARK    2  A    between atoms: C_2  and  C_3
REMARK    3  A    between atoms: C_3  and  C_4
REMARK    4  A    between atoms: C_7  and  C_8
REMARK    5  A    between atoms: C_8  and  N_9
REMARK                            x       y       z     vdW  Elec       q    Type
REMARK                         _______ _______ _______ _____ _____    ______ ____
ROOT
ATOM      1  C   UNL     1      47.978   7.109  13.785  0.00  0.00    +0.000 A 
ATOM      2  C   UNL     1      47.115   8.081  13.267  0.00  0.00    +0.000 A 
ATOM      3  C   UNL     1      45.852   7.727  12.782  0.00  0.00    +0.000 A 
ATOM      4  C   UNL     1      45.424   6.393  12.808  0.00  0.00    +0.000 A 
ATOM      5  C   UNL     1      46.278   5.427  13.361  0.00  0.00    +0.000 A 
ATOM      6  C   UNL     1      47.539   5.782  13.850  0.00  0.00    +0.000 A 
ENDROOT
BRANCH   1   7
ATOM      7  C   UNL     1      49.369   7.483  14.241  0.00  0.00    +0.000 C 
BRANCH   7   8
ATOM      8  C   UNL     1      50.205   8.138  13.137  0.00  0.00    +0.000 C 
BRANCH   8   9
ATOM      9  N   UNL     1      50.385   7.222  12.008  0.00  0.00    +0.000 NA
ATOM     10  H   UNL     1      51.374   7.163  11.775  0.00  0.00    +0.000 HD
ATOM     11  H   UNL     1      49.920   7.601  11.184  0.00  0.00    +0.000 HD
ENDBRANCH   8   9
ENDBRANCH   7   8
ENDBRANCH   1   7
BRANCH   4  12
ATOM     12  C   UNL     1      44.080   5.997  12.253  0.00  0.00    +0.000 C 
BRANCH  12  13
ATOM     13  N   UNL     1      44.083   4.657  11.668  0.00  0.00    +0.000 N 
ATOM     14  C   UNL     1      43.438   3.573  12.215  0.00  0.00    +0.000 A 
ATOM     15  C   UNL     1      43.530   2.525  11.326  0.00  0.00    +0.000 A 
ATOM     16  C   UNL     1      44.250   2.983  10.193  0.00  0.00    +0.000 A 
ATOM     17  C   UNL     1      44.629   2.393   8.981  0.00  0.00    +0.000 A 
ATOM     18  C   UNL     1      45.341   3.190   8.098  0.00  0.00    +0.000 A 
ATOM     19  N   UNL     1      45.694   4.470   8.332  0.00  0.00    +0.000 NA
ATOM     20  C   UNL     1      45.334   5.047   9.502  0.00  0.00    +0.000 A 
ATOM     21  C   UNL     1      44.603   4.314  10.432  0.00  0.00    +0.000 A 
ENDBRANCH  12  13
ENDBRANCH   4  12
TORSDOF 5
ENDMDL
MODEL 6
REMARK VINA RESULT:    -5.882      2.539      4.147
REMARK INTER + INTRA:          -7.758
REMARK INTER:                  -7.300
REMARK INTRA:                  -0.458
REMARK UNBOUND:                -0.329
REMARK  Name = 
REMARK  5 active torsions:
REMARK  status: ('A' for Active; 'I' for Inactive)
REMARK    1  A    between atoms: N_1  and  C_2
REMARK    2  A    between atoms: C_2  and  C_3
REMARK    3  A    between atoms: C_3  and  C_4
REMARK    4  A    between atoms: C_7  and  C_8
REMARK    5  A    between atoms: C_8  and  N_9
REMARK                            x       y       z     vdW  Elec       q    Type
REMARK                         _______ _______ _______ _____ _____    ______ ____
ROOT
ATOM      1  C   UNL     1      44.817   3.167   9.864  0.00  0.00    +0.000 A 
ATOM      2  C   UNL     1      45.242   4.463   9.553  0.00  0.00    +0.000 A 
ATOM      3  C   UNL     1      45.214   5.473  10.520  0.00  0.00    +0.000 A 
ATOM      4  C   UNL     1      44.763   5.206  11.820  0.00  0.00    +0.000 A 
ATOM      5  C   UNL     1      44.371   3.898  12.137  0.00  0.00    +0.000 A 
ATOM      6  C   UNL     1      44.403   2.887  11.171  0.00  0.00    +0.000 A 
ENDROOT
BRANCH   1   7
ATOM      7  C   UNL     1      44.780   2.096   8.799  0.00  0.00    +0.000 C 
BRANCH   7   8
ATOM      8  C   UNL     1      46.108   1.948   8.051  0.00  0.00    +0.000 C 
BRANCH   8   9
ATOM      9  N   UNL     1      46.525   0.545   8.005  0.00  0.00    +0.000 NA
ATOM     10  H   UNL     1      47.283   0.440   7.332  0.00  0.00    +0.000 HD
ATOM     11  H   UNL     1      45.757  -0.029   7.660  0.00  0.00    +0.000 HD
ENDBRANCH   8   9
ENDBRANCH   7   8
ENDBRANCH   1   7
BRANCH   4  12
ATOM     12  C   UNL     1      44.694   6.298  12.857  0.00  0.00    +0.000 C 
BRANCH  12  13
ATOM     13  N   UNL     1      45.923   7.087  12.929  0.00  0.00    +0.000 N 
ATOM     14  C   UNL     1      47.159   6.566  13.231  0.00  0.00    +0.000 A 
ATOM     15  C   UNL     1      48.097   7.559  13.061  0.00  0.00    +0.000 A 
ATOM     16  C   UNL     1      47.415   8.727  12.633  0.00  0.00    +0.000 A 
ATOM     17  C   UNL     1      47.829  10.018  12.282  0.00  0.00    +0.000 A 
ATOM     18  C   UNL     1      46.836  10.906  11.898  0.00  0.00    +0.000 A 
ATOM     19  N   UNL     1      45.520  10.614  11.852  0.00  0.00    +0.000 NA
ATOM     20  C   UNL     1      45.112   9.369  12.191  0.00  0.00    +0.000 A 
ATOM     21  C   UNL     1      46.053   8.418  12.572  0.00  0.00    +0.000 A 
ENDBRANCH  12  13
ENDBRANCH   4  12
TORSDOF 5
ENDMDL
MODEL 7
REMARK VINA RESULT:    -5.548      2.470      3.603
REMARK INTER + INTRA:          -7.336
REMARK INTER:                  -6.876
REMARK INTRA:                  -0.460
REMARK UNBOUND:                -0.329
REMARK  Name = 
REMARK  5 active torsions:
REMARK  status: ('A' for Active; 'I' for Inactive)
REMARK    1  A    between atoms: N_1  and  C_2
REMARK    2  A    between atoms: C_2  and  C_3
REMARK    3  A    between atoms: C_3  and  C_4
REMARK    4  A    between atoms: C_7  and  C_8
REMARK    5  A    between atoms: C_8  and  N_9
REMARK                            x       y       z     vdW  Elec       q    Type
REMARK                         _______ _______ _______ _____ _____    ______ ____
ROOT
ATOM      1  C   UNL     1      45.062   3.370  10.240  0.00  0.00    +0.000 A 
ATOM      2  C   UNL     1      45.312   4.630   9.686  0.00  0.00    +0.000 A 
ATOM      3  C   UNL     1      45.455   5.753  10.507  0.00  0.00    +0.000 A 
ATOM      4  C   UNL     1      45.355   5.638  11.900  0.00  0.00    +0.000 A 
ATOM      5  C   UNL     1      45.140   4.367  12.453  0.00  0.00    +0.000 A 
ATOM      6  C   UNL     1      45.000   3.244  11.633  0.00  0.00    +0.000 A 
ENDROOT
BRANCH   1   7
ATOM      7  C   UNL     1      44.834   2.172   9.348  0.00  0.00    +0.000 C 
BRANCH   7   8
ATOM      8  C   UNL     1      45.808   2.110   8.168  0.00  0.00    +0.000 C 
BRANCH   8   9
ATOM      9  N   UNL     1      46.446   0.795   8.087  0.00  0.00    +0.000 NA
ATOM     10  H   UNL     1      47.454   0.912   8.005  0.00  0.00    +0.000 HD
ATOM     11  H   UNL     1      46.145   0.319   7.237  0.00  0.00    +0.000 HD
ENDBRANCH   8   9
ENDBRANCH   7   8
ENDBRANCH   1   7
BRANCH   4  12
ATOM     12  C   UNL     1      45.471   6.850  12.790  0.00  0.00    +0.000 C 
BRANCH  12  13
ATOM     13  N   UNL     1      46.829   7.390  12.834  0.00  0.00    +0.000 N 
ATOM     14  C   UNL     1      47.278   8.417  12.039  0.00  0.00    +0.000 A 
ATOM     15  C   UNL     1      48.546   8.758  12.454  0.00  0.00    +0.000 A 
ATOM     16  C   UNL     1      48.883   7.917  13.546  0.00  0.00    +0.000 A 
ATOM     17  C   UNL     1      50.003   7.812  14.380  0.00  0.00    +0.000 A 
ATOM     18  C   UNL     1      49.953   6.841  15.368  0.00  0.00    +0.000 A 
ATOM     19  N   UNL     1      48.917   6.000  15.567  0.00  0.00    +0.000 NA
ATOM     20  C   UNL     1      47.833   6.094  14.764  0.00  0.00    +0.000 A 
ATOM     21  C   UNL     1      47.803   7.055  13.759  0.00  0.00    +0.000 A 
ENDBRANCH  12  13
ENDBRANCH   4  12
TORSDOF 5
ENDMDL
MODEL 8
REMARK VINA RESULT:    -5.372      3.525      4.908
REMARK INTER + INTRA:          -7.114
REMARK INTER:                  -6.798
REMARK INTRA:                  -0.316
REMARK UNBOUND:                -0.329
REMARK  Name = 
REMARK  5 active torsions:
REMARK  status: ('A' for Active; 'I' for Inactive)
REMARK    1  A    between atoms: N_1  and  C_2
REMARK    2  A    between atoms: C_2  and  C_3
REMARK    3  A    between atoms: C_3  and  C_4
REMARK    4  A    between atoms: C_7  and  C_8
REMARK    5  A    between atoms: C_8  and  N_9
REMARK                            x       y       z     vdW  Elec       q    Type
REMARK                         _______ _______ _______ _____ _____    ______ ____
ROOT
ATOM      1  C   UNL     1      44.925   3.860  11.046  0.00  0.00    +0.000 A 
ATOM      2  C   UNL     1      45.298   5.095  10.504  0.00  0.00    +0.000 A 
ATOM      3  C   UNL     1      45.993   6.031  11.276  0.00  0.00    +0.000 A 
ATOM      4  C   UNL     1      46.332   5.750  12.607  0.00  0.00    +0.000 A 
ATOM      5  C   UNL     1      45.988   4.498  13.135  0.00  0.00    +0.000 A 
ATOM      6  C   UNL     1      45.297   3.560  12.361  0.00  0.00    +0.000 A 
ENDROOT
BRANCH   1   7
ATOM      7  C   UNL     1      44.112   2.881  10.232  0.00  0.00    +0.000 C 
BRANCH   7   8
ATOM      8  C   UNL     1      44.716   2.598   8.854  0.00  0.00    +0.000 C 
BRANCH   8   9
ATOM      9  N   UNL     1      45.482   1.350   8.867  0.00  0.00    +0.000 NA
ATOM     10  H   UNL     1      45.549   1.004   9.823  0.00  0.00    +0.000 HD
ATOM     11  H   UNL     1      46.437   1.532   8.563  0.00  0.00    +0.000 HD
ENDBRANCH   8   9
ENDBRANCH   7   8
ENDBRANCH   1   7
BRANCH   4  12
ATOM     12  C   UNL     1      47.047   6.769  13.458  0.00  0.00    +0.000 C 
BRANCH  12  13
ATOM     13  N   UNL     1      47.310   8.017  12.742  0.00  0.00    +0.000 N 
ATOM     14  C   UNL     1      46.408   9.048  12.631  0.00  0.00    +0.000 A 
ATOM     15  C   UNL     1      47.043  10.111  12.026  0.00  0.00    +0.000 A 
ATOM     16  C   UNL     1      48.382   9.720  11.766  0.00  0.00    +0.000 A 
ATOM     17  C   UNL     1      49.489  10.368  11.204  0.00  0.00    +0.000 A 
ATOM     18  C   UNL     1      50.663   9.635  11.123  0.00  0.00    +0.000 A 
ATOM     19  N   UNL     1      50.801   8.358  11.534  0.00  0.00    +0.000 NA
ATOM     20  C   UNL     1      49.735   7.724  12.076  0.00  0.00    +0.000 A 
ATOM     21  C   UNL     1      48.526   8.401  12.205  0.00  0.00    +0.000 A 
ENDBRANCH  12  13
ENDBRANCH   4  12
TORSDOF 5
ENDMDL
MODEL 9
REMARK VINA RESULT:    -5.354      3.704      7.592
REMARK INTER + INTRA:          -7.091
REMARK INTER:                  -6.623
REMARK INTRA:                  -0.468
REMARK UNBOUND:                -0.329
REMARK  Name = 
REMARK  5 active torsions:
REMARK  status: ('A' for Active; 'I' for Inactive)
REMARK    1  A    between atoms: N_1  and  C_2
REMARK    2  A    between atoms: C_2  and  C_3
REMARK    3  A    between atoms: C_3  and  C_4
REMARK    4  A    between atoms: C_7  and  C_8
REMARK    5  A    between atoms: C_8  and  N_9
REMARK                            x       y       z     vdW  Elec       q    Type
REMARK                         _______ _______ _______ _____ _____    ______ ____
ROOT
ATOM      1  C   UNL     1      48.280   5.529  17.231  0.00  0.00    +0.000 A 
ATOM      2  C   UNL     1      48.820   6.601  16.512  0.00  0.00    +0.000 A 
ATOM      3  C   UNL     1      48.634   6.696  15.129  0.00  0.00    +0.000 A 
ATOM      4  C   UNL     1      47.900   5.723  14.437  0.00  0.00    +0.000 A 
ATOM      5  C   UNL     1      47.331   4.670  15.167  0.00  0.00    +0.000 A 
ATOM      6  C   UNL     1      47.513   4.576  16.551  0.00  0.00    +0.000 A 
ENDROOT
BRANCH   1   7
ATOM      7  C   UNL     1      48.544   5.390  18.712  0.00  0.00    +0.000 C 
BRANCH   7   8
ATOM      8  C   UNL     1      48.931   3.966  19.121  0.00  0.00    +0.000 C 
BRANCH   8   9
ATOM      9  N   UNL     1      48.365   3.628  20.428  0.00  0.00    +0.000 NA
ATOM     10  H   UNL     1      48.865   4.136  21.155  0.00  0.00    +0.000 HD
ATOM     11  H   UNL     1      48.513   2.638  20.620  0.00  0.00    +0.000 HD
ENDBRANCH   8   9
ENDBRANCH   7   8
ENDBRANCH   1   7
BRANCH   4  12
ATOM     12  C   UNL     1      47.727   5.798  12.941  0.00  0.00    +0.000 C 
BRANCH  12  13
ATOM     13  N   UNL     1      46.380   6.211  12.550  0.00  0.00    +0.000 N 
ATOM     14  C   UNL     1      46.004   7.515  12.331  0.00  0.00    +0.000 A 
ATOM     15  C   UNL     1      44.719   7.514  11.836  0.00  0.00    +0.000 A 
ATOM     16  C   UNL     1      44.295   6.163  11.740  0.00  0.00    +0.000 A 
ATOM     17  C   UNL     1      43.122   5.544  11.291  0.00  0.00    +0.000 A 
ATOM     18  C   UNL     1      43.088   4.160  11.351  0.00  0.00    +0.000 A 
ATOM     19  N   UNL     1      44.091   3.386  11.813  0.00  0.00    +0.000 NA
ATOM     20  C   UNL     1      45.227   3.976  12.250  0.00  0.00    +0.000 A 
ATOM     21  C   UNL     1      45.341   5.362  12.207  0.00  0.00    +0.000 A 
ENDBRANCH  12  13
ENDBRANCH   4  12
TORSDOF 5
ENDMDL
