MODEL 1
REMARK VINA RESULT:    -8.282      0.000      0.000
REMARK INTER + INTRA:         -10.944
REMARK INTER:                 -10.218
REMARK INTRA:                  -0.726
REMARK UNBOUND:                -0.726
REMARK  Name = 
REMARK  4 active torsions:
REMARK  status: ('A' for Active; 'I' for Inactive)
REMARK    1  A    between atoms: C_2  and  C_4
REMARK    2  A    between atoms: N_8  and  C_9
REMARK    3  A    between atoms: C_9  and  C_10
REMARK    4  A    between atoms: C_14  and  N_15
REMARK                            x       y       z     vdW  Elec       q    Type
REMARK                         _______ _______ _______ _____ _____    ______ ____
ROOT
ATOM      1  C   UNL     1      46.614   2.567   7.322  0.00  0.00    +0.000 A 
ATOM      2  C   UNL     1      46.122   3.834   7.618  0.00  0.00    +0.000 A 
ATOM      3  C   UNL     1      45.240   3.985   8.688  0.00  0.00    +0.000 A 
ATOM      4  C   UNL     1      44.865   2.877   9.440  0.00  0.00    +0.000 A 
ATOM      5  N   UNL     1      44.043   2.936  10.527  0.00  0.00    +0.000 N 
ATOM      6  N   UNL     1      45.319   1.643   9.144  0.00  0.00    +0.000 NA
ATOM      7  C   UNL     1      46.172   1.508   8.096  0.00  0.00    +0.000 A 
ATOM      8  H   UNL     1      43.810   2.029  10.909  0.00  0.00    +0.000 HD
ENDROOT
BRANCH   1  10
ATOM      9  N   UNL     1      47.511   3.153   5.143  0.00  0.00    +0.000 N 
ATOM     10  C   UNL     1      47.560   2.309   6.219  0.00  0.00    +0.000 C 
ATOM     11  O   UNL     1      48.381   1.403   6.277  0.00  0.00    +0.000 OA
ATOM     12  H   UNL     1      48.234   3.032   4.445  0.00  0.00    +0.000 HD
ATOM     13  H   UNL     1      47.036   4.045   5.173  0.00  0.00    +0.000 HD
ENDBRANCH   1  10
BRANCH   5  14
ATOM     14  C   UNL     1      43.359   4.098  11.031  0.00  0.00    +0.000 C 
BRANCH  14  15
ATOM     15  C   UNL     1      44.251   5.101  11.723  0.00  0.00    +0.000 A 
ATOM     16  C   UNL     1      45.208   4.780  12.689  0.00  0.00    +0.000 A 
ATOM     17  C   UNL     1      46.008   5.779  13.246  0.00  0.00    +0.000 A 
ATOM     18  C   UNL     1      45.872   7.111  12.838  0.00  0.00    +0.000 A 
ATOM     19  C   UNL     1      44.933   7.470  11.868  0.00  0.00    +0.000 A 
ATOM     20  C   UNL     1      44.123   6.448  11.343  0.00  0.00    +0.000 A 
BRANCH  19  21
ATOM     21  N   UNL     1      44.743   8.770  11.404  0.00  0.00    +0.000 N 
ATOM     22  C   UNL     1      43.442   9.164  10.860  0.00  0.00    +0.000 C 
ATOM     23  C   UNL     1      43.661  10.360   9.930  0.00  0.00    +0.000 C 
ATOM     24  C   UNL     1      44.384  11.507  10.640  0.00  0.00    +0.000 C 
ATOM     25  C   UNL     1      45.653  11.027  11.344  0.00  0.00    +0.000 C 
ATOM     26  C   UNL     1      45.379   9.812  12.227  0.00  0.00    +0.000 C 
ENDBRANCH  19  21
ENDBRANCH  14  15
ENDBRANCH   5  14
TORSDOF 4
ENDMDL
MODEL 2
REMARK VINA RESULT:    -8.231      2.048      4.149
REMARK INTER + INTRA:         -10.881
REMARK INTER:                 -10.240
REMARK INTRA:                  -0.641
REMARK UNBOUND:                -0.726
REMARK  Name = 
REMARK  4 active torsions:
REMARK  status: ('A' for Active; 'I' for Inactive)
REMARK    1  A    between atoms: C_2  and  C_4
REMARK    2  A    between atoms: N_8  and  C_9
REMARK    3  A    between atoms: C_9  and  C_10
REMARK    4  A    between atoms: C_14  and  N_15
REMARK                            x       y       z     vdW  Elec       q    Type
REMARK                         _______ _______ _______ _____ _____    ______ ____
ROOT
ATOM      1  C   UNL     1      46.621   2.507   7.192  0.00  0.00    +0.000 A 
ATOM      2  C   UNL     1      46.045   3.722   7.547  0.00  0.00    +0.000 A 
ATOM      3  C   UNL     1      45.239   3.784   8.684  0.00  0.00    +0.000 A 
ATOM      4  C   UNL     1      45.023   2.638   9.444  0.00  0.00    +0.000 A 
ATOM      5  N   UNL     1      44.286   2.613  10.592  0.00  0.00    +0.000 N 
ATOM      6  N   UNL     1      45.559   1.453   9.093  0.00  0.00    +0.000 NA
ATOM      7  C   UNL     1      46.336   1.405   7.980  0.00  0.00    +0.000 A 
ATOM      8  H   UNL     1      44.165   1.686  10.975  0.00  0.00    +0.000 HD
ENDROOT
BRANCH   1  10
ATOM      9  N   UNL     1      47.387   3.279   5.021  0.00  0.00    +0.000 N 
ATOM     10  C   UNL     1      47.497   2.346   6.015  0.00  0.00    +0.000 C 
ATOM     11  O   UNL     1      48.315   1.438   5.945  0.00  0.00    +0.000 OA
ATOM     12  H   UNL     1      48.066   3.220   4.273  0.00  0.00    +0.000 HD
ATOM     13  H   UNL     1      46.920   4.165   5.158  0.00  0.00    +0.000 HD
ENDBRANCH   1  10
BRANCH   5  14
ATOM     14  C   UNL     1      43.544   3.705  11.166  0.00  0.00    +0.000 C 
BRANCH  14  15
ATOM     15  C   UNL     1      44.396   4.839  11.686  0.00  0.00    +0.000 A 
ATOM     16  C   UNL     1      44.367   6.145  11.193  0.00  0.00    +0.000 A 
ATOM     17  C   UNL     1      45.172   7.132  11.766  0.00  0.00    +0.000 A 
ATOM     18  C   UNL     1      46.008   6.829  12.847  0.00  0.00    +0.000 A 
ATOM     19  C   UNL     1      46.057   5.537  13.374  0.00  0.00    +0.000 A 
ATOM     20  C   UNL     1      45.256   4.558  12.761  0.00  0.00    +0.000 A 
BRANCH  19  21
ATOM     21  N   UNL     1      46.855   5.159  14.453  0.00  0.00    +0.000 N 
ATOM     22  C   UNL     1      47.087   3.739  14.723  0.00  0.00    +0.000 C 
ATOM     23  C   UNL     1      47.459   3.593  16.200  0.00  0.00    +0.000 C 
ATOM     24  C   UNL     1      48.651   4.475  16.576  0.00  0.00    +0.000 C 
ATOM     25  C   UNL     1      48.450   5.922  16.127  0.00  0.00    +0.000 C 
ATOM     26  C   UNL     1      48.046   6.001  14.656  0.00  0.00    +0.000 C 
ENDBRANCH  19  21
ENDBRANCH  14  15
ENDBRANCH   5  14
TORSDOF 4
ENDMDL
MODEL 3
REMARK VINA RESULT:    -7.743      2.236      2.867
REMARK INTER + INTRA:         -10.280
REMARK INTER:                  -9.551
REMARK INTRA:                  -0.728
REMARK UNBOUND:                -0.726
REMARK  Name = 
REMARK  4 active torsions:
REMARK  status: ('A' for Active; 'I' for Inactive)
REMARK    1  A    between atoms: C_2  and  C_4
REMARK    2  A    between atoms: N_8  and  C_9
REMARK    3  A    between atoms: C_9  and  C_10
REMARK    4  A    between atoms: C_14  and  N_15
REMARK                            x       y       z     vdW  Elec       q    Type
REMARK                         _______ _______ _______ _____ _____    ______ ____
ROOT
ATOM      1  C   UNL     1      46.412   2.220   7.522  0.00  0.00    +0.000 A 
ATOM      2  C   UNL     1      46.026   1.927   8.826  0.00  0.00    +0.000 A 
ATOM      3  C   UNL     1      45.267   2.858   9.535  0.00  0.00    +0.000 A 
ATOM      4  C   UNL     1      44.907   4.060   8.935  0.00  0.00    +0.000 A 
ATOM      5  N   UNL     1      44.133   5.010   9.535  0.00  0.00    +0.000 N 
ATOM      6  N   UNL     1      45.297   4.362   7.681  0.00  0.00    +0.000 NA
ATOM      7  C   UNL     1      46.041   3.449   7.004  0.00  0.00    +0.000 A 
ATOM      8  H   UNL     1      44.034   5.855   8.990  0.00  0.00    +0.000 HD
ENDROOT
BRANCH   1  10
ATOM      9  N   UNL     1      48.266   1.821   6.007  0.00  0.00    +0.000 N 
ATOM     10  C   UNL     1      47.203   1.295   6.690  0.00  0.00    +0.000 C 
ATOM     11  O   UNL     1      46.947   0.099   6.639  0.00  0.00    +0.000 OA
ATOM     12  H   UNL     1      48.863   1.159   5.528  0.00  0.00    +0.000 HD
ATOM     13  H   UNL     1      48.655   2.729   6.223  0.00  0.00    +0.000 HD
ENDBRANCH   1  10
BRANCH   5  14
ATOM     14  C   UNL     1      43.635   4.991  10.885  0.00  0.00    +0.000 C 
BRANCH  14  15
ATOM     15  C   UNL     1      44.694   5.158  11.949  0.00  0.00    +0.000 A 
ATOM     16  C   UNL     1      44.803   4.364  13.094  0.00  0.00    +0.000 A 
ATOM     17  C   UNL     1      45.841   4.578  14.002  0.00  0.00    +0.000 A 
ATOM     18  C   UNL     1      46.792   5.580  13.773  0.00  0.00    +0.000 A 
ATOM     19  C   UNL     1      46.722   6.387  12.636  0.00  0.00    +0.000 A 
ATOM     20  C   UNL     1      45.651   6.167  11.752  0.00  0.00    +0.000 A 
BRANCH  19  21
ATOM     21  N   UNL     1      47.633   7.397  12.334  0.00  0.00    +0.000 N 
ATOM     22  C   UNL     1      47.337   8.780  12.713  0.00  0.00    +0.000 C 
ATOM     23  C   UNL     1      48.143   9.705  11.798  0.00  0.00    +0.000 C 
ATOM     24  C   UNL     1      49.638   9.382  11.839  0.00  0.00    +0.000 C 
ATOM     25  C   UNL     1      49.904   7.895  11.608  0.00  0.00    +0.000 C 
ATOM     26  C   UNL     1      49.045   7.024  12.523  0.00  0.00    +0.000 C 
ENDBRANCH  19  21
ENDBRANCH  14  15
ENDBRANCH   5  14
TORSDOF 4
ENDMDL
MODEL 4
REMARK VINA RESULT:    -7.527      3.437      6.958
REMARK INTER + INTRA:         -10.013
REMARK INTER:                  -9.204
REMARK INTRA:                  -0.809
REMARK UNBOUND:                -0.726
REMARK  Name = 
REMARK  4 active torsions:
REMARK  status: ('A' for Active; 'I' for Inactive)
REMARK    1  A    between atoms: C_2  and  C_4
REMARK    2  A    between atoms: N_8  and  C_9
REMARK    3  A    between atoms: C_9  and  C_10
REMARK    4  A    between atoms: C_14  and  N_15
REMARK                            x       y       z     vdW  Elec       q    Type
REMARK                         _______ _______ _______ _____ _____    ______ ____
ROOT
ATOM      1  C   UNL     1      49.818   7.778  12.484  0.00  0.00    +0.000 A 
ATOM      2  C   UNL     1      48.860   7.823  11.477  0.00  0.00    +0.000 A 
ATOM      3  C   UNL     1      47.561   7.397  11.757  0.00  0.00    +0.000 A 
ATOM      4  C   UNL     1      47.242   6.935  13.030  0.00  0.00    +0.000 A 
ATOM      5  N   UNL     1      45.992   6.539  13.404  0.00  0.00    +0.000 N 
ATOM      6  N   UNL     1      48.171   6.866  14.003  0.00  0.00    +0.000 NA
ATOM      7  C   UNL     1      49.433   7.278  13.716  0.00  0.00    +0.000 A 
ATOM      8  H   UNL     1      45.952   6.158  14.340  0.00  0.00    +0.000 HD
ENDROOT
BRANCH   1  10
ATOM      9  N   UNL     1      52.065   8.088  13.351  0.00  0.00    +0.000 N 
ATOM     10  C   UNL     1      51.213   8.218  12.288  0.00  0.00    +0.000 C 
ATOM     11  O   UNL     1      51.604   8.647  11.211  0.00  0.00    +0.000 OA
ATOM     12  H   UNL     1      53.040   8.291  13.171  0.00  0.00    +0.000 HD
ATOM     13  H   UNL     1      51.849   7.512  14.153  0.00  0.00    +0.000 HD
ENDBRANCH   1  10
BRANCH   5  14
ATOM     14  C   UNL     1      44.828   6.441  12.563  0.00  0.00    +0.000 C 
BRANCH  14  15
ATOM     15  C   UNL     1      44.505   5.041  12.098  0.00  0.00    +0.000 A 
ATOM     16  C   UNL     1      43.610   4.178  12.737  0.00  0.00    +0.000 A 
ATOM     17  C   UNL     1      43.354   2.912  12.207  0.00  0.00    +0.000 A 
ATOM     18  C   UNL     1      43.979   2.495  11.026  0.00  0.00    +0.000 A 
ATOM     19  C   UNL     1      44.872   3.333  10.354  0.00  0.00    +0.000 A 
ATOM     20  C   UNL     1      45.131   4.591  10.924  0.00  0.00    +0.000 A 
BRANCH  19  21
ATOM     21  N   UNL     1      45.526   2.994   9.171  0.00  0.00    +0.000 N 
ATOM     22  C   UNL     1      45.477   1.614   8.683  0.00  0.00    +0.000 C 
ATOM     23  C   UNL     1      46.685   1.391   7.771  0.00  0.00    +0.000 C 
ATOM     24  C   UNL     1      46.743   2.422   6.642  0.00  0.00    +0.000 C 
ATOM     25  C   UNL     1      46.620   3.851   7.172  0.00  0.00    +0.000 C 
ATOM     26  C   UNL     1      45.419   4.001   8.103  0.00  0.00    +0.000 C 
ENDBRANCH  19  21
ENDBRANCH  14  15
ENDBRANCH   5  14
TORSDOF 4
ENDMDL
MODEL 5
REMARK VINA RESULT:    -7.421      4.981      8.487
REMARK INTER + INTRA:          -9.882
REMARK INTER:                  -9.396
REMARK INTRA:                  -0.486
REMARK UNBOUND:                -0.726
REMARK  Name = 
REMARK  4 active torsions:
REMARK  status: ('A' for Active; 'I' for Inactive)
REMARK    1  A    between atoms: C_2  and  C_4
REMARK    2  A    between atoms: N_8  and  C_9
REMARK    3  A    between atoms: C_9  and  C_10
REMARK    4  A    between atoms: C_14  and  N_15
REMARK                            x       y       z     vdW  Elec       q    Type
REMARK                         _______ _______ _______ _____ _____    ______ ____
ROOT
ATOM      1  C   UNL     1      48.612   4.443  18.284  0.00  0.00    +0.000 A 
ATOM      2  C   UNL     1      48.627   5.524  17.408  0.00  0.00    +0.000 A 
ATOM      3  C   UNL     1      47.899   5.444  16.221  0.00  0.00    +0.000 A 
ATOM      4  C   UNL     1      47.173   4.294  15.928  0.00  0.00    +0.000 A 
ATOM      5  N   UNL     1      46.401   4.143  14.813  0.00  0.00    +0.000 N 
ATOM      6  N   UNL     1      47.174   3.234  16.760  0.00  0.00    +0.000 NA
ATOM      7  C   UNL     1      47.892   3.322  17.910  0.00  0.00    +0.000 A 
ATOM      8  H   UNL     1      46.006   3.217  14.717  0.00  0.00    +0.000 HD
ENDROOT
BRANCH   1  10
ATOM      9  N   UNL     1      48.654   4.013  20.673  0.00  0.00    +0.000 N 
ATOM     10  C   UNL     1      49.339   4.439  19.568  0.00  0.00    +0.000 C 
ATOM     11  O   UNL     1      50.516   4.766  19.639  0.00  0.00    +0.000 OA
ATOM     12  H   UNL     1      49.193   3.912  21.524  0.00  0.00    +0.000 HD
ATOM     13  H   UNL     1      47.784   3.502  20.609  0.00  0.00    +0.000 HD
ENDBRANCH   1  10
BRANCH   5  14
ATOM     14  C   UNL     1      46.266   5.074  13.724  0.00  0.00    +0.000 C 
BRANCH  14  15
ATOM     15  C   UNL     1      45.251   4.675  12.679  0.00  0.00    +0.000 A 
ATOM     16  C   UNL     1      43.871   4.858  12.801  0.00  0.00    +0.000 A 
ATOM     17  C   UNL     1      43.017   4.486  11.762  0.00  0.00    +0.000 A 
ATOM     18  C   UNL     1      43.530   3.936  10.581  0.00  0.00    +0.000 A 
ATOM     19  C   UNL     1      44.904   3.746  10.418  0.00  0.00    +0.000 A 
ATOM     20  C   UNL     1      45.738   4.106  11.491  0.00  0.00    +0.000 A 
BRANCH  19  21
ATOM     21  N   UNL     1      45.492   3.213   9.272  0.00  0.00    +0.000 N 
ATOM     22  C   UNL     1      45.224   1.823   8.897  0.00  0.00    +0.000 C 
ATOM     23  C   UNL     1      46.378   1.339   8.017  0.00  0.00    +0.000 C 
ATOM     24  C   UNL     1      46.593   2.253   6.809  0.00  0.00    +0.000 C 
ATOM     25  C   UNL     1      46.699   3.721   7.220  0.00  0.00    +0.000 C 
ATOM     26  C   UNL     1      45.541   4.135   8.125  0.00  0.00    +0.000 C 
ENDBRANCH  19  21
ENDBRANCH  14  15
ENDBRANCH   5  14
TORSDOF 4
ENDMDL
MODEL 6
REMARK VINA RESULT:    -6.624      5.993      8.269
REMARK INTER + INTRA:          -8.898
REMARK INTER:                  -8.139
REMARK INTRA:                  -0.759
REMARK UNBOUND:                -0.726
REMARK  Name = 
REMARK  4 active torsions:
REMARK  status: ('A' for Active; 'I' for Inactive)
REMARK    1  A    between atoms: C_2  and  C_4
REMARK    2  A    between atoms: N_8  and  C_9
REMARK    3  A    between atoms: C_9  and  C_10
REMARK    4  A    between atoms: C_14  and  N_15
REMARK                            x       y       z     vdW  Elec       q    Type
REMARK                         _______ _______ _______ _____ _____    ______ ____
ROOT
ATOM      1  C   UNL     1      51.727   2.633  17.799  0.00  0.00    +0.000 A 
ATOM      2  C   UNL     1      51.050   3.839  17.944  0.00  0.00    +0.000 A 
ATOM      3  C   UNL     1      49.764   3.963  17.417  0.00  0.00    +0.000 A 
ATOM      4  C   UNL     1      49.179   2.887  16.757  0.00  0.00    +0.000 A 
ATOM      5  N   UNL     1      47.914   2.903  16.247  0.00  0.00    +0.000 N 
ATOM      6  N   UNL     1      49.839   1.724  16.591  0.00  0.00    +0.000 NA
ATOM      7  C   UNL     1      51.092   1.618  17.103  0.00  0.00    +0.000 A 
ATOM      8  H   UNL     1      47.675   2.068  15.730  0.00  0.00    +0.000 HD
ENDROOT
BRANCH   1  10
ATOM      9  N   UNL     1      53.328   2.810  19.616  0.00  0.00    +0.000 N 
ATOM     10  C   UNL     1      53.084   2.402  18.333  0.00  0.00    +0.000 C 
ATOM     11  O   UNL     1      53.945   1.837  17.673  0.00  0.00    +0.000 OA
ATOM     12  H   UNL     1      54.225   2.550  20.006  0.00  0.00    +0.000 HD
ATOM     13  H   UNL     1      52.587   3.039  20.264  0.00  0.00    +0.000 HD
ENDBRANCH   1  10
BRANCH   5  14
ATOM     14  C   UNL     1      47.009   4.022  16.216  0.00  0.00    +0.000 C 
BRANCH  14  15
ATOM     15  C   UNL     1      47.128   4.892  14.987  0.00  0.00    +0.000 A 
ATOM     16  C   UNL     1      47.938   6.027  14.892  0.00  0.00    +0.000 A 
ATOM     17  C   UNL     1      48.004   6.747  13.698  0.00  0.00    +0.000 A 
ATOM     18  C   UNL     1      47.271   6.336  12.578  0.00  0.00    +0.000 A 
ATOM     19  C   UNL     1      46.458   5.201  12.631  0.00  0.00    +0.000 A 
ATOM     20  C   UNL     1      46.390   4.511  13.854  0.00  0.00    +0.000 A 
BRANCH  19  21
ATOM     21  N   UNL     1      45.707   4.724  11.559  0.00  0.00    +0.000 N 
ATOM     22  C   UNL     1      44.432   4.048  11.809  0.00  0.00    +0.000 C 
ATOM     23  C   UNL     1      44.129   3.151  10.607  0.00  0.00    +0.000 C 
ATOM     24  C   UNL     1      44.140   3.936   9.294  0.00  0.00    +0.000 C 
ATOM     25  C   UNL     1      45.413   4.768   9.142  0.00  0.00    +0.000 C 
ATOM     26  C   UNL     1      45.682   5.613  10.386  0.00  0.00    +0.000 C 
ENDBRANCH  19  21
ENDBRANCH  14  15
ENDBRANCH   5  14
TORSDOF 4
ENDMDL
MODEL 7
REMARK VINA RESULT:    -6.517      4.012      6.512
REMARK INTER + INTRA:          -8.766
REMARK INTER:                  -8.008
REMARK INTRA:                  -0.758
REMARK UNBOUND:                -0.726
REMARK  Name = 
REMARK  4 active torsions:
REMARK  status: ('A' for Active; 'I' for Inactive)
REMARK    1  A    between atoms: C_2  and  C_4
REMARK    2  A    between atoms: N_8  and  C_9
REMARK    3  A    between atoms: C_9  and  C_10
REMARK    4  A    between atoms: C_14  and  N_15
REMARK                            x       y       z     vdW  Elec       q    Type
REMARK                         _______ _______ _______ _____ _____    ______ ____
ROOT
ATOM      1  C   UNL     1      44.328   4.211  11.468  0.00  0.00    +0.000 A 
ATOM      2  C   UNL     1      45.159   5.046  10.728  0.00  0.00    +0.000 A 
ATOM      3  C   UNL     1      45.518   6.286  11.257  0.00  0.00    +0.000 A 
ATOM      4  C   UNL     1      45.044   6.671  12.507  0.00  0.00    +0.000 A 
ATOM      5  N   UNL     1      45.374   7.845  13.119  0.00  0.00    +0.000 N 
ATOM      6  N   UNL     1      44.219   5.878  13.218  0.00  0.00    +0.000 NA
ATOM      7  C   UNL     1      43.872   4.676  12.690  0.00  0.00    +0.000 A 
ATOM      8  H   UNL     1      44.880   8.002  13.986  0.00  0.00    +0.000 HD
ENDROOT
BRANCH   1  10
ATOM      9  N   UNL     1      44.652   2.295  10.011  0.00  0.00    +0.000 N 
ATOM     10  C   UNL     1      43.905   2.877  10.999  0.00  0.00    +0.000 C 
ATOM     11  O   UNL     1      42.949   2.296  11.496  0.00  0.00    +0.000 OA
ATOM     12  H   UNL     1      44.417   1.340   9.776  0.00  0.00    +0.000 HD
ATOM     13  H   UNL     1      45.576   2.623   9.765  0.00  0.00    +0.000 HD
ENDBRANCH   1  10
BRANCH   5  14
ATOM     14  C   UNL     1      46.175   8.909  12.572  0.00  0.00    +0.000 C 
BRANCH  14  15
ATOM     15  C   UNL     1      47.663   8.652  12.595  0.00  0.00    +0.000 A 
ATOM     16  C   UNL     1      48.555   9.055  11.599  0.00  0.00    +0.000 A 
ATOM     17  C   UNL     1      49.921   8.798  11.731  0.00  0.00    +0.000 A 
ATOM     18  C   UNL     1      50.416   8.145  12.866  0.00  0.00    +0.000 A 
ATOM     19  C   UNL     1      49.556   7.736  13.888  0.00  0.00    +0.000 A 
ATOM     20  C   UNL     1      48.183   7.984  13.716  0.00  0.00    +0.000 A 
BRANCH  19  21
ATOM     21  N   UNL     1      49.972   7.089  15.050  0.00  0.00    +0.000 N 
ATOM     22  C   UNL     1      51.244   7.462  15.673  0.00  0.00    +0.000 C 
ATOM     23  C   UNL     1      51.723   6.279  16.517  0.00  0.00    +0.000 C 
ATOM     24  C   UNL     1      50.666   5.840  17.533  0.00  0.00    +0.000 C 
ATOM     25  C   UNL     1      49.303   5.623  16.875  0.00  0.00    +0.000 C 
ATOM     26  C   UNL     1      48.897   6.821  16.019  0.00  0.00    +0.000 C 
ENDBRANCH  19  21
ENDBRANCH  14  15
ENDBRANCH   5  14
TORSDOF 4
ENDMDL
MODEL 8
REMARK VINA RESULT:    -6.393      4.349      7.177
REMARK INTER + INTRA:          -8.613
REMARK INTER:                  -7.870
REMARK INTRA:                  -0.743
REMARK UNBOUND:                -0.726
REMARK  Name = 
REMARK  4 active torsions:
REMARK  status: ('A' for Active; 'I' for Inactive)
REMARK    1  A    between atoms: C_2  and  C_4
REMARK    2  A    between atoms: N_8  and  C_9
REMARK    3  A    between atoms: C_9  and  C_10
REMARK    4  A    between atoms: C_14  and  N_15
REMARK                            x       y       z     vdW  Elec       q    Type
REMARK                         _______ _______ _______ _____ _____    ______ ____
ROOT
ATOM      1  C   UNL     1      44.737   5.243  10.963  0.00  0.00    +0.000 A 
ATOM      2  C   UNL     1      46.002   5.720  10.636  0.00  0.00    +0.000 A 
ATOM      3  C   UNL     1      46.618   6.644  11.481  0.00  0.00    +0.000 A 
ATOM      4  C   UNL     1      45.964   7.076  12.630  0.00  0.00    +0.000 A 
ATOM      5  N   UNL     1      46.504   7.944  13.533  0.00  0.00    +0.000 N 
ATOM      6  N   UNL     1      44.728   6.637  12.940  0.00  0.00    +0.000 NA
ATOM      7  C   UNL     1      44.138   5.741  12.107  0.00  0.00    +0.000 A 
ATOM      8  H   UNL     1      45.865   8.213  14.269  0.00  0.00    +0.000 HD
ENDROOT
BRANCH   1  10
ATOM      9  N   UNL     1      44.093   4.393   8.782  0.00  0.00    +0.000 N 
ATOM     10  C   UNL     1      44.013   4.255  10.141  0.00  0.00    +0.000 C 
ATOM     11  O   UNL     1      43.396   3.327  10.648  0.00  0.00    +0.000 OA
ATOM     12  H   UNL     1      43.683   3.651   8.230  0.00  0.00    +0.000 HD
ATOM     13  H   UNL     1      44.787   4.978   8.335  0.00  0.00    +0.000 HD
ENDBRANCH   1  10
BRANCH   5  14
ATOM     14  C   UNL     1      47.769   8.624  13.429  0.00  0.00    +0.000 C 
BRANCH  14  15
ATOM     15  C   UNL     1      48.805   8.180  14.433  0.00  0.00    +0.000 A 
ATOM     16  C   UNL     1      49.952   8.906  14.765  0.00  0.00    +0.000 A 
ATOM     17  C   UNL     1      50.834   8.424  15.734  0.00  0.00    +0.000 A 
ATOM     18  C   UNL     1      50.577   7.216  16.393  0.00  0.00    +0.000 A 
ATOM     19  C   UNL     1      49.436   6.467  16.095  0.00  0.00    +0.000 A 
ATOM     20  C   UNL     1      48.579   6.963  15.097  0.00  0.00    +0.000 A 
BRANCH  19  21
ATOM     21  N   UNL     1      49.106   5.262  16.713  0.00  0.00    +0.000 N 
ATOM     22  C   UNL     1      50.138   4.503  17.422  0.00  0.00    +0.000 C 
ATOM     23  C   UNL     1      49.695   3.040  17.479  0.00  0.00    +0.000 C 
ATOM     24  C   UNL     1      48.307   2.890  18.105  0.00  0.00    +0.000 C 
ATOM     25  C   UNL     1      47.287   3.823  17.452  0.00  0.00    +0.000 C 
ATOM     26  C   UNL     1      47.800   5.260  17.392  0.00  0.00    +0.000 C 
ENDBRANCH  19  21
ENDBRANCH  14  15
ENDBRANCH   5  14
TORSDOF 4
ENDMDL
MODEL 9
REMARK VINA RESULT:    -6.314      5.412      8.588
REMARK INTER + INTRA:          -8.517
REMARK INTER:                  -7.955
REMARK INTRA:                  -0.561
REMARK UNBOUND:                -0.726
REMARK  Name = 
REMARK  4 active torsions:
REMARK  status: ('A' for Active; 'I' for Inactive)
REMARK    1  A    between atoms: C_2  and  C_4
REMARK    2  A    between atoms: N_8  and  C_9
REMARK    3  A    between atoms: C_9  and  C_10
REMARK    4  A    between atoms: C_14  and  N_15
REMARK                            x       y       z     vdW  Elec       q    Type
REMARK                         _______ _______ _______ _____ _____    ______ ____
ROOT
ATOM      1  C   UNL     1      49.080   5.225  18.795  0.00  0.00    +0.000 A 
ATOM      2  C   UNL     1      49.466   6.368  18.104  0.00  0.00    +0.000 A 
ATOM      3  C   UNL     1      49.024   6.550  16.793  0.00  0.00    +0.000 A 
ATOM      4  C   UNL     1      48.210   5.592  16.197  0.00  0.00    +0.000 A 
ATOM      5  N   UNL     1      47.698   5.705  14.937  0.00  0.00    +0.000 N 
ATOM      6  N   UNL     1      47.852   4.470  16.852  0.00  0.00    +0.000 NA
ATOM      7  C   UNL     1      48.294   4.303  18.125  0.00  0.00    +0.000 A 
ATOM      8  H   UNL     1      47.193   4.885  14.631  0.00  0.00    +0.000 HD
ENDROOT
BRANCH   1  10
ATOM      9  N   UNL     1      48.765   4.014  20.876  0.00  0.00    +0.000 N 
ATOM     10  C   UNL     1      49.486   4.951  20.187  0.00  0.00    +0.000 C 
ATOM     11  O   UNL     1      50.449   5.509  20.696  0.00  0.00    +0.000 OA
ATOM     12  H   UNL     1      49.118   3.758  21.789  0.00  0.00    +0.000 HD
ATOM     13  H   UNL     1      48.143   3.362  20.417  0.00  0.00    +0.000 HD
ENDBRANCH   1  10
BRANCH   5  14
ATOM     14  C   UNL     1      47.964   6.753  13.987  0.00  0.00    +0.000 C 
BRANCH  14  15
ATOM     15  C   UNL     1      46.834   7.031  13.025  0.00  0.00    +0.000 A 
ATOM     16  C   UNL     1      46.194   8.265  12.886  0.00  0.00    +0.000 A 
ATOM     17  C   UNL     1      45.179   8.430  11.941  0.00  0.00    +0.000 A 
ATOM     18  C   UNL     1      44.798   7.367  11.114  0.00  0.00    +0.000 A 
ATOM     19  C   UNL     1      45.420   6.120  11.217  0.00  0.00    +0.000 A 
ATOM     20  C   UNL     1      46.420   5.976  12.195  0.00  0.00    +0.000 A 
BRANCH  19  21
ATOM     21  N   UNL     1      45.102   5.018  10.426  0.00  0.00    +0.000 N 
ATOM     22  C   UNL     1      45.691   4.888   9.092  0.00  0.00    +0.000 C 
ATOM     23  C   UNL     1      44.779   3.984   8.259  0.00  0.00    +0.000 C 
ATOM     24  C   UNL     1      44.540   2.635   8.940  0.00  0.00    +0.000 C 
ATOM     25  C   UNL     1      44.088   2.805  10.390  0.00  0.00    +0.000 C 
ATOM     26  C   UNL     1      45.015   3.744  11.159  0.00  0.00    +0.000 C 
ENDBRANCH  19  21
ENDBRANCH  14  15
ENDBRANCH   5  14
TORSDOF 4
ENDMDL
