MODEL 1
REMARK VINA RESULT:    -7.970      0.000      0.000
REMARK INTER + INTRA:          -9.852
REMARK INTER:                  -9.601
REMARK INTRA:                  -0.252
REMARK UNBOUND:                -0.252
REMARK  Name = 
REMARK  4 active torsions:
REMARK  status: ('A' for Active; 'I' for Inactive)
REMARK    1  A    between atoms: O_1  and  C_2
REMARK    2  A    between atoms: C_2  and  C_3
REMARK    3  A    between atoms: C_6  and  C_7
REMARK    4  A    between atoms: C_7  and  N_8
REMARK                            x       y       z     vdW  Elec       q    Type
REMARK                         _______ _______ _______ _____ _____    ______ ____
ROOT
ATOM      1  C   UNL     1      44.033   2.769  10.314  0.00  0.00    +0.000 C 
ENDROOT
BRANCH   1   2
ATOM      2  N   UNL     1      44.070   3.969  11.142  0.00  0.00    +0.000 N 
ATOM      3  C   UNL     1      43.498   5.175  10.824  0.00  0.00    +0.000 A 
ATOM      4  N   UNL     1      44.102   6.177  11.414  0.00  0.00    +0.000 NA
ATOM      5  C   UNL     1      45.087   5.602  12.179  0.00  0.00    +0.000 A 
ATOM      6  C   UNL     1      46.098   6.211  12.937  0.00  0.00    +0.000 A 
ATOM      7  C   UNL     1      46.998   5.399  13.637  0.00  0.00    +0.000 A 
ATOM      8  C   UNL     1      46.866   4.009  13.620  0.00  0.00    +0.000 A 
ATOM      9  C   UNL     1      45.873   3.383  12.858  0.00  0.00    +0.000 A 
ATOM     10  C   UNL     1      45.023   4.212  12.113  0.00  0.00    +0.000 A 
ENDBRANCH   1   2
BRANCH   1  14
ATOM     11  C   UNL     1      46.664   2.675   6.871  0.00  0.00    +0.000 A 
ATOM     12  C   UNL     1      46.459   1.526   7.645  0.00  0.00    +0.000 A 
ATOM     13  C   UNL     1      45.627   1.560   8.768  0.00  0.00    +0.000 A 
ATOM     14  C   UNL     1      44.994   2.750   9.153  0.00  0.00    +0.000 A 
ATOM     15  C   UNL     1      45.217   3.907   8.396  0.00  0.00    +0.000 A 
ATOM     16  C   UNL     1      46.041   3.868   7.267  0.00  0.00    +0.000 A 
BRANCH  11  17
ATOM     17  C   UNL     1      47.584   2.672   5.678  0.00  0.00    +0.000 C 
BRANCH  17  18
ATOM     18  O   UNL     1      48.617   1.702   5.825  0.00  0.00    +0.000 OA
ATOM     19  H   UNL     1      49.306   1.931   5.182  0.00  0.00    +0.000 HD
ENDBRANCH  17  18
ENDBRANCH  11  17
ENDBRANCH   1  14
TORSDOF 4
ENDMDL
MODEL 2
REMARK VINA RESULT:    -7.468      1.317      2.043
REMARK INTER + INTRA:          -9.248
REMARK INTER:                  -8.831
REMARK INTRA:                  -0.417
REMARK UNBOUND:                -0.252
REMARK  Name = 
REMARK  4 active torsions:
REMARK  status: ('A' for Active; 'I' for Inactive)
REMARK    1  A    between atoms: O_1  and  C_2
REMARK    2  A    between atoms: C_2  and  C_3
REMARK    3  A    between atoms: C_6  and  C_7
REMARK    4  A    between atoms: C_7  and  N_8
REMARK                            x       y       z     vdW  Elec       q    Type
REMARK                         _______ _______ _______ _____ _____    ______ ____
ROOT
ATOM      1  C   UNL     1      44.019   3.468   9.685  0.00  0.00    +0.000 C 
ENDROOT
BRANCH   1   2
ATOM      2  N   UNL     1      44.491   3.706  11.044  0.00  0.00    +0.000 N 
ATOM      3  C   UNL     1      43.995   3.111  12.176  0.00  0.00    +0.000 A 
ATOM      4  N   UNL     1      44.182   3.849  13.243  0.00  0.00    +0.000 NA
ATOM      5  C   UNL     1      44.862   4.957  12.798  0.00  0.00    +0.000 A 
ATOM      6  C   UNL     1      45.228   6.119  13.494  0.00  0.00    +0.000 A 
ATOM      7  C   UNL     1      45.922   7.123  12.811  0.00  0.00    +0.000 A 
ATOM      8  C   UNL     1      46.285   6.956  11.473  0.00  0.00    +0.000 A 
ATOM      9  C   UNL     1      45.915   5.811  10.757  0.00  0.00    +0.000 A 
ATOM     10  C   UNL     1      45.165   4.847  11.442  0.00  0.00    +0.000 A 
ENDBRANCH   1   2
BRANCH   1  14
ATOM     11  C   UNL     1      47.160   2.219   6.971  0.00  0.00    +0.000 A 
ATOM     12  C   UNL     1      46.666   3.530   6.938  0.00  0.00    +0.000 A 
ATOM     13  C   UNL     1      45.639   3.928   7.798  0.00  0.00    +0.000 A 
ATOM     14  C   UNL     1      45.068   3.020   8.701  0.00  0.00    +0.000 A 
ATOM     15  C   UNL     1      45.542   1.702   8.719  0.00  0.00    +0.000 A 
ATOM     16  C   UNL     1      46.578   1.308   7.865  0.00  0.00    +0.000 A 
BRANCH  11  17
ATOM     17  C   UNL     1      48.240   1.757   6.030  0.00  0.00    +0.000 C 
BRANCH  17  18
ATOM     18  O   UNL     1      48.308   2.587   4.875  0.00  0.00    +0.000 OA
ATOM     19  H   UNL     1      48.862   3.347   5.111  0.00  0.00    +0.000 HD
ENDBRANCH  17  18
ENDBRANCH  11  17
ENDBRANCH   1  14
TORSDOF 4
ENDMDL
MODEL 3
REMARK VINA RESULT:    -7.078      2.746      5.969
REMARK INTER + INTRA:          -8.778
REMARK INTER:                  -8.264
REMARK INTRA:                  -0.514
REMARK UNBOUND:                -0.252
REMARK  Name = 
REMARK  4 active torsions:
REMARK  status: ('A' for Active; 'I' for Inactive)
REMARK    1  A    between atoms: O_1  and  C_2
REMARK    2  A    between atoms: C_2  and  C_3
REMARK    3  A    between atoms: C_6  and  C_7
REMARK    4  A    between atoms: C_7  and  N_8
REMARK                            x       y       z     vdW  Elec       q    Type
REMARK                         _______ _______ _______ _____ _____    ______ ____
ROOT
ATOM      1  C   UNL     1      44.199   4.327   9.652  0.00  0.00    +0.000 C 
ENDROOT
BRANCH   1   2
ATOM      2  N   UNL     1      44.600   3.131   8.920  0.00  0.00    +0.000 N 
ATOM      3  C   UNL     1      44.336   1.840   9.298  0.00  0.00    +0.000 A 
ATOM      4  N   UNL     1      45.216   0.996   8.818  0.00  0.00    +0.000 NA
ATOM      5  C   UNL     1      46.072   1.761   8.064  0.00  0.00    +0.000 A 
ATOM      6  C   UNL     1      47.257   1.392   7.408  0.00  0.00    +0.000 A 
ATOM      7  C   UNL     1      47.965   2.367   6.697  0.00  0.00    +0.000 A 
ATOM      8  C   UNL     1      47.480   3.673   6.602  0.00  0.00    +0.000 A 
ATOM      9  C   UNL     1      46.309   4.064   7.262  0.00  0.00    +0.000 A 
ATOM     10  C   UNL     1      45.650   3.088   8.021  0.00  0.00    +0.000 A 
ENDBRANCH   1   2
BRANCH   1  14
ATOM     11  C   UNL     1      46.736   5.644  12.910  0.00  0.00    +0.000 A 
ATOM     12  C   UNL     1      46.690   6.359  11.706  0.00  0.00    +0.000 A 
ATOM     13  C   UNL     1      45.888   5.924  10.647  0.00  0.00    +0.000 A 
ATOM     14  C   UNL     1      45.126   4.753  10.761  0.00  0.00    +0.000 A 
ATOM     15  C   UNL     1      45.189   4.022  11.953  0.00  0.00    +0.000 A 
ATOM     16  C   UNL     1      45.984   4.465  13.016  0.00  0.00    +0.000 A 
BRANCH  11  17
ATOM     17  C   UNL     1      47.619   6.073  14.052  0.00  0.00    +0.000 C 
BRANCH  17  18
ATOM     18  O   UNL     1      47.833   5.005  14.969  0.00  0.00    +0.000 OA
ATOM     19  H   UNL     1      47.636   5.354  15.852  0.00  0.00    +0.000 HD
ENDBRANCH  17  18
ENDBRANCH  11  17
ENDBRANCH   1  14
TORSDOF 4
ENDMDL
MODEL 4
REMARK VINA RESULT:    -6.781      2.757      5.877
REMARK INTER + INTRA:          -8.420
REMARK INTER:                  -7.890
REMARK INTRA:                  -0.530
REMARK UNBOUND:                -0.252
REMARK  Name = 
REMARK  4 active torsions:
REMARK  status: ('A' for Active; 'I' for Inactive)
REMARK    1  A    between atoms: O_1  and  C_2
REMARK    2  A    between atoms: C_2  and  C_3
REMARK    3  A    between atoms: C_6  and  C_7
REMARK    4  A    between atoms: C_7  and  N_8
REMARK                            x       y       z     vdW  Elec       q    Type
REMARK                         _______ _______ _______ _____ _____    ______ ____
ROOT
ATOM      1  C   UNL     1      44.127   5.690  11.113  0.00  0.00    +0.000 C 
ENDROOT
BRANCH   1   2
ATOM      2  N   UNL     1      43.974   4.383  10.484  0.00  0.00    +0.000 N 
ATOM      3  C   UNL     1      43.419   3.275  11.073  0.00  0.00    +0.000 A 
ATOM      4  N   UNL     1      43.872   2.162  10.552  0.00  0.00    +0.000 NA
ATOM      5  C   UNL     1      44.731   2.555   9.555  0.00  0.00    +0.000 A 
ATOM      6  C   UNL     1      45.571   1.780   8.742  0.00  0.00    +0.000 A 
ATOM      7  C   UNL     1      46.366   2.422   7.787  0.00  0.00    +0.000 A 
ATOM      8  C   UNL     1      46.293   3.806   7.612  0.00  0.00    +0.000 A 
ATOM      9  C   UNL     1      45.473   4.598   8.424  0.00  0.00    +0.000 A 
ATOM     10  C   UNL     1      44.734   3.942   9.417  0.00  0.00    +0.000 A 
ENDBRANCH   1   2
BRANCH   1  14
ATOM     11  C   UNL     1      47.817   6.473  13.250  0.00  0.00    +0.000 A 
ATOM     12  C   UNL     1      47.518   7.159  12.065  0.00  0.00    +0.000 A 
ATOM     13  C   UNL     1      46.338   6.892  11.364  0.00  0.00    +0.000 A 
ATOM     14  C   UNL     1      45.437   5.920  11.822  0.00  0.00    +0.000 A 
ATOM     15  C   UNL     1      45.746   5.214  12.992  0.00  0.00    +0.000 A 
ATOM     16  C   UNL     1      46.921   5.490  13.698  0.00  0.00    +0.000 A 
BRANCH  11  17
ATOM     17  C   UNL     1      49.098   6.716  14.003  0.00  0.00    +0.000 C 
BRANCH  17  18
ATOM     18  O   UNL     1      49.015   6.224  15.336  0.00  0.00    +0.000 OA
ATOM     19  H   UNL     1      48.168   6.532  15.694  0.00  0.00    +0.000 HD
ENDBRANCH  17  18
ENDBRANCH  11  17
ENDBRANCH   1  14
TORSDOF 4
ENDMDL
MODEL 5
REMARK VINA RESULT:    -6.578      1.920      3.065
REMARK INTER + INTRA:          -8.176
REMARK INTER:                  -7.758
REMARK INTRA:                  -0.417
REMARK UNBOUND:                -0.252
REMARK  Name = 
REMARK  4 active torsions:
REMARK  status: ('A' for Active; 'I' for Inactive)
REMARK    1  A    between atoms: O_1  and  C_2
REMARK    2  A    between atoms: C_2  and  C_3
REMARK    3  A    between atoms: C_6  and  C_7
REMARK    4  A    between atoms: C_7  and  N_8
REMARK                            x       y       z     vdW  Elec       q    Type
REMARK                         _______ _______ _______ _____ _____    ______ ____
ROOT
ATOM      1  C   UNL     1      44.537   4.718  10.928  0.00  0.00    +0.000 C 
ENDROOT
BRANCH   1   2
ATOM      2  N   UNL     1      45.455   5.655  11.565  0.00  0.00    +0.000 N 
ATOM      3  C   UNL     1      46.344   5.345  12.562  0.00  0.00    +0.000 A 
ATOM      4  N   UNL     1      46.635   6.386  13.304  0.00  0.00    +0.000 NA
ATOM      5  C   UNL     1      45.935   7.429  12.748  0.00  0.00    +0.000 A 
ATOM      6  C   UNL     1      45.795   8.750  13.198  0.00  0.00    +0.000 A 
ATOM      7  C   UNL     1      45.015   9.638  12.449  0.00  0.00    +0.000 A 
ATOM      8  C   UNL     1      44.424   9.232  11.251  0.00  0.00    +0.000 A 
ATOM      9  C   UNL     1      44.539   7.914  10.794  0.00  0.00    +0.000 A 
ATOM     10  C   UNL     1      45.270   7.025  11.592  0.00  0.00    +0.000 A 
ENDBRANCH   1   2
BRANCH   1  14
ATOM     11  C   UNL     1      46.285   2.547   7.608  0.00  0.00    +0.000 A 
ATOM     12  C   UNL     1      46.298   3.948   7.632  0.00  0.00    +0.000 A 
ATOM     13  C   UNL     1      45.716   4.649   8.692  0.00  0.00    +0.000 A 
ATOM     14  C   UNL     1      45.091   3.966   9.745  0.00  0.00    +0.000 A 
ATOM     15  C   UNL     1      45.054   2.567   9.711  0.00  0.00    +0.000 A 
ATOM     16  C   UNL     1      45.646   1.866   8.655  0.00  0.00    +0.000 A 
BRANCH  11  17
ATOM     17  C   UNL     1      46.872   1.770   6.460  0.00  0.00    +0.000 C 
BRANCH  17  18
ATOM     18  O   UNL     1      48.227   1.413   6.717  0.00  0.00    +0.000 OA
ATOM     19  H   UNL     1      48.757   1.801   6.003  0.00  0.00    +0.000 HD
ENDBRANCH  17  18
ENDBRANCH  11  17
ENDBRANCH   1  14
TORSDOF 4
ENDMDL
MODEL 6
REMARK VINA RESULT:    -6.226      3.376      6.236
REMARK INTER + INTRA:          -7.751
REMARK INTER:                  -7.462
REMARK INTRA:                  -0.289
REMARK UNBOUND:                -0.252
REMARK  Name = 
REMARK  4 active torsions:
REMARK  status: ('A' for Active; 'I' for Inactive)
REMARK    1  A    between atoms: O_1  and  C_2
REMARK    2  A    between atoms: C_2  and  C_3
REMARK    3  A    between atoms: C_6  and  C_7
REMARK    4  A    between atoms: C_7  and  N_8
REMARK                            x       y       z     vdW  Elec       q    Type
REMARK                         _______ _______ _______ _____ _____    ______ ____
ROOT
ATOM      1  C   UNL     1      45.484   5.019  12.899  0.00  0.00    +0.000 C 
ENDROOT
BRANCH   1   2
ATOM      2  N   UNL     1      44.604   4.392  11.920  0.00  0.00    +0.000 N 
ATOM      3  C   UNL     1      43.663   3.433  12.193  0.00  0.00    +0.000 A 
ATOM      4  N   UNL     1      43.412   2.678  11.152  0.00  0.00    +0.000 NA
ATOM      5  C   UNL     1      44.194   3.186  10.143  0.00  0.00    +0.000 A 
ATOM      6  C   UNL     1      44.400   2.703   8.843  0.00  0.00    +0.000 A 
ATOM      7  C   UNL     1      45.259   3.405   7.990  0.00  0.00    +0.000 A 
ATOM      8  C   UNL     1      45.866   4.591   8.408  0.00  0.00    +0.000 A 
ATOM      9  C   UNL     1      45.685   5.081   9.707  0.00  0.00    +0.000 A 
ATOM     10  C   UNL     1      44.872   4.328  10.565  0.00  0.00    +0.000 A 
ENDBRANCH   1   2
BRANCH   1  14
ATOM     11  C   UNL     1      46.593   9.156  12.235  0.00  0.00    +0.000 A 
ATOM     12  C   UNL     1      45.245   8.778  12.294  0.00  0.00    +0.000 A 
ATOM     13  C   UNL     1      44.886   7.441  12.487  0.00  0.00    +0.000 A 
ATOM     14  C   UNL     1      45.868   6.447  12.609  0.00  0.00    +0.000 A 
ATOM     15  C   UNL     1      47.215   6.818  12.524  0.00  0.00    +0.000 A 
ATOM     16  C   UNL     1      47.573   8.158  12.341  0.00  0.00    +0.000 A 
BRANCH  11  17
ATOM     17  C   UNL     1      47.004  10.584  11.991  0.00  0.00    +0.000 C 
BRANCH  17  18
ATOM     18  O   UNL     1      47.787  11.087  13.069  0.00  0.00    +0.000 OA
ATOM     19  H   UNL     1      47.274  11.804  13.474  0.00  0.00    +0.000 HD
ENDBRANCH  17  18
ENDBRANCH  11  17
ENDBRANCH   1  14
TORSDOF 4
ENDMDL
MODEL 7
REMARK VINA RESULT:    -5.856      2.923      4.560
REMARK INTER + INTRA:          -7.306
REMARK INTER:                  -6.838
REMARK INTRA:                  -0.467
REMARK UNBOUND:                -0.252
REMARK  Name = 
REMARK  4 active torsions:
REMARK  status: ('A' for Active; 'I' for Inactive)
REMARK    1  A    between atoms: O_1  and  C_2
REMARK    2  A    between atoms: C_2  and  C_3
REMARK    3  A    between atoms: C_6  and  C_7
REMARK    4  A    between atoms: C_7  and  N_8
REMARK                            x       y       z     vdW  Elec       q    Type
REMARK                         _______ _______ _______ _____ _____    ______ ____
ROOT
ATOM      1  C   UNL     1      45.803   6.213  12.894  0.00  0.00    +0.000 C 
ENDROOT
BRANCH   1   2
ATOM      2  N   UNL     1      47.179   6.143  13.370  0.00  0.00    +0.000 N 
ATOM      3  C   UNL     1      47.575   5.676  14.597  0.00  0.00    +0.000 A 
ATOM      4  N   UNL     1      48.715   6.198  14.979  0.00  0.00    +0.000 NA
ATOM      5  C   UNL     1      49.100   7.014  13.944  0.00  0.00    +0.000 A 
ATOM      6  C   UNL     1      50.188   7.896  13.859  0.00  0.00    +0.000 A 
ATOM      7  C   UNL     1      50.370   8.631  12.683  0.00  0.00    +0.000 A 
ATOM      8  C   UNL     1      49.512   8.459  11.594  0.00  0.00    +0.000 A 
ATOM      9  C   UNL     1      48.412   7.596  11.665  0.00  0.00    +0.000 A 
ATOM     10  C   UNL     1      48.212   6.918  12.875  0.00  0.00    +0.000 A 
ENDBRANCH   1   2
BRANCH   1  14
ATOM     11  C   UNL     1      44.891   3.264   9.851  0.00  0.00    +0.000 A 
ATOM     12  C   UNL     1      45.273   4.564   9.494  0.00  0.00    +0.000 A 
ATOM     13  C   UNL     1      45.547   5.522  10.475  0.00  0.00    +0.000 A 
ATOM     14  C   UNL     1      45.429   5.207  11.836  0.00  0.00    +0.000 A 
ATOM     15  C   UNL     1      45.022   3.917  12.195  0.00  0.00    +0.000 A 
ATOM     16  C   UNL     1      44.758   2.956  11.213  0.00  0.00    +0.000 A 
BRANCH  11  17
ATOM     17  C   UNL     1      44.556   2.226   8.813  0.00  0.00    +0.000 C 
BRANCH  17  18
ATOM     18  O   UNL     1      45.495   1.156   8.831  0.00  0.00    +0.000 OA
ATOM     19  H   UNL     1      46.343   1.536   9.108  0.00  0.00    +0.000 HD
ENDBRANCH  17  18
ENDBRANCH  11  17
ENDBRANCH   1  14
TORSDOF 4
ENDMDL
MODEL 8
REMARK VINA RESULT:    -5.479      4.785      6.363
REMARK INTER + INTRA:          -6.852
REMARK INTER:                  -6.517
REMARK INTRA:                  -0.335
REMARK UNBOUND:                -0.252
REMARK  Name = 
REMARK  4 active torsions:
REMARK  status: ('A' for Active; 'I' for Inactive)
REMARK    1  A    between atoms: O_1  and  C_2
REMARK    2  A    between atoms: C_2  and  C_3
REMARK    3  A    between atoms: C_6  and  C_7
REMARK    4  A    between atoms: C_7  and  N_8
REMARK                            x       y       z     vdW  Elec       q    Type
REMARK                         _______ _______ _______ _____ _____    ______ ____
ROOT
ATOM      1  C   UNL     1      48.094   5.872  13.796  0.00  0.00    +0.000 C 
ENDROOT
BRANCH   1   2
ATOM      2  N   UNL     1      48.168   6.139  15.228  0.00  0.00    +0.000 N 
ATOM      3  C   UNL     1      48.759   7.234  15.804  0.00  0.00    +0.000 A 
ATOM      4  N   UNL     1      49.165   6.989  17.025  0.00  0.00    +0.000 NA
ATOM      5  C   UNL     1      48.792   5.691  17.274  0.00  0.00    +0.000 A 
ATOM      6  C   UNL     1      49.065   4.881  18.386  0.00  0.00    +0.000 A 
ATOM      7  C   UNL     1      48.572   3.571  18.403  0.00  0.00    +0.000 A 
ATOM      8  C   UNL     1      47.783   3.092  17.356  0.00  0.00    +0.000 A 
ATOM      9  C   UNL     1      47.513   3.880  16.231  0.00  0.00    +0.000 A 
ATOM     10  C   UNL     1      48.070   5.165  16.204  0.00  0.00    +0.000 A 
ENDBRANCH   1   2
BRANCH   1  14
ATOM     11  C   UNL     1      44.035   5.381  12.354  0.00  0.00    +0.000 A 
ATOM     12  C   UNL     1      44.800   4.268  12.729  0.00  0.00    +0.000 A 
ATOM     13  C   UNL     1      46.116   4.423  13.174  0.00  0.00    +0.000 A 
ATOM     14  C   UNL     1      46.705   5.694  13.239  0.00  0.00    +0.000 A 
ATOM     15  C   UNL     1      45.952   6.806  12.841  0.00  0.00    +0.000 A 
ATOM     16  C   UNL     1      44.631   6.650  12.406  0.00  0.00    +0.000 A 
BRANCH  11  17
ATOM     17  C   UNL     1      42.628   5.236  11.838  0.00  0.00    +0.000 C 
BRANCH  17  18
ATOM     18  O   UNL     1      41.981   6.500  11.740  0.00  0.00    +0.000 OA
ATOM     19  H   UNL     1      42.539   7.055  11.173  0.00  0.00    +0.000 HD
ENDBRANCH  17  18
ENDBRANCH  11  17
ENDBRANCH   1  14
TORSDOF 4
ENDMDL
MODEL 9
REMARK VINA RESULT:    -5.341      3.273      6.088
REMARK INTER + INTRA:          -6.686
REMARK INTER:                  -6.242
REMARK INTRA:                  -0.444
REMARK UNBOUND:                -0.252
REMARK  Name = 
REMARK  4 active torsions:
REMARK  status: ('A' for Active; 'I' for Inactive)
REMARK    1  A    between atoms: O_1  and  C_2
REMARK    2  A    between atoms: C_2  and  C_3
REMARK    3  A    between atoms: C_6  and  C_7
REMARK    4  A    between atoms: C_7  and  N_8
REMARK                            x       y       z     vdW  Elec       q    Type
REMARK                         _______ _______ _______ _____ _____    ______ ____
ROOT
ATOM      1  C   UNL     1      45.983   7.065  13.161  0.00  0.00    +0.000 C 
ENDROOT
BRANCH   1   2
ATOM      2  N   UNL     1      45.607   5.656  13.141  0.00  0.00    +0.000 N 
ATOM      3  C   UNL     1      46.199   4.662  13.877  0.00  0.00    +0.000 A 
ATOM      4  N   UNL     1      46.073   3.488  13.310  0.00  0.00    +0.000 NA
ATOM      5  C   UNL     1      45.335   3.715  12.174  0.00  0.00    +0.000 A 
ATOM      6  C   UNL     1      44.992   2.831  11.140  0.00  0.00    +0.000 A 
ATOM      7  C   UNL     1      44.225   3.308  10.072  0.00  0.00    +0.000 A 
ATOM      8  C   UNL     1      43.769   4.628  10.055  0.00  0.00    +0.000 A 
ATOM      9  C   UNL     1      44.113   5.529  11.069  0.00  0.00    +0.000 A 
ATOM     10  C   UNL     1      44.936   5.048  12.096  0.00  0.00    +0.000 A 
ENDBRANCH   1   2
BRANCH   1  14
ATOM     11  C   UNL     1      50.144   8.057  12.459  0.00  0.00    +0.000 A 
ATOM     12  C   UNL     1      49.297   7.734  11.391  0.00  0.00    +0.000 A 
ATOM     13  C   UNL     1      47.960   7.393  11.618  0.00  0.00    +0.000 A 
ATOM     14  C   UNL     1      47.443   7.351  12.921  0.00  0.00    +0.000 A 
ATOM     15  C   UNL     1      48.295   7.648  13.992  0.00  0.00    +0.000 A 
ATOM     16  C   UNL     1      49.629   7.999  13.762  0.00  0.00    +0.000 A 
BRANCH  11  17
ATOM     17  C   UNL     1      51.596   8.391  12.242  0.00  0.00    +0.000 C 
BRANCH  17  18
ATOM     18  O   UNL     1      52.220   7.447  11.377  0.00  0.00    +0.000 OA
ATOM     19  H   UNL     1      52.916   7.013  11.895  0.00  0.00    +0.000 HD
ENDBRANCH  17  18
ENDBRANCH  11  17
ENDBRANCH   1  14
TORSDOF 4
ENDMDL
