MODEL 1
REMARK VINA RESULT:    -8.250      0.000      0.000
REMARK INTER + INTRA:         -10.293
REMARK INTER:                  -9.697
REMARK INTRA:                  -0.596
REMARK UNBOUND:                -0.596
REMARK  Name = 
REMARK  3 active torsions:
REMARK  status: ('A' for Active; 'I' for Inactive)
REMARK    1  A    between atoms: C_2  and  C_4
REMARK    2  A    between atoms: N_8  and  C_9
REMARK    3  A    between atoms: C_9  and  C_10
REMARK                            x       y       z     vdW  Elec       q    Type
REMARK                         _______ _______ _______ _____ _____    ______ ____
ROOT
ATOM      1  C   UNL     1      46.513   2.685   7.439  0.00  0.00    +0.000 A 
ATOM      2  C   UNL     1      46.246   4.033   7.665  0.00  0.00    +0.000 A 
ATOM      3  C   UNL     1      45.382   4.396   8.699  0.00  0.00    +0.000 A 
ATOM      4  C   UNL     1      44.802   3.413   9.486  0.00  0.00    +0.000 A 
ATOM      5  N   UNL     1      43.847   3.689  10.468  0.00  0.00    +0.000 N 
ATOM      6  N   UNL     1      45.053   2.101   9.277  0.00  0.00    +0.000 NA
ATOM      7  C   UNL     1      45.890   1.761   8.260  0.00  0.00    +0.000 A 
ATOM      8  H   UNL     1      43.650   2.795  10.914  0.00  0.00    +0.000 HD
ENDROOT
BRANCH   1  10
ATOM      9  N   UNL     1      47.427   3.036   5.224  0.00  0.00    +0.000 N 
ATOM     10  C   UNL     1      47.366   2.225   6.325  0.00  0.00    +0.000 C 
ATOM     11  O   UNL     1      47.994   1.183   6.387  0.00  0.00    +0.000 OA
ATOM     12  H   UNL     1      48.043   2.749   4.476  0.00  0.00    +0.000 HD
ATOM     13  H   UNL     1      47.119   3.998   5.233  0.00  0.00    +0.000 HD
ENDBRANCH   1  10
BRANCH   5  14
ATOM     14  C   UNL     1      43.851   4.864  11.361  0.00  0.00    +0.000 C 
ATOM     15  C   UNL     1      42.485   5.160  11.970  0.00  0.00    +0.000 C 
ATOM     16  C   UNL     1      43.123   6.164  11.074  0.00  0.00    +0.000 C 
BRANCH  14  17
ATOM     17  C   UNL     1      45.086   4.939  12.246  0.00  0.00    +0.000 A 
ATOM     18  C   UNL     1      45.884   6.088  12.337  0.00  0.00    +0.000 A 
ATOM     19  C   UNL     1      46.955   6.145  13.228  0.00  0.00    +0.000 A 
ATOM     20  C   UNL     1      47.218   5.035  14.008  0.00  0.00    +0.000 A 
ATOM     21  N   UNL     1      46.508   3.891  13.941  0.00  0.00    +0.000 NA
ATOM     22  C   UNL     1      45.467   3.877  13.071  0.00  0.00    +0.000 A 
ENDBRANCH  14  17
ENDBRANCH   5  14
TORSDOF 3
ENDMDL
MODEL 2
REMARK VINA RESULT:    -6.264      3.313      6.296
REMARK INTER + INTRA:          -7.958
REMARK INTER:                  -7.500
REMARK INTRA:                  -0.458
REMARK UNBOUND:                -0.596
REMARK  Name = 
REMARK  3 active torsions:
REMARK  status: ('A' for Active; 'I' for Inactive)
REMARK    1  A    between atoms: C_2  and  C_4
REMARK    2  A    between atoms: N_8  and  C_9
REMARK    3  A    between atoms: C_9  and  C_10
REMARK                            x       y       z     vdW  Elec       q    Type
REMARK                         _______ _______ _______ _____ _____    ______ ____
ROOT
ATOM      1  C   UNL     1      48.325   6.670  13.930  0.00  0.00    +0.000 A 
ATOM      2  C   UNL     1      47.501   5.596  14.255  0.00  0.00    +0.000 A 
ATOM      3  C   UNL     1      46.357   5.356  13.493  0.00  0.00    +0.000 A 
ATOM      4  C   UNL     1      46.057   6.186  12.424  0.00  0.00    +0.000 A 
ATOM      5  N   UNL     1      44.879   6.077  11.681  0.00  0.00    +0.000 N 
ATOM      6  N   UNL     1      46.849   7.233  12.097  0.00  0.00    +0.000 NA
ATOM      7  C   UNL     1      47.956   7.460  12.855  0.00  0.00    +0.000 A 
ATOM      8  H   UNL     1      44.961   6.768  10.938  0.00  0.00    +0.000 HD
ENDROOT
BRANCH   1  10
ATOM      9  N   UNL     1      50.573   7.564  14.051  0.00  0.00    +0.000 N 
ATOM     10  C   UNL     1      49.516   7.022  14.730  0.00  0.00    +0.000 C 
ATOM     11  O   UNL     1      49.551   6.850  15.936  0.00  0.00    +0.000 OA
ATOM     12  H   UNL     1      51.374   7.848  14.599  0.00  0.00    +0.000 HD
ATOM     13  H   UNL     1      50.493   7.934  13.114  0.00  0.00    +0.000 HD
ENDBRANCH   1  10
BRANCH   5  14
ATOM     14  C   UNL     1      44.215   4.811  11.310  0.00  0.00    +0.000 C 
ATOM     15  C   UNL     1      42.694   4.886  11.387  0.00  0.00    +0.000 C 
ATOM     16  C   UNL     1      43.429   3.939  12.270  0.00  0.00    +0.000 C 
BRANCH  14  17
ATOM     17  C   UNL     1      44.861   4.125  10.115  0.00  0.00    +0.000 A 
ATOM     18  C   UNL     1      44.862   2.732   9.952  0.00  0.00    +0.000 A 
ATOM     19  C   UNL     1      45.386   2.149   8.799  0.00  0.00    +0.000 A 
ATOM     20  C   UNL     1      45.916   2.979   7.828  0.00  0.00    +0.000 A 
ATOM     21  N   UNL     1      45.973   4.321   7.943  0.00  0.00    +0.000 NA
ATOM     22  C   UNL     1      45.444   4.852   9.074  0.00  0.00    +0.000 A 
ENDBRANCH  14  17
ENDBRANCH   5  14
TORSDOF 3
ENDMDL
MODEL 3
REMARK VINA RESULT:    -5.600      3.026      6.395
REMARK INTER + INTRA:          -7.178
REMARK INTER:                  -7.514
REMARK INTRA:                   0.336
REMARK UNBOUND:                -0.596
REMARK  Name = 
REMARK  3 active torsions:
REMARK  status: ('A' for Active; 'I' for Inactive)
REMARK    1  A    between atoms: C_2  and  C_4
REMARK    2  A    between atoms: N_8  and  C_9
REMARK    3  A    between atoms: C_9  and  C_10
REMARK                            x       y       z     vdW  Elec       q    Type
REMARK                         _______ _______ _______ _____ _____    ______ ____
ROOT
ATOM      1  C   UNL     1      47.836   5.792  14.785  0.00  0.00    +0.000 A 
ATOM      2  C   UNL     1      47.421   6.148  13.504  0.00  0.00    +0.000 A 
ATOM      3  C   UNL     1      46.647   5.255  12.763  0.00  0.00    +0.000 A 
ATOM      4  C   UNL     1      46.300   4.029  13.310  0.00  0.00    +0.000 A 
ATOM      5  N   UNL     1      45.619   3.041  12.594  0.00  0.00    +0.000 N 
ATOM      6  N   UNL     1      46.696   3.671  14.552  0.00  0.00    +0.000 NA
ATOM      7  C   UNL     1      47.458   4.549  15.259  0.00  0.00    +0.000 A 
ATOM      8  H   UNL     1      45.454   2.288  13.260  0.00  0.00    +0.000 HD
ENDROOT
BRANCH   1  10
ATOM      9  N   UNL     1      49.137   6.149  16.796  0.00  0.00    +0.000 N 
ATOM     10  C   UNL     1      48.709   6.660  15.601  0.00  0.00    +0.000 C 
ATOM     11  O   UNL     1      49.044   7.769  15.223  0.00  0.00    +0.000 OA
ATOM     12  H   UNL     1      49.770   6.720  17.339  0.00  0.00    +0.000 HD
ATOM     13  H   UNL     1      49.078   5.167  17.027  0.00  0.00    +0.000 HD
ENDBRANCH   1  10
BRANCH   5  14
ATOM     14  C   UNL     1      44.539   3.281  11.617  0.00  0.00    +0.000 C 
ATOM     15  C   UNL     1      43.504   4.290  12.102  0.00  0.00    +0.000 C 
ATOM     16  C   UNL     1      43.089   2.888  11.824  0.00  0.00    +0.000 C 
BRANCH  14  17
ATOM     17  C   UNL     1      45.039   3.368  10.182  0.00  0.00    +0.000 A 
ATOM     18  C   UNL     1      45.319   4.588   9.550  0.00  0.00    +0.000 A 
ATOM     19  C   UNL     1      45.861   4.619   8.266  0.00  0.00    +0.000 A 
ATOM     20  C   UNL     1      46.100   3.417   7.627  0.00  0.00    +0.000 A 
ATOM     21  N   UNL     1      45.821   2.215   8.169  0.00  0.00    +0.000 NA
ATOM     22  C   UNL     1      45.306   2.224   9.424  0.00  0.00    +0.000 A 
ENDBRANCH  14  17
ENDBRANCH   5  14
TORSDOF 3
ENDMDL
MODEL 4
REMARK VINA RESULT:    -5.372      3.293      5.207
REMARK INTER + INTRA:          -6.909
REMARK INTER:                  -6.716
REMARK INTRA:                  -0.193
REMARK UNBOUND:                -0.596
REMARK  Name = 
REMARK  3 active torsions:
REMARK  status: ('A' for Active; 'I' for Inactive)
REMARK    1  A    between atoms: C_2  and  C_4
REMARK    2  A    between atoms: N_8  and  C_9
REMARK    3  A    between atoms: C_9  and  C_10
REMARK                            x       y       z     vdW  Elec       q    Type
REMARK                         _______ _______ _______ _____ _____    ______ ____
ROOT
ATOM      1  C   UNL     1      44.658   4.355  11.527  0.00  0.00    +0.000 A 
ATOM      2  C   UNL     1      45.631   5.077  10.841  0.00  0.00    +0.000 A 
ATOM      3  C   UNL     1      46.109   6.270  11.385  0.00  0.00    +0.000 A 
ATOM      4  C   UNL     1      45.612   6.719  12.599  0.00  0.00    +0.000 A 
ATOM      5  N   UNL     1      45.960   7.952  13.156  0.00  0.00    +0.000 N 
ATOM      6  N   UNL     1      44.667   6.026  13.276  0.00  0.00    +0.000 NA
ATOM      7  C   UNL     1      44.204   4.870  12.728  0.00  0.00    +0.000 A 
ATOM      8  H   UNL     1      45.495   7.982  14.061  0.00  0.00    +0.000 HD
ENDROOT
BRANCH   1  10
ATOM      9  N   UNL     1      44.758   2.489   9.986  0.00  0.00    +0.000 N 
ATOM     10  C   UNL     1      44.061   3.119  10.981  0.00  0.00    +0.000 C 
ATOM     11  O   UNL     1      43.008   2.675  11.403  0.00  0.00    +0.000 OA
ATOM     12  H   UNL     1      44.377   1.620   9.638  0.00  0.00    +0.000 HD
ATOM     13  H   UNL     1      45.727   2.690   9.782  0.00  0.00    +0.000 HD
ENDBRANCH   1  10
BRANCH   5  14
ATOM     14  C   UNL     1      47.301   8.567  13.103  0.00  0.00    +0.000 C 
ATOM     15  C   UNL     1      47.280  10.009  12.607  0.00  0.00    +0.000 C 
ATOM     16  C   UNL     1      48.011   8.974  11.825  0.00  0.00    +0.000 C 
BRANCH  14  17
ATOM     17  C   UNL     1      48.171   8.210  14.299  0.00  0.00    +0.000 A 
ATOM     18  C   UNL     1      48.148   8.939  15.496  0.00  0.00    +0.000 A 
ATOM     19  C   UNL     1      48.894   8.525  16.599  0.00  0.00    +0.000 A 
ATOM     20  C   UNL     1      49.667   7.385  16.476  0.00  0.00    +0.000 A 
ATOM     21  N   UNL     1      49.755   6.662  15.342  0.00  0.00    +0.000 NA
ATOM     22  C   UNL     1      49.007   7.090  14.294  0.00  0.00    +0.000 A 
ENDBRANCH  14  17
ENDBRANCH   5  14
TORSDOF 3
ENDMDL
MODEL 5
REMARK VINA RESULT:    -5.358      2.588      3.610
REMARK INTER + INTRA:          -6.893
REMARK INTER:                  -6.327
REMARK INTRA:                  -0.566
REMARK UNBOUND:                -0.596
REMARK  Name = 
REMARK  3 active torsions:
REMARK  status: ('A' for Active; 'I' for Inactive)
REMARK    1  A    between atoms: C_2  and  C_4
REMARK    2  A    between atoms: N_8  and  C_9
REMARK    3  A    between atoms: C_9  and  C_10
REMARK                            x       y       z     vdW  Elec       q    Type
REMARK                         _______ _______ _______ _____ _____    ______ ____
ROOT
ATOM      1  C   UNL     1      45.036   3.329   9.941  0.00  0.00    +0.000 A 
ATOM      2  C   UNL     1      45.275   4.572   9.362  0.00  0.00    +0.000 A 
ATOM      3  C   UNL     1      45.298   5.710  10.168  0.00  0.00    +0.000 A 
ATOM      4  C   UNL     1      45.085   5.589  11.533  0.00  0.00    +0.000 A 
ATOM      5  N   UNL     1      44.987   6.689  12.389  0.00  0.00    +0.000 N 
ATOM      6  N   UNL     1      44.852   4.388  12.108  0.00  0.00    +0.000 NA
ATOM      7  C   UNL     1      44.823   3.288  11.307  0.00  0.00    +0.000 A 
ATOM      8  H   UNL     1      44.890   6.297  13.324  0.00  0.00    +0.000 HD
ENDROOT
BRANCH   1  10
ATOM      9  N   UNL     1      46.026   1.758   8.387  0.00  0.00    +0.000 N 
ATOM     10  C   UNL     1      44.934   2.092   9.141  0.00  0.00    +0.000 C 
ATOM     11  O   UNL     1      43.934   1.396   9.161  0.00  0.00    +0.000 OA
ATOM     12  H   UNL     1      45.980   0.889   7.871  0.00  0.00    +0.000 HD
ATOM     13  H   UNL     1      46.938   2.170   8.527  0.00  0.00    +0.000 HD
ENDBRANCH   1  10
BRANCH   5  14
ATOM     14  C   UNL     1      45.788   7.925  12.291  0.00  0.00    +0.000 C 
ATOM     15  C   UNL     1      45.097   9.138  12.905  0.00  0.00    +0.000 C 
ATOM     16  C   UNL     1      45.411   9.129  11.449  0.00  0.00    +0.000 C 
BRANCH  14  17
ATOM     17  C   UNL     1      47.268   7.701  12.563  0.00  0.00    +0.000 A 
ATOM     18  C   UNL     1      48.278   8.284  11.784  0.00  0.00    +0.000 A 
ATOM     19  C   UNL     1      49.621   8.127  12.121  0.00  0.00    +0.000 A 
ATOM     20  C   UNL     1      49.932   7.371  13.236  0.00  0.00    +0.000 A 
ATOM     21  N   UNL     1      49.008   6.759  14.004  0.00  0.00    +0.000 NA
ATOM     22  C   UNL     1      47.712   6.944  13.651  0.00  0.00    +0.000 A 
ENDBRANCH  14  17
ENDBRANCH   5  14
TORSDOF 3
ENDMDL
