MODEL 1
REMARK VINA RESULT:    -8.379      0.000      0.000
REMARK INTER + INTRA:         -14.085
REMARK INTER:                 -13.032
REMARK INTRA:                  -1.053
REMARK UNBOUND:                -1.053
REMARK  Name = 
REMARK  10 active torsions:
REMARK  status: ('A' for Active; 'I' for Inactive)
REMARK    1  A    between atoms: N_1  and  C_2
REMARK    2  A    between atoms: C_2  and  C_3
REMARK    3  A    between atoms: C_3  and  N_4
REMARK    4  A    between atoms: N_4  and  C_5
REMARK    5  A    between atoms: C_5  and  C_6
REMARK    6  A    between atoms: C_9  and  C_10
REMARK    7  A    between atoms: C_10  and  N_11
REMARK    8  A    between atoms: C_12  and  C_14
REMARK    9  A    between atoms: C_25  and  C_26
REMARK   10  A    between atoms: C_26  and  N_27
REMARK                            x       y       z     vdW  Elec       q    Type
REMARK                         _______ _______ _______ _____ _____    ______ ____
ROOT
ATOM      1  C   UNL     1      45.225   6.849  11.913  0.00  0.00    +0.000 A 
ATOM      2  C   UNL     1      46.278   7.090  12.822  0.00  0.00    +0.000 A 
ATOM      3  C   UNL     1      46.855   6.055  13.558  0.00  0.00    +0.000 A 
ATOM      4  C   UNL     1      46.401   4.746  13.401  0.00  0.00    +0.000 A 
ATOM      5  C   UNL     1      45.377   4.494  12.474  0.00  0.00    +0.000 A 
ATOM      6  C   UNL     1      44.769   5.526  11.728  0.00  0.00    +0.000 A 
ENDROOT
BRANCH   1   7
ATOM      7  C   UNL     1      44.641   8.050  11.198  0.00  0.00    +0.000 C 
BRANCH   7   8
ATOM      8  N   UNL     1      44.253   9.159  12.076  0.00  0.00    +0.000 NA
ATOM      9  H   UNL     1      43.500   8.824  12.678  0.00  0.00    +0.000 HD
BRANCH   8  10
ATOM     10  C   UNL     1      43.732  10.318  11.336  0.00  0.00    +0.000 C 
BRANCH  10  11
ATOM     11  C   UNL     1      42.553   9.904  10.435  0.00  0.00    +0.000 C 
BRANCH  11  12
ATOM     12  N   UNL     1      41.362   9.525  11.204  0.00  0.00    +0.000 NA
ATOM     13  H   UNL     1      41.537   9.730  12.188  0.00  0.00    +0.000 HD
ATOM     14  H   UNL     1      41.269   8.511  11.157  0.00  0.00    +0.000 HD
ENDBRANCH  11  12
ENDBRANCH  10  11
ENDBRANCH   8  10
ENDBRANCH   7   8
ENDBRANCH   1   7
BRANCH   4  15
ATOM     15  C   UNL     1      47.004   3.620  14.198  0.00  0.00    +0.000 C 
BRANCH  15  16
ATOM     16  N   UNL     1      47.824   4.115  15.279  0.00  0.00    +0.000 N 
ATOM     17  C   UNL     1      47.452   3.987  16.593  0.00  0.00    +0.000 C 
ATOM     18  O   UNL     1      46.416   3.416  16.924  0.00  0.00    +0.000 OA
ATOM     19  H   UNL     1      48.576   4.748  15.028  0.00  0.00    +0.000 HD
BRANCH  17  20
ATOM     20  C   UNL     1      48.379   4.513  17.604  0.00  0.00    +0.000 A 
ATOM     21  C   UNL     1      47.998   5.618  18.355  0.00  0.00    +0.000 A 
ATOM     22  S   UNL     1      49.147   6.088  19.520  0.00  0.00    +0.000 S 
ATOM     23  C   UNL     1      50.223   4.869  19.024  0.00  0.00    +0.000 A 
ATOM     24  N   UNL     1      51.442   4.736  19.621  0.00  0.00    +0.000 NA
ATOM     25  C   UNL     1      52.179   3.800  19.122  0.00  0.00    +0.000 A 
ATOM     26  N   UNL     1      51.801   2.973  18.097  0.00  0.00    +0.000 N 
ATOM     27  C   UNL     1      50.556   3.031  17.504  0.00  0.00    +0.000 A 
ATOM     28  O   UNL     1      50.219   2.217  16.649  0.00  0.00    +0.000 OA
ATOM     29  C   UNL     1      49.702   4.095  18.001  0.00  0.00    +0.000 A 
ATOM     30  H   UNL     1      52.413   2.242  17.768  0.00  0.00    +0.000 HD
ENDBRANCH  17  20
ENDBRANCH  15  16
ENDBRANCH   4  15
BRANCH   6  31
ATOM     31  C   UNL     1      43.690   5.125  10.734  0.00  0.00    +0.000 C 
BRANCH  31  32
ATOM     32  N   UNL     1      43.891   3.741  10.373  0.00  0.00    +0.000 N 
ATOM     33  C   UNL     1      44.768   3.433   9.359  0.00  0.00    +0.000 A 
ATOM     34  N   UNL     1      45.169   4.356   8.469  0.00  0.00    +0.000 NA
ATOM     35  C   UNL     1      46.047   3.950   7.520  0.00  0.00    +0.000 A 
ATOM     36  C   UNL     1      46.528   2.666   7.421  0.00  0.00    +0.000 A 
ATOM     37 CL   UNL     1      47.659   2.190   6.231  0.00  0.00    +0.000 Cl
ATOM     38  C   UNL     1      46.043   1.795   8.362  0.00  0.00    +0.000 A 
ATOM     39  N   UNL     1      45.185   2.157   9.341  0.00  0.00    +0.000 NA
ATOM     40  H   UNL     1      44.043   3.096  11.136  0.00  0.00    +0.000 HD
ENDBRANCH  31  32
ENDBRANCH   6  31
TORSDOF 10
ENDMDL
MODEL 2
REMARK VINA RESULT:    -7.501      4.068      6.847
REMARK INTER + INTRA:         -12.721
REMARK INTER:                 -10.401
REMARK INTRA:                  -2.319
REMARK UNBOUND:                -1.053
REMARK  Name = 
REMARK  10 active torsions:
REMARK  status: ('A' for Active; 'I' for Inactive)
REMARK    1  A    between atoms: N_1  and  C_2
REMARK    2  A    between atoms: C_2  and  C_3
REMARK    3  A    between atoms: C_3  and  N_4
REMARK    4  A    between atoms: N_4  and  C_5
REMARK    5  A    between atoms: C_5  and  C_6
REMARK    6  A    between atoms: C_9  and  C_10
REMARK    7  A    between atoms: C_10  and  N_11
REMARK    8  A    between atoms: C_12  and  C_14
REMARK    9  A    between atoms: C_25  and  C_26
REMARK   10  A    between atoms: C_26  and  N_27
REMARK                            x       y       z     vdW  Elec       q    Type
REMARK                         _______ _______ _______ _____ _____    ______ ____
ROOT
ATOM      1  C   UNL     1      44.298   4.816  12.053  0.00  0.00    +0.000 A 
ATOM      2  C   UNL     1      43.513   5.764  11.365  0.00  0.00    +0.000 A 
ATOM      3  C   UNL     1      43.829   7.122  11.381  0.00  0.00    +0.000 A 
ATOM      4  C   UNL     1      44.947   7.572  12.082  0.00  0.00    +0.000 A 
ATOM      5  C   UNL     1      45.753   6.631  12.743  0.00  0.00    +0.000 A 
ATOM      6  C   UNL     1      45.445   5.254  12.750  0.00  0.00    +0.000 A 
ENDROOT
BRANCH   1   7
ATOM      7  C   UNL     1      43.841   3.372  12.007  0.00  0.00    +0.000 C 
BRANCH   7   8
ATOM      8  N   UNL     1      43.709   2.814  10.657  0.00  0.00    +0.000 NA
ATOM      9  H   UNL     1      43.388   1.850  10.754  0.00  0.00    +0.000 HD
BRANCH   8  10
ATOM     10  C   UNL     1      44.986   2.773   9.928  0.00  0.00    +0.000 C 
BRANCH  10  11
ATOM     11  C   UNL     1      44.839   3.415   8.536  0.00  0.00    +0.000 C 
BRANCH  11  12
ATOM     12  N   UNL     1      45.361   4.786   8.490  0.00  0.00    +0.000 NA
ATOM     13  H   UNL     1      44.661   5.381   8.045  0.00  0.00    +0.000 HD
ATOM     14  H   UNL     1      46.159   4.795   7.856  0.00  0.00    +0.000 HD
ENDBRANCH  11  12
ENDBRANCH  10  11
ENDBRANCH   8  10
ENDBRANCH   7   8
ENDBRANCH   1   7
BRANCH   4  15
ATOM     15  C   UNL     1      45.294   9.037  12.122  0.00  0.00    +0.000 C 
BRANCH  15  16
ATOM     16  N   UNL     1      46.400   9.297  13.013  0.00  0.00    +0.000 N 
ATOM     17  C   UNL     1      47.587   9.820  12.568  0.00  0.00    +0.000 C 
ATOM     18  O   UNL     1      47.763  10.125  11.391  0.00  0.00    +0.000 OA
ATOM     19  H   UNL     1      46.348   8.882  13.937  0.00  0.00    +0.000 HD
BRANCH  17  20
ATOM     20  C   UNL     1      48.631  10.058  13.573  0.00  0.00    +0.000 A 
ATOM     21  C   UNL     1      48.785  11.337  14.093  0.00  0.00    +0.000 A 
ATOM     22  S   UNL     1      49.998  11.454  15.282  0.00  0.00    +0.000 S 
ATOM     23  C   UNL     1      50.404   9.813  15.103  0.00  0.00    +0.000 A 
ATOM     24  N   UNL     1      51.414   9.265  15.838  0.00  0.00    +0.000 NA
ATOM     25  C   UNL     1      51.648   8.023  15.575  0.00  0.00    +0.000 A 
ATOM     26  N   UNL     1      50.952   7.274  14.662  0.00  0.00    +0.000 N 
ATOM     27  C   UNL     1      49.885   7.769  13.940  0.00  0.00    +0.000 A 
ATOM     28  O   UNL     1      49.229   7.046  13.197  0.00  0.00    +0.000 OA
ATOM     29  C   UNL     1      49.606   9.175  14.169  0.00  0.00    +0.000 A 
ATOM     30  H   UNL     1      51.167   6.299  14.521  0.00  0.00    +0.000 HD
ENDBRANCH  17  20
ENDBRANCH  15  16
ENDBRANCH   4  15
BRANCH   6  31
ATOM     31  C   UNL     1      46.410   4.329  13.477  0.00  0.00    +0.000 C 
BRANCH  31  32
ATOM     32  N   UNL     1      47.317   5.135  14.260  0.00  0.00    +0.000 N 
ATOM     33  C   UNL     1      47.597   4.765  15.554  0.00  0.00    +0.000 A 
ATOM     34  N   UNL     1      46.809   3.911  16.229  0.00  0.00    +0.000 NA
ATOM     35  C   UNL     1      47.185   3.601  17.494  0.00  0.00    +0.000 A 
ATOM     36  C   UNL     1      48.300   4.116  18.109  0.00  0.00    +0.000 A 
ATOM     37 CL   UNL     1      48.766   3.684  19.695  0.00  0.00    +0.000 Cl
ATOM     38  C   UNL     1      49.026   4.994  17.345  0.00  0.00    +0.000 A 
ATOM     39  N   UNL     1      48.706   5.316  16.073  0.00  0.00    +0.000 NA
ATOM     40  H   UNL     1      48.181   5.403  13.809  0.00  0.00    +0.000 HD
ENDBRANCH  31  32
ENDBRANCH   6  31
TORSDOF 10
ENDMDL
MODEL 3
REMARK VINA RESULT:    -7.367      4.133     10.454
REMARK INTER + INTRA:         -12.512
REMARK INTER:                 -11.241
REMARK INTRA:                  -1.270
REMARK UNBOUND:                -1.053
REMARK  Name = 
REMARK  10 active torsions:
REMARK  status: ('A' for Active; 'I' for Inactive)
REMARK    1  A    between atoms: N_1  and  C_2
REMARK    2  A    between atoms: C_2  and  C_3
REMARK    3  A    between atoms: C_3  and  N_4
REMARK    4  A    between atoms: N_4  and  C_5
REMARK    5  A    between atoms: C_5  and  C_6
REMARK    6  A    between atoms: C_9  and  C_10
REMARK    7  A    between atoms: C_10  and  N_11
REMARK    8  A    between atoms: C_12  and  C_14
REMARK    9  A    between atoms: C_25  and  C_26
REMARK   10  A    between atoms: C_26  and  N_27
REMARK                            x       y       z     vdW  Elec       q    Type
REMARK                         _______ _______ _______ _____ _____    ______ ____
ROOT
ATOM      1  C   UNL     1      51.408   3.425  17.734  0.00  0.00    +0.000 A 
ATOM      2  C   UNL     1      50.764   2.242  17.313  0.00  0.00    +0.000 A 
ATOM      3  C   UNL     1      49.397   2.215  17.038  0.00  0.00    +0.000 A 
ATOM      4  C   UNL     1      48.634   3.374  17.169  0.00  0.00    +0.000 A 
ATOM      5  C   UNL     1      49.273   4.563  17.556  0.00  0.00    +0.000 A 
ATOM      6  C   UNL     1      50.651   4.611  17.851  0.00  0.00    +0.000 A 
ENDROOT
BRANCH   1   7
ATOM      7  C   UNL     1      52.887   3.333  18.049  0.00  0.00    +0.000 C 
BRANCH   7   8
ATOM      8  N   UNL     1      53.267   2.192  18.888  0.00  0.00    +0.000 NA
ATOM      9  H   UNL     1      53.558   2.562  19.794  0.00  0.00    +0.000 HD
BRANCH   8  10
ATOM     10  C   UNL     1      54.405   1.437  18.344  0.00  0.00    +0.000 C 
BRANCH  10  11
ATOM     11  C   UNL     1      53.932   0.102  17.736  0.00  0.00    +0.000 C 
BRANCH  11  12
ATOM     12  N   UNL     1      52.785  -0.468  18.453  0.00  0.00    +0.000 NA
ATOM     13  H   UNL     1      52.724  -1.460  18.223  0.00  0.00    +0.000 HD
ATOM     14  H   UNL     1      51.938  -0.054  18.066  0.00  0.00    +0.000 HD
ENDBRANCH  11  12
ENDBRANCH  10  11
ENDBRANCH   8  10
ENDBRANCH   7   8
ENDBRANCH   1   7
BRANCH   4  15
ATOM     15  C   UNL     1      47.154   3.358  16.890  0.00  0.00    +0.000 C 
BRANCH  15  16
ATOM     16  N   UNL     1      46.788   4.353  15.909  0.00  0.00    +0.000 N 
ATOM     17  C   UNL     1      46.875   4.113  14.562  0.00  0.00    +0.000 C 
ATOM     18  O   UNL     1      47.240   3.029  14.115  0.00  0.00    +0.000 OA
ATOM     19  H   UNL     1      46.669   5.302  16.245  0.00  0.00    +0.000 HD
BRANCH  17  20
ATOM     20  C   UNL     1      46.456   5.196  13.662  0.00  0.00    +0.000 A 
ATOM     21  C   UNL     1      47.333   6.246  13.420  0.00  0.00    +0.000 A 
ATOM     22  S   UNL     1      46.736   7.402  12.322  0.00  0.00    +0.000 S 
ATOM     23  C   UNL     1      45.259   6.574  12.174  0.00  0.00    +0.000 A 
ATOM     24  N   UNL     1      44.267   7.063  11.377  0.00  0.00    +0.000 NA
ATOM     25  C   UNL     1      43.183   6.361  11.387  0.00  0.00    +0.000 A 
ATOM     26  N   UNL     1      43.007   5.207  12.103  0.00  0.00    +0.000 N 
ATOM     27  C   UNL     1      44.003   4.642  12.875  0.00  0.00    +0.000 A 
ATOM     28  O   UNL     1      43.840   3.561  13.433  0.00  0.00    +0.000 OA
ATOM     29  C   UNL     1      45.230   5.414  12.931  0.00  0.00    +0.000 A 
ATOM     30  H   UNL     1      42.143   4.689  12.049  0.00  0.00    +0.000 HD
ENDBRANCH  17  20
ENDBRANCH  15  16
ENDBRANCH   4  15
BRANCH   6  31
ATOM     31  C   UNL     1      51.236   5.963  18.231  0.00  0.00    +0.000 C 
BRANCH  31  32
ATOM     32  N   UNL     1      50.731   6.331  19.534  0.00  0.00    +0.000 N 
ATOM     33  C   UNL     1      49.733   7.272  19.625  0.00  0.00    +0.000 A 
ATOM     34  N   UNL     1      49.458   8.109  18.611  0.00  0.00    +0.000 NA
ATOM     35  C   UNL     1      48.443   8.987  18.800  0.00  0.00    +0.000 A 
ATOM     36  C   UNL     1      47.707   9.069  19.956  0.00  0.00    +0.000 A 
ATOM     37 CL   UNL     1      46.413  10.167  20.155  0.00  0.00    +0.000 Cl
ATOM     38  C   UNL     1      48.078   8.188  20.939  0.00  0.00    +0.000 A 
ATOM     39  N   UNL     1      49.066   7.278  20.790  0.00  0.00    +0.000 NA
ATOM     40  H   UNL     1      50.512   5.569  20.161  0.00  0.00    +0.000 HD
ENDBRANCH  31  32
ENDBRANCH   6  31
TORSDOF 10
ENDMDL
MODEL 4
REMARK VINA RESULT:    -7.312      3.559      9.596
REMARK INTER + INTRA:         -12.427
REMARK INTER:                 -10.997
REMARK INTRA:                  -1.429
REMARK UNBOUND:                -1.053
REMARK  Name = 
REMARK  10 active torsions:
REMARK  status: ('A' for Active; 'I' for Inactive)
REMARK    1  A    between atoms: N_1  and  C_2
REMARK    2  A    between atoms: C_2  and  C_3
REMARK    3  A    between atoms: C_3  and  N_4
REMARK    4  A    between atoms: N_4  and  C_5
REMARK    5  A    between atoms: C_5  and  C_6
REMARK    6  A    between atoms: C_9  and  C_10
REMARK    7  A    between atoms: C_10  and  N_11
REMARK    8  A    between atoms: C_12  and  C_14
REMARK    9  A    between atoms: C_25  and  C_26
REMARK   10  A    between atoms: C_26  and  N_27
REMARK                            x       y       z     vdW  Elec       q    Type
REMARK                         _______ _______ _______ _____ _____    ______ ____
ROOT
ATOM      1  C   UNL     1      51.393   3.359  17.685  0.00  0.00    +0.000 A 
ATOM      2  C   UNL     1      50.684   2.183  17.360  0.00  0.00    +0.000 A 
ATOM      3  C   UNL     1      49.314   2.206  17.101  0.00  0.00    +0.000 A 
ATOM      4  C   UNL     1      48.612   3.410  17.153  0.00  0.00    +0.000 A 
ATOM      5  C   UNL     1      49.317   4.589  17.443  0.00  0.00    +0.000 A 
ATOM      6  C   UNL     1      50.699   4.588  17.721  0.00  0.00    +0.000 A 
ENDROOT
BRANCH   1   7
ATOM      7  C   UNL     1      52.870   3.215  17.991  0.00  0.00    +0.000 C 
BRANCH   7   8
ATOM      8  N   UNL     1      53.208   2.091  18.870  0.00  0.00    +0.000 NA
ATOM      9  H   UNL     1      53.324   2.463  19.813  0.00  0.00    +0.000 HD
BRANCH   8  10
ATOM     10  C   UNL     1      54.475   1.440  18.504  0.00  0.00    +0.000 C 
BRANCH  10  11
ATOM     11  C   UNL     1      54.252  -0.053  18.196  0.00  0.00    +0.000 C 
BRANCH  11  12
ATOM     12  N   UNL     1      52.872  -0.481  18.455  0.00  0.00    +0.000 NA
ATOM     13  H   UNL     1      52.389  -0.565  17.560  0.00  0.00    +0.000 HD
ATOM     14  H   UNL     1      52.396   0.277  18.942  0.00  0.00    +0.000 HD
ENDBRANCH  11  12
ENDBRANCH  10  11
ENDBRANCH   8  10
ENDBRANCH   7   8
ENDBRANCH   1   7
BRANCH   4  15
ATOM     15  C   UNL     1      47.130   3.450  16.890  0.00  0.00    +0.000 C 
BRANCH  15  16
ATOM     16  N   UNL     1      46.798   4.412  15.866  0.00  0.00    +0.000 N 
ATOM     17  C   UNL     1      46.910   4.122  14.530  0.00  0.00    +0.000 C 
ATOM     18  O   UNL     1      47.270   3.018  14.132  0.00  0.00    +0.000 OA
ATOM     19  H   UNL     1      46.685   5.375  16.165  0.00  0.00    +0.000 HD
BRANCH  17  20
ATOM     20  C   UNL     1      46.524   5.177  13.583  0.00  0.00    +0.000 A 
ATOM     21  C   UNL     1      47.454   6.154  13.249  0.00  0.00    +0.000 A 
ATOM     22  S   UNL     1      46.888   7.281  12.106  0.00  0.00    +0.000 S 
ATOM     23  C   UNL     1      45.358   6.541  12.058  0.00  0.00    +0.000 A 
ATOM     24  N   UNL     1      44.368   7.046  11.268  0.00  0.00    +0.000 NA
ATOM     25  C   UNL     1      43.244   6.416  11.357  0.00  0.00    +0.000 A 
ATOM     26  N   UNL     1      43.026   5.318  12.146  0.00  0.00    +0.000 N 
ATOM     27  C   UNL     1      44.013   4.736  12.915  0.00  0.00    +0.000 A 
ATOM     28  O   UNL     1      43.806   3.700  13.541  0.00  0.00    +0.000 OA
ATOM     29  C   UNL     1      45.287   5.431  12.883  0.00  0.00    +0.000 A 
ATOM     30  H   UNL     1      42.130   4.854  12.152  0.00  0.00    +0.000 HD
ENDBRANCH  17  20
ENDBRANCH  15  16
ENDBRANCH   4  15
BRANCH   6  31
ATOM     31  C   UNL     1      51.357   5.933  17.993  0.00  0.00    +0.000 C 
BRANCH  31  32
ATOM     32  N   UNL     1      50.375   6.973  17.791  0.00  0.00    +0.000 N 
ATOM     33  C   UNL     1      50.295   7.590  16.565  0.00  0.00    +0.000 A 
ATOM     34  N   UNL     1      51.300   7.525  15.676  0.00  0.00    +0.000 NA
ATOM     35  C   UNL     1      51.111   8.156  14.491  0.00  0.00    +0.000 A 
ATOM     36  C   UNL     1      49.972   8.853  14.168  0.00  0.00    +0.000 A 
ATOM     37 CL   UNL     1      49.750   9.614  12.654  0.00  0.00    +0.000 Cl
ATOM     38  C   UNL     1      49.015   8.878  15.149  0.00  0.00    +0.000 A 
ATOM     39  N   UNL     1      49.146   8.246  16.335  0.00  0.00    +0.000 NA
ATOM     40  H   UNL     1      49.437   6.771  18.111  0.00  0.00    +0.000 HD
ENDBRANCH  31  32
ENDBRANCH   6  31
TORSDOF 10
ENDMDL
MODEL 5
REMARK VINA RESULT:    -7.244      1.828      2.278
REMARK INTER + INTRA:         -12.320
REMARK INTER:                 -11.524
REMARK INTRA:                  -0.795
REMARK UNBOUND:                -1.053
REMARK  Name = 
REMARK  10 active torsions:
REMARK  status: ('A' for Active; 'I' for Inactive)
REMARK    1  A    between atoms: N_1  and  C_2
REMARK    2  A    between atoms: C_2  and  C_3
REMARK    3  A    between atoms: C_3  and  N_4
REMARK    4  A    between atoms: N_4  and  C_5
REMARK    5  A    between atoms: C_5  and  C_6
REMARK    6  A    between atoms: C_9  and  C_10
REMARK    7  A    between atoms: C_10  and  N_11
REMARK    8  A    between atoms: C_12  and  C_14
REMARK    9  A    between atoms: C_25  and  C_26
REMARK   10  A    between atoms: C_26  and  N_27
REMARK                            x       y       z     vdW  Elec       q    Type
REMARK                         _______ _______ _______ _____ _____    ______ ____
ROOT
ATOM      1  C   UNL     1      45.115   8.636  11.866  0.00  0.00    +0.000 A 
ATOM      2  C   UNL     1      46.229   8.924  12.682  0.00  0.00    +0.000 A 
ATOM      3  C   UNL     1      46.943   7.912  13.324  0.00  0.00    +0.000 A 
ATOM      4  C   UNL     1      46.568   6.579  13.161  0.00  0.00    +0.000 A 
ATOM      5  C   UNL     1      45.480   6.282  12.324  0.00  0.00    +0.000 A 
ATOM      6  C   UNL     1      44.736   7.289  11.676  0.00  0.00    +0.000 A 
ENDROOT
BRANCH   1   7
ATOM      7  C   UNL     1      44.384   9.813  11.253  0.00  0.00    +0.000 C 
BRANCH   7   8
ATOM      8  N   UNL     1      43.277  10.336  12.059  0.00  0.00    +0.000 NA
ATOM      9  H   UNL     1      42.657   9.553  12.273  0.00  0.00    +0.000 HD
BRANCH   8  10
ATOM     10  C   UNL     1      42.473  11.339  11.344  0.00  0.00    +0.000 C 
BRANCH  10  11
ATOM     11  C   UNL     1      41.072  10.786  11.022  0.00  0.00    +0.000 C 
BRANCH  11  12
ATOM     12  N   UNL     1      40.911   9.386  11.432  0.00  0.00    +0.000 NA
ATOM     13  H   UNL     1      40.478   9.369  12.356  0.00  0.00    +0.000 HD
ATOM     14  H   UNL     1      41.842   8.992  11.569  0.00  0.00    +0.000 HD
ENDBRANCH  11  12
ENDBRANCH  10  11
ENDBRANCH   8  10
ENDBRANCH   7   8
ENDBRANCH   1   7
BRANCH   4  15
ATOM     15  C   UNL     1      47.319   5.476  13.858  0.00  0.00    +0.000 C 
BRANCH  15  16
ATOM     16  N   UNL     1      47.507   5.765  15.261  0.00  0.00    +0.000 N 
ATOM     17  C   UNL     1      48.693   6.244  15.754  0.00  0.00    +0.000 C 
ATOM     18  O   UNL     1      49.652   6.482  15.025  0.00  0.00    +0.000 OA
ATOM     19  H   UNL     1      46.807   5.401  15.899  0.00  0.00    +0.000 HD
BRANCH  17  20
ATOM     20  C   UNL     1      48.756   6.517  17.196  0.00  0.00    +0.000 A 
ATOM     21  C   UNL     1      48.920   7.829  17.625  0.00  0.00    +0.000 A 
ATOM     22  S   UNL     1      48.926   8.003  19.318  0.00  0.00    +0.000 S 
ATOM     23  C   UNL     1      48.769   6.325  19.543  0.00  0.00    +0.000 A 
ATOM     24  N   UNL     1      48.736   5.793  20.798  0.00  0.00    +0.000 NA
ATOM     25  C   UNL     1      48.658   4.505  20.827  0.00  0.00    +0.000 A 
ATOM     26  N   UNL     1      48.589   3.702  19.720  0.00  0.00    +0.000 N 
ATOM     27  C   UNL     1      48.558   4.198  18.432  0.00  0.00    +0.000 A 
ATOM     28  O   UNL     1      48.407   3.455  17.467  0.00  0.00    +0.000 OA
ATOM     29  C   UNL     1      48.685   5.642  18.341  0.00  0.00    +0.000 A 
ATOM     30  H   UNL     1      48.503   2.701  19.809  0.00  0.00    +0.000 HD
ENDBRANCH  17  20
ENDBRANCH  15  16
ENDBRANCH   4  15
BRANCH   6  31
ATOM     31  C   UNL     1      43.597   6.842  10.772  0.00  0.00    +0.000 C 
BRANCH  31  32
ATOM     32  N   UNL     1      43.319   5.450  11.040  0.00  0.00    +0.000 N 
ATOM     33  C   UNL     1      43.967   4.483  10.308  0.00  0.00    +0.000 A 
ATOM     34  N   UNL     1      44.566   4.767   9.139  0.00  0.00    +0.000 NA
ATOM     35  C   UNL     1      45.190   3.743   8.507  0.00  0.00    +0.000 A 
ATOM     36  C   UNL     1      45.229   2.457   8.987  0.00  0.00    +0.000 A 
ATOM     37 CL   UNL     1      46.050   1.192   8.182  0.00  0.00    +0.000 Cl
ATOM     38  C   UNL     1      44.572   2.265  10.175  0.00  0.00    +0.000 A 
ATOM     39  N   UNL     1      43.956   3.257  10.854  0.00  0.00    +0.000 NA
ATOM     40  H   UNL     1      43.321   5.172  12.012  0.00  0.00    +0.000 HD
ENDBRANCH  31  32
ENDBRANCH   6  31
TORSDOF 10
ENDMDL
MODEL 6
REMARK VINA RESULT:    -7.167      2.197      3.326
REMARK INTER + INTRA:         -12.201
REMARK INTER:                 -10.345
REMARK INTRA:                  -1.856
REMARK UNBOUND:                -1.053
REMARK  Name = 
REMARK  10 active torsions:
REMARK  status: ('A' for Active; 'I' for Inactive)
REMARK    1  A    between atoms: N_1  and  C_2
REMARK    2  A    between atoms: C_2  and  C_3
REMARK    3  A    between atoms: C_3  and  N_4
REMARK    4  A    between atoms: N_4  and  C_5
REMARK    5  A    between atoms: C_5  and  C_6
REMARK    6  A    between atoms: C_9  and  C_10
REMARK    7  A    between atoms: C_10  and  N_11
REMARK    8  A    between atoms: C_12  and  C_14
REMARK    9  A    between atoms: C_25  and  C_26
REMARK   10  A    between atoms: C_26  and  N_27
REMARK                            x       y       z     vdW  Elec       q    Type
REMARK                         _______ _______ _______ _____ _____    ______ ____
ROOT
ATOM      1  C   UNL     1      44.838   7.026  11.491  0.00  0.00    +0.000 A 
ATOM      2  C   UNL     1      45.077   7.656  12.731  0.00  0.00    +0.000 A 
ATOM      3  C   UNL     1      46.368   7.802  13.237  0.00  0.00    +0.000 A 
ATOM      4  C   UNL     1      47.462   7.327  12.514  0.00  0.00    +0.000 A 
ATOM      5  C   UNL     1      47.235   6.729  11.265  0.00  0.00    +0.000 A 
ATOM      6  C   UNL     1      45.938   6.559  10.738  0.00  0.00    +0.000 A 
ENDROOT
BRANCH   1   7
ATOM      7  C   UNL     1      43.395   6.881  11.055  0.00  0.00    +0.000 C 
BRANCH   7   8
ATOM      8  N   UNL     1      42.545   6.130  11.985  0.00  0.00    +0.000 NA
ATOM      9  H   UNL     1      42.861   6.346  12.931  0.00  0.00    +0.000 HD
BRANCH   8  10
ATOM     10  C   UNL     1      42.659   4.673  11.815  0.00  0.00    +0.000 C 
BRANCH  10  11
ATOM     11  C   UNL     1      43.481   4.054  12.961  0.00  0.00    +0.000 C 
BRANCH  11  12
ATOM     12  N   UNL     1      44.739   3.459  12.495  0.00  0.00    +0.000 NA
ATOM     13  H   UNL     1      44.903   2.600  13.022  0.00  0.00    +0.000 HD
ATOM     14  H   UNL     1      45.498   4.084  12.764  0.00  0.00    +0.000 HD
ENDBRANCH  11  12
ENDBRANCH  10  11
ENDBRANCH   8  10
ENDBRANCH   7   8
ENDBRANCH   1   7
BRANCH   4  15
ATOM     15  C   UNL     1      48.861   7.464  13.054  0.00  0.00    +0.000 C 
BRANCH  15  16
ATOM     16  N   UNL     1      49.050   6.671  14.246  0.00  0.00    +0.000 N 
ATOM     17  C   UNL     1      49.071   7.232  15.497  0.00  0.00    +0.000 C 
ATOM     18  O   UNL     1      48.900   8.435  15.675  0.00  0.00    +0.000 OA
ATOM     19  H   UNL     1      49.380   5.721  14.114  0.00  0.00    +0.000 HD
BRANCH  17  20
ATOM     20  C   UNL     1      49.252   6.320  16.635  0.00  0.00    +0.000 A 
ATOM     21  C   UNL     1      50.212   6.622  17.593  0.00  0.00    +0.000 A 
ATOM     22  S   UNL     1      50.278   5.506  18.876  0.00  0.00    +0.000 S 
ATOM     23  C   UNL     1      49.066   4.545  18.171  0.00  0.00    +0.000 A 
ATOM     24  N   UNL     1      48.659   3.391  18.773  0.00  0.00    +0.000 NA
ATOM     25  C   UNL     1      47.764   2.735  18.112  0.00  0.00    +0.000 A 
ATOM     26  N   UNL     1      47.226   3.136  16.918  0.00  0.00    +0.000 N 
ATOM     27  C   UNL     1      47.563   4.324  16.302  0.00  0.00    +0.000 A 
ATOM     28  O   UNL     1      46.996   4.694  15.278  0.00  0.00    +0.000 OA
ATOM     29  C   UNL     1      48.597   5.082  16.984  0.00  0.00    +0.000 A 
ATOM     30  H   UNL     1      46.510   2.590  16.463  0.00  0.00    +0.000 HD
ENDBRANCH  17  20
ENDBRANCH  15  16
ENDBRANCH   4  15
BRANCH   6  31
ATOM     31  C   UNL     1      45.822   5.922   9.361  0.00  0.00    +0.000 C 
BRANCH  31  32
ATOM     32  N   UNL     1      44.988   4.747   9.469  0.00  0.00    +0.000 N 
ATOM     33  C   UNL     1      45.425   3.563   8.924  0.00  0.00    +0.000 A 
ATOM     34  N   UNL     1      46.404   3.528   8.005  0.00  0.00    +0.000 NA
ATOM     35  C   UNL     1      46.769   2.307   7.545  0.00  0.00    +0.000 A 
ATOM     36  C   UNL     1      46.191   1.130   7.955  0.00  0.00    +0.000 A 
ATOM     37 CL   UNL     1      46.693  -0.399   7.380  0.00  0.00    +0.000 Cl
ATOM     38  C   UNL     1      45.188   1.273   8.879  0.00  0.00    +0.000 A 
ATOM     39  N   UNL     1      44.804   2.465   9.385  0.00  0.00    +0.000 NA
ATOM     40  H   UNL     1      44.599   4.556  10.383  0.00  0.00    +0.000 HD
ENDBRANCH  31  32
ENDBRANCH   6  31
TORSDOF 10
ENDMDL
MODEL 7
REMARK VINA RESULT:    -6.948      4.591      9.993
REMARK INTER + INTRA:         -11.859
REMARK INTER:                  -9.965
REMARK INTRA:                  -1.894
REMARK UNBOUND:                -1.053
REMARK  Name = 
REMARK  10 active torsions:
REMARK  status: ('A' for Active; 'I' for Inactive)
REMARK    1  A    between atoms: N_1  and  C_2
REMARK    2  A    between atoms: C_2  and  C_3
REMARK    3  A    between atoms: C_3  and  N_4
REMARK    4  A    between atoms: N_4  and  C_5
REMARK    5  A    between atoms: C_5  and  C_6
REMARK    6  A    between atoms: C_9  and  C_10
REMARK    7  A    between atoms: C_10  and  N_11
REMARK    8  A    between atoms: C_12  and  C_14
REMARK    9  A    between atoms: C_25  and  C_26
REMARK   10  A    between atoms: C_26  and  N_27
REMARK                            x       y       z     vdW  Elec       q    Type
REMARK                         _______ _______ _______ _____ _____    ______ ____
ROOT
ATOM      1  C   UNL     1      51.380   3.343  17.744  0.00  0.00    +0.000 A 
ATOM      2  C   UNL     1      50.747   2.168  17.287  0.00  0.00    +0.000 A 
ATOM      3  C   UNL     1      49.395   2.156  16.943  0.00  0.00    +0.000 A 
ATOM      4  C   UNL     1      48.637   3.323  17.039  0.00  0.00    +0.000 A 
ATOM      5  C   UNL     1      49.268   4.503  17.462  0.00  0.00    +0.000 A 
ATOM      6  C   UNL     1      50.630   4.537  17.827  0.00  0.00    +0.000 A 
ENDROOT
BRANCH   1   7
ATOM      7  C   UNL     1      52.840   3.235  18.133  0.00  0.00    +0.000 C 
BRANCH   7   8
ATOM      8  N   UNL     1      53.205   1.986  18.808  0.00  0.00    +0.000 NA
ATOM      9  H   UNL     1      53.399   2.211  19.785  0.00  0.00    +0.000 HD
BRANCH   8  10
ATOM     10  C   UNL     1      54.423   1.373  18.257  0.00  0.00    +0.000 C 
BRANCH  10  11
ATOM     11  C   UNL     1      54.449  -0.140  18.544  0.00  0.00    +0.000 C 
BRANCH  11  12
ATOM     12  N   UNL     1      53.112  -0.744  18.501  0.00  0.00    +0.000 NA
ATOM     13  H   UNL     1      52.638  -0.416  17.659  0.00  0.00    +0.000 HD
ATOM     14  H   UNL     1      52.572  -0.362  19.276  0.00  0.00    +0.000 HD
ENDBRANCH  11  12
ENDBRANCH  10  11
ENDBRANCH   8  10
ENDBRANCH   7   8
ENDBRANCH   1   7
BRANCH   4  15
ATOM     15  C   UNL     1      47.174   3.323  16.685  0.00  0.00    +0.000 C 
BRANCH  15  16
ATOM     16  N   UNL     1      46.848   4.393  15.772  0.00  0.00    +0.000 N 
ATOM     17  C   UNL     1      46.908   4.233  14.412  0.00  0.00    +0.000 C 
ATOM     18  O   UNL     1      47.214   3.162  13.895  0.00  0.00    +0.000 OA
ATOM     19  H   UNL     1      46.782   5.325  16.168  0.00  0.00    +0.000 HD
BRANCH  17  20
ATOM     20  C   UNL     1      46.536   5.389  13.586  0.00  0.00    +0.000 A 
ATOM     21  C   UNL     1      45.342   5.352  12.875  0.00  0.00    +0.000 A 
ATOM     22  S   UNL     1      45.015   6.776  12.003  0.00  0.00    +0.000 S 
ATOM     23  C   UNL     1      46.485   7.476  12.495  0.00  0.00    +0.000 A 
ATOM     24  N   UNL     1      46.838   8.720  12.064  0.00  0.00    +0.000 NA
ATOM     25  C   UNL     1      47.996   9.116  12.476  0.00  0.00    +0.000 A 
ATOM     26  N   UNL     1      48.823   8.391  13.294  0.00  0.00    +0.000 N 
ATOM     27  C   UNL     1      48.481   7.154  13.803  0.00  0.00    +0.000 A 
ATOM     28  O   UNL     1      49.207   6.572  14.603  0.00  0.00    +0.000 OA
ATOM     29  C   UNL     1      47.204   6.645  13.337  0.00  0.00    +0.000 A 
ATOM     30  H   UNL     1      49.706   8.767  13.602  0.00  0.00    +0.000 HD
ENDBRANCH  17  20
ENDBRANCH  15  16
ENDBRANCH   4  15
BRANCH   6  31
ATOM     31  C   UNL     1      51.208   5.882  18.242  0.00  0.00    +0.000 C 
BRANCH  31  32
ATOM     32  N   UNL     1      50.688   6.897  17.355  0.00  0.00    +0.000 N 
ATOM     33  C   UNL     1      49.837   7.853  17.857  0.00  0.00    +0.000 A 
ATOM     34  N   UNL     1      49.196   7.683  19.025  0.00  0.00    +0.000 NA
ATOM     35  C   UNL     1      48.392   8.694  19.435  0.00  0.00    +0.000 A 
ATOM     36  C   UNL     1      48.197   9.853  18.724  0.00  0.00    +0.000 A 
ATOM     37 CL   UNL     1      47.200  11.125  19.280  0.00  0.00    +0.000 Cl
ATOM     38  C   UNL     1      48.878   9.921  17.536  0.00  0.00    +0.000 A 
ATOM     39  N   UNL     1      49.708   8.951  17.095  0.00  0.00    +0.000 NA
ATOM     40  H   UNL     1      51.360   7.350  16.750  0.00  0.00    +0.000 HD
ENDBRANCH  31  32
ENDBRANCH   6  31
TORSDOF 10
ENDMDL
MODEL 8
REMARK VINA RESULT:    -6.799      3.659      5.183
REMARK INTER + INTRA:         -11.629
REMARK INTER:                  -9.734
REMARK INTRA:                  -1.895
REMARK UNBOUND:                -1.053
REMARK  Name = 
REMARK  10 active torsions:
REMARK  status: ('A' for Active; 'I' for Inactive)
REMARK    1  A    between atoms: N_1  and  C_2
REMARK    2  A    between atoms: C_2  and  C_3
REMARK    3  A    between atoms: C_3  and  N_4
REMARK    4  A    between atoms: N_4  and  C_5
REMARK    5  A    between atoms: C_5  and  C_6
REMARK    6  A    between atoms: C_9  and  C_10
REMARK    7  A    between atoms: C_10  and  N_11
REMARK    8  A    between atoms: C_12  and  C_14
REMARK    9  A    between atoms: C_25  and  C_26
REMARK   10  A    between atoms: C_26  and  N_27
REMARK                            x       y       z     vdW  Elec       q    Type
REMARK                         _______ _______ _______ _____ _____    ______ ____
ROOT
ATOM      1  C   UNL     1      44.835   8.443  11.543  0.00  0.00    +0.000 A 
ATOM      2  C   UNL     1      43.994   7.313  11.477  0.00  0.00    +0.000 A 
ATOM      3  C   UNL     1      44.328   6.118  12.114  0.00  0.00    +0.000 A 
ATOM      4  C   UNL     1      45.513   6.021  12.843  0.00  0.00    +0.000 A 
ATOM      5  C   UNL     1      46.339   7.151  12.940  0.00  0.00    +0.000 A 
ATOM      6  C   UNL     1      46.028   8.366  12.294  0.00  0.00    +0.000 A 
ENDROOT
BRANCH   1   7
ATOM      7  C   UNL     1      44.399   9.676  10.778  0.00  0.00    +0.000 C 
BRANCH   7   8
ATOM      8  N   UNL     1      43.010   9.647  10.308  0.00  0.00    +0.000 NA
ATOM      9  H   UNL     1      43.030   9.703   9.289  0.00  0.00    +0.000 HD
BRANCH   8  10
ATOM     10  C   UNL     1      42.220  10.791  10.788  0.00  0.00    +0.000 C 
BRANCH  10  11
ATOM     11  C   UNL     1      40.712  10.514  10.633  0.00  0.00    +0.000 C 
BRANCH  11  12
ATOM     12  N   UNL     1      40.267   9.362  11.425  0.00  0.00    +0.000 NA
ATOM     13  H   UNL     1      41.091   8.900  11.811  0.00  0.00    +0.000 HD
ATOM     14  H   UNL     1      39.857   8.682  10.785  0.00  0.00    +0.000 HD
ENDBRANCH  11  12
ENDBRANCH  10  11
ENDBRANCH   8  10
ENDBRANCH   7   8
ENDBRANCH   1   7
BRANCH   4  15
ATOM     15  C   UNL     1      45.895   4.733  13.525  0.00  0.00    +0.000 C 
BRANCH  15  16
ATOM     16  N   UNL     1      46.578   4.976  14.774  0.00  0.00    +0.000 N 
ATOM     17  C   UNL     1      47.392   4.037  15.354  0.00  0.00    +0.000 C 
ATOM     18  O   UNL     1      47.609   2.949  14.827  0.00  0.00    +0.000 OA
ATOM     19  H   UNL     1      46.269   5.777  15.314  0.00  0.00    +0.000 HD
BRANCH  17  20
ATOM     20  C   UNL     1      48.047   4.408  16.615  0.00  0.00    +0.000 A 
ATOM     21  C   UNL     1      47.761   3.677  17.762  0.00  0.00    +0.000 A 
ATOM     22  S   UNL     1      48.627   4.186  19.136  0.00  0.00    +0.000 S 
ATOM     23  C   UNL     1      49.373   5.441  18.265  0.00  0.00    +0.000 A 
ATOM     24  N   UNL     1      50.241   6.292  18.882  0.00  0.00    +0.000 NA
ATOM     25  C   UNL     1      50.703   7.225  18.118  0.00  0.00    +0.000 A 
ATOM     26  N   UNL     1      50.393   7.372  16.792  0.00  0.00    +0.000 N 
ATOM     27  C   UNL     1      49.567   6.501  16.111  0.00  0.00    +0.000 A 
ATOM     28  O   UNL     1      49.382   6.612  14.903  0.00  0.00    +0.000 OA
ATOM     29  C   UNL     1      48.988   5.456  16.935  0.00  0.00    +0.000 A 
ATOM     30  H   UNL     1      50.808   8.109  16.241  0.00  0.00    +0.000 HD
ENDBRANCH  17  20
ENDBRANCH  15  16
ENDBRANCH   4  15
BRANCH   6  31
ATOM     31  C   UNL     1      46.987   9.529  12.498  0.00  0.00    +0.000 C 
BRANCH  31  32
ATOM     32  N   UNL     1      48.199   9.259  11.760  0.00  0.00    +0.000 N 
ATOM     33  C   UNL     1      49.403   9.263  12.424  0.00  0.00    +0.000 A 
ATOM     34  N   UNL     1      49.543   9.845  13.626  0.00  0.00    +0.000 NA
ATOM     35  C   UNL     1      50.769   9.778  14.200  0.00  0.00    +0.000 A 
ATOM     36  C   UNL     1      51.854   9.166  13.618  0.00  0.00    +0.000 A 
ATOM     37 CL   UNL     1      53.381   9.071  14.379  0.00  0.00    +0.000 Cl
ATOM     38  C   UNL     1      51.614   8.621  12.384  0.00  0.00    +0.000 A 
ATOM     39  N   UNL     1      50.405   8.642  11.781  0.00  0.00    +0.000 NA
ATOM     40  H   UNL     1      48.177   8.460  11.139  0.00  0.00    +0.000 HD
ENDBRANCH  31  32
ENDBRANCH   6  31
TORSDOF 10
ENDMDL
MODEL 9
REMARK VINA RESULT:    -6.786      3.639      9.181
REMARK INTER + INTRA:         -11.608
REMARK INTER:                  -9.881
REMARK INTRA:                  -1.727
REMARK UNBOUND:                -1.053
REMARK  Name = 
REMARK  10 active torsions:
REMARK  status: ('A' for Active; 'I' for Inactive)
REMARK    1  A    between atoms: N_1  and  C_2
REMARK    2  A    between atoms: C_2  and  C_3
REMARK    3  A    between atoms: C_3  and  N_4
REMARK    4  A    between atoms: N_4  and  C_5
REMARK    5  A    between atoms: C_5  and  C_6
REMARK    6  A    between atoms: C_9  and  C_10
REMARK    7  A    between atoms: C_10  and  N_11
REMARK    8  A    between atoms: C_12  and  C_14
REMARK    9  A    between atoms: C_25  and  C_26
REMARK   10  A    between atoms: C_26  and  N_27
REMARK                            x       y       z     vdW  Elec       q    Type
REMARK                         _______ _______ _______ _____ _____    ______ ____
ROOT
ATOM      1  C   UNL     1      51.490   4.517  17.574  0.00  0.00    +0.000 A 
ATOM      2  C   UNL     1      50.990   3.210  17.753  0.00  0.00    +0.000 A 
ATOM      3  C   UNL     1      49.661   2.894  17.474  0.00  0.00    +0.000 A 
ATOM      4  C   UNL     1      48.792   3.878  17.001  0.00  0.00    +0.000 A 
ATOM      5  C   UNL     1      49.291   5.173  16.790  0.00  0.00    +0.000 A 
ATOM      6  C   UNL     1      50.628   5.518  17.076  0.00  0.00    +0.000 A 
ENDROOT
BRANCH   1   7
ATOM      7  C   UNL     1      52.938   4.761  17.949  0.00  0.00    +0.000 C 
BRANCH   7   8
ATOM      8  N   UNL     1      53.272   4.452  19.343  0.00  0.00    +0.000 NA
ATOM      9  H   UNL     1      52.473   3.962  19.748  0.00  0.00    +0.000 HD
BRANCH   8  10
ATOM     10  C   UNL     1      53.498   5.656  20.157  0.00  0.00    +0.000 C 
BRANCH  10  11
ATOM     11  C   UNL     1      53.895   6.849  19.266  0.00  0.00    +0.000 C 
BRANCH  11  12
ATOM     12  N   UNL     1      55.158   7.469  19.685  0.00  0.00    +0.000 NA
ATOM     13  H   UNL     1      55.896   6.768  19.622  0.00  0.00    +0.000 HD
ATOM     14  H   UNL     1      55.084   7.687  20.678  0.00  0.00    +0.000 HD
ENDBRANCH  11  12
ENDBRANCH  10  11
ENDBRANCH   8  10
ENDBRANCH   7   8
ENDBRANCH   1   7
BRANCH   4  15
ATOM     15  C   UNL     1      47.350   3.556  16.710  0.00  0.00    +0.000 C 
BRANCH  15  16
ATOM     16  N   UNL     1      46.789   4.467  15.739  0.00  0.00    +0.000 N 
ATOM     17  C   UNL     1      46.783   4.187  14.397  0.00  0.00    +0.000 C 
ATOM     18  O   UNL     1      47.227   3.133  13.949  0.00  0.00    +0.000 OA
ATOM     19  H   UNL     1      46.595   5.410  16.058  0.00  0.00    +0.000 HD
BRANCH  17  20
ATOM     20  C   UNL     1      46.167   5.183  13.510  0.00  0.00    +0.000 A 
ATOM     21  C   UNL     1      46.855   6.360  13.239  0.00  0.00    +0.000 A 
ATOM     22  S   UNL     1      46.045   7.397  12.159  0.00  0.00    +0.000 S 
ATOM     23  C   UNL     1      44.717   6.339  12.058  0.00  0.00    +0.000 A 
ATOM     24  N   UNL     1      43.635   6.657  11.292  0.00  0.00    +0.000 NA
ATOM     25  C   UNL     1      42.680   5.790  11.336  0.00  0.00    +0.000 A 
ATOM     26  N   UNL     1      42.716   4.626  12.059  0.00  0.00    +0.000 N 
ATOM     27  C   UNL     1      43.813   4.234  12.800  0.00  0.00    +0.000 A 
ATOM     28  O   UNL     1      43.844   3.144  13.363  0.00  0.00    +0.000 OA
ATOM     29  C   UNL     1      44.900   5.196  12.817  0.00  0.00    +0.000 A 
ATOM     30  H   UNL     1      41.946   3.975  12.032  0.00  0.00    +0.000 HD
ENDBRANCH  17  20
ENDBRANCH  15  16
ENDBRANCH   4  15
BRANCH   6  31
ATOM     31  C   UNL     1      51.059   6.946  16.779  0.00  0.00    +0.000 C 
BRANCH  31  32
ATOM     32  N   UNL     1      51.139   7.111  15.345  0.00  0.00    +0.000 N 
ATOM     33  C   UNL     1      50.311   8.019  14.728  0.00  0.00    +0.000 A 
ATOM     34  N   UNL     1      49.208   8.491  15.330  0.00  0.00    +0.000 NA
ATOM     35  C   UNL     1      48.471   9.393  14.638  0.00  0.00    +0.000 A 
ATOM     36  C   UNL     1      48.785   9.830  13.374  0.00  0.00    +0.000 A 
ATOM     37 CL   UNL     1      47.853  10.992  12.537  0.00  0.00    +0.000 Cl
ATOM     38  C   UNL     1      49.917   9.274  12.838  0.00  0.00    +0.000 A 
ATOM     39  N   UNL     1      50.697   8.389  13.496  0.00  0.00    +0.000 NA
ATOM     40  H   UNL     1      52.068   7.207  14.957  0.00  0.00    +0.000 HD
ENDBRANCH  31  32
ENDBRANCH   6  31
TORSDOF 10
ENDMDL
