MODEL 1
REMARK VINA RESULT:    -5.959      0.000      0.000
REMARK INTER + INTRA:          -9.274
REMARK INTER:                  -8.050
REMARK INTRA:                  -1.224
REMARK UNBOUND:                -1.224
REMARK  Name = 
REMARK  7 active torsions:
REMARK  status: ('A' for Active; 'I' for Inactive)
REMARK    1  A    between atoms: C_1  and  O_2
REMARK    2  A    between atoms: O_2  and  C_3
REMARK    3  A    between atoms: C_10  and  C_11
REMARK    4  A    between atoms: N_13  and  C_14
REMARK    5  A    between atoms: C_14  and  C_15
REMARK    6  A    between atoms: C_18  and  C_19
REMARK    7  A    between atoms: C_20  and  C_21
REMARK                            x       y       z     vdW  Elec       q    Type
REMARK                         _______ _______ _______ _____ _____    ______ ____
ROOT
ATOM      1  C   UNL     1      47.943   7.881  13.913  0.00  0.00    +0.000 C 
ATOM      2  O   UNL     1      48.833   8.541  13.380  0.00  0.00    +0.000 OA
ATOM      3  N   UNL     1      47.909   7.707  15.270  0.00  0.00    +0.000 N 
ATOM      4  H   UNL     1      47.140   7.210  15.700  0.00  0.00    +0.000 HD
ENDROOT
BRANCH   1  12
ATOM      5  C   UNL     1      46.792   4.649  13.626  0.00  0.00    +0.000 A 
ATOM      6  N   UNL     1      46.148   3.501  13.337  0.00  0.00    +0.000 NA
ATOM      7  C   UNL     1      45.148   3.548  12.453  0.00  0.00    +0.000 A 
ATOM      8  N   UNL     1      44.703   4.619  11.803  0.00  0.00    +0.000 NA
ATOM      9  C   UNL     1      45.367   5.742  12.126  0.00  0.00    +0.000 A 
ATOM     10  S   UNL     1      44.938   7.210  11.388  0.00  0.00    +0.000 S 
ATOM     11  C   UNL     1      46.133   8.051  12.255  0.00  0.00    +0.000 A 
ATOM     12  C   UNL     1      46.875   7.252  13.117  0.00  0.00    +0.000 A 
ATOM     13  C   UNL     1      46.417   5.866  13.031  0.00  0.00    +0.000 A 
BRANCH   5  15
ATOM     14  C   UNL     1      47.393   4.014  15.796  0.00  0.00    +0.000 C 
ATOM     15  O   UNL     1      47.800   4.607  14.565  0.00  0.00    +0.000 OA
ENDBRANCH   5  15
ENDBRANCH   1  12
BRANCH   3  16
ATOM     16  C   UNL     1      48.909   8.274  16.143  0.00  0.00    +0.000 C 
BRANCH  16  17
ATOM     17  C   UNL     1      49.894   7.227  16.600  0.00  0.00    +0.000 A 
ATOM     18  C   UNL     1      51.210   7.223  16.120  0.00  0.00    +0.000 A 
ATOM     19  C   UNL     1      52.119   6.236  16.526  0.00  0.00    +0.000 A 
ATOM     20  C   UNL     1      51.733   5.232  17.423  0.00  0.00    +0.000 A 
ATOM     21  C   UNL     1      50.409   5.226  17.883  0.00  0.00    +0.000 A 
ATOM     22  C   UNL     1      49.499   6.210  17.477  0.00  0.00    +0.000 A 
BRANCH  20  23
ATOM     23  C   UNL     1      52.629   4.139  17.838  0.00  0.00    +0.000 C 
ATOM     24  C   UNL     1      52.323   2.830  17.851  0.00  0.00    +0.000 C 
BRANCH  24  25
ATOM     25  C   UNL     1      53.260   1.781  18.292  0.00  0.00    +0.000 A 
ATOM     26  C   UNL     1      53.204   0.507  17.733  0.00  0.00    +0.000 A 
ATOM     27  C   UNL     1      54.095  -0.468  18.181  0.00  0.00    +0.000 A 
ATOM     28  C   UNL     1      55.017  -0.145  19.169  0.00  0.00    +0.000 A 
ATOM     29  C   UNL     1      55.009   1.145  19.669  0.00  0.00    +0.000 A 
ATOM     30  N   UNL     1      54.156   2.108  19.255  0.00  0.00    +0.000 NA
ENDBRANCH  24  25
ENDBRANCH  20  23
ENDBRANCH  16  17
ENDBRANCH   3  16
TORSDOF 6
ENDMDL
MODEL 2
REMARK VINA RESULT:    -5.752      3.471      8.934
REMARK INTER + INTRA:          -8.994
REMARK INTER:                  -7.749
REMARK INTRA:                  -1.244
REMARK UNBOUND:                -1.224
REMARK  Name = 
REMARK  7 active torsions:
REMARK  status: ('A' for Active; 'I' for Inactive)
REMARK    1  A    between atoms: C_1  and  O_2
REMARK    2  A    between atoms: O_2  and  C_3
REMARK    3  A    between atoms: C_10  and  C_11
REMARK    4  A    between atoms: N_13  and  C_14
REMARK    5  A    between atoms: C_14  and  C_15
REMARK    6  A    between atoms: C_18  and  C_19
REMARK    7  A    between atoms: C_20  and  C_21
REMARK                            x       y       z     vdW  Elec       q    Type
REMARK                         _______ _______ _______ _____ _____    ______ ____
ROOT
ATOM      1  C   UNL     1      52.335   5.553  18.931  0.00  0.00    +0.000 C 
ATOM      2  O   UNL     1      51.773   6.136  19.856  0.00  0.00    +0.000 OA
ATOM      3  N   UNL     1      52.262   6.027  17.649  0.00  0.00    +0.000 N 
ATOM      4  H   UNL     1      52.775   5.570  16.907  0.00  0.00    +0.000 HD
ENDROOT
BRANCH   1  12
ATOM      5  C   UNL     1      52.091   2.338  17.724  0.00  0.00    +0.000 A 
ATOM      6  N   UNL     1      52.232   1.036  17.408  0.00  0.00    +0.000 NA
ATOM      7  C   UNL     1      53.228   0.355  17.982  0.00  0.00    +0.000 A 
ATOM      8  N   UNL     1      54.117   0.819  18.854  0.00  0.00    +0.000 NA
ATOM      9  C   UNL     1      53.945   2.122  19.136  0.00  0.00    +0.000 A 
ATOM     10  S   UNL     1      54.987   2.886  20.237  0.00  0.00    +0.000 S 
ATOM     11  C   UNL     1      54.176   4.367  20.053  0.00  0.00    +0.000 A 
ATOM     12  C   UNL     1      53.111   4.322  19.160  0.00  0.00    +0.000 A 
ATOM     13  C   UNL     1      52.972   2.972  18.618  0.00  0.00    +0.000 A 
BRANCH   5  15
ATOM     14  C   UNL     1      49.800   2.455  17.268  0.00  0.00    +0.000 C 
ATOM     15  O   UNL     1      51.085   3.049  17.106  0.00  0.00    +0.000 OA
ENDBRANCH   5  15
ENDBRANCH   1  12
BRANCH   3  16
ATOM     16  C   UNL     1      51.523   7.221  17.312  0.00  0.00    +0.000 C 
BRANCH  16  17
ATOM     17  C   UNL     1      50.372   6.910  16.389  0.00  0.00    +0.000 A 
ATOM     18  C   UNL     1      49.338   6.055  16.794  0.00  0.00    +0.000 A 
ATOM     19  C   UNL     1      48.281   5.747  15.927  0.00  0.00    +0.000 A 
ATOM     20  C   UNL     1      48.233   6.287  14.635  0.00  0.00    +0.000 A 
ATOM     21  C   UNL     1      49.280   7.123  14.226  0.00  0.00    +0.000 A 
ATOM     22  C   UNL     1      50.339   7.431  15.089  0.00  0.00    +0.000 A 
BRANCH  20  23
ATOM     23  C   UNL     1      47.176   5.952  13.665  0.00  0.00    +0.000 C 
ATOM     24  C   UNL     1      46.427   4.834  13.670  0.00  0.00    +0.000 C 
BRANCH  24  25
ATOM     25  C   UNL     1      45.392   4.547  12.661  0.00  0.00    +0.000 A 
ATOM     26  C   UNL     1      45.434   5.165  11.415  0.00  0.00    +0.000 A 
ATOM     27  C   UNL     1      44.432   4.883  10.486  0.00  0.00    +0.000 A 
ATOM     28  C   UNL     1      43.421   3.994  10.824  0.00  0.00    +0.000 A 
ATOM     29  C   UNL     1      43.454   3.420  12.083  0.00  0.00    +0.000 A 
ATOM     30  N   UNL     1      44.410   3.677  13.002  0.00  0.00    +0.000 NA
ENDBRANCH  24  25
ENDBRANCH  20  23
ENDBRANCH  16  17
ENDBRANCH   3  16
TORSDOF 6
ENDMDL
MODEL 3
REMARK VINA RESULT:    -5.515      2.551      3.524
REMARK INTER + INTRA:          -8.673
REMARK INTER:                  -7.946
REMARK INTRA:                  -0.726
REMARK UNBOUND:                -1.224
REMARK  Name = 
REMARK  7 active torsions:
REMARK  status: ('A' for Active; 'I' for Inactive)
REMARK    1  A    between atoms: C_1  and  O_2
REMARK    2  A    between atoms: O_2  and  C_3
REMARK    3  A    between atoms: C_10  and  C_11
REMARK    4  A    between atoms: N_13  and  C_14
REMARK    5  A    between atoms: C_14  and  C_15
REMARK    6  A    between atoms: C_18  and  C_19
REMARK    7  A    between atoms: C_20  and  C_21
REMARK                            x       y       z     vdW  Elec       q    Type
REMARK                         _______ _______ _______ _____ _____    ______ ____
ROOT
ATOM      1  C   UNL     1      46.202   6.908  11.316  0.00  0.00    +0.000 C 
ATOM      2  O   UNL     1      45.516   7.822  11.768  0.00  0.00    +0.000 OA
ATOM      3  N   UNL     1      47.569   6.969  11.343  0.00  0.00    +0.000 N 
ATOM      4  H   UNL     1      48.120   6.186  11.021  0.00  0.00    +0.000 HD
ENDROOT
BRANCH   1  12
ATOM      5  C   UNL     1      44.491   4.232  12.644  0.00  0.00    +0.000 A 
ATOM      6  N   UNL     1      43.794   3.105  12.889  0.00  0.00    +0.000 NA
ATOM      7  C   UNL     1      43.474   2.326  11.852  0.00  0.00    +0.000 A 
ATOM      8  N   UNL     1      43.773   2.533  10.573  0.00  0.00    +0.000 NA
ATOM      9  C   UNL     1      44.462   3.669  10.372  0.00  0.00    +0.000 A 
ATOM     10  S   UNL     1      44.935   4.094   8.798  0.00  0.00    +0.000 S 
ATOM     11  C   UNL     1      45.679   5.518   9.353  0.00  0.00    +0.000 A 
ATOM     12  C   UNL     1      45.585   5.706  10.728  0.00  0.00    +0.000 A 
ATOM     13  C   UNL     1      44.860   4.592  11.335  0.00  0.00    +0.000 A 
BRANCH   5  15
ATOM     14  C   UNL     1      46.032   4.732  14.331  0.00  0.00    +0.000 C 
ATOM     15  O   UNL     1      44.790   5.054  13.709  0.00  0.00    +0.000 OA
ENDBRANCH   5  15
ENDBRANCH   1  12
BRANCH   3  16
ATOM     16  C   UNL     1      48.276   8.102  11.891  0.00  0.00    +0.000 C 
BRANCH  16  17
ATOM     17  C   UNL     1      48.984   7.738  13.172  0.00  0.00    +0.000 A 
ATOM     18  C   UNL     1      50.318   8.110  13.384  0.00  0.00    +0.000 A 
ATOM     19  C   UNL     1      50.984   7.750  14.564  0.00  0.00    +0.000 A 
ATOM     20  C   UNL     1      50.330   7.014  15.560  0.00  0.00    +0.000 A 
ATOM     21  C   UNL     1      49.003   6.625  15.334  0.00  0.00    +0.000 A 
ATOM     22  C   UNL     1      48.336   6.981  14.155  0.00  0.00    +0.000 A 
BRANCH  20  23
ATOM     23  C   UNL     1      50.998   6.562  16.793  0.00  0.00    +0.000 C 
ATOM     24  C   UNL     1      50.824   5.370  17.393  0.00  0.00    +0.000 C 
BRANCH  24  25
ATOM     25  C   UNL     1      51.512   4.980  18.636  0.00  0.00    +0.000 A 
ATOM     26  C   UNL     1      52.548   4.051  18.605  0.00  0.00    +0.000 A 
ATOM     27  C   UNL     1      53.171   3.691  19.800  0.00  0.00    +0.000 A 
ATOM     28  C   UNL     1      52.746   4.268  20.989  0.00  0.00    +0.000 A 
ATOM     29  C   UNL     1      51.712   5.186  20.933  0.00  0.00    +0.000 A 
ATOM     30  N   UNL     1      51.090   5.551  19.791  0.00  0.00    +0.000 NA
ENDBRANCH  24  25
ENDBRANCH  20  23
ENDBRANCH  16  17
ENDBRANCH   3  16
TORSDOF 6
ENDMDL
MODEL 4
REMARK VINA RESULT:    -5.456      1.604      2.362
REMARK INTER + INTRA:          -8.594
REMARK INTER:                  -7.453
REMARK INTRA:                  -1.141
REMARK UNBOUND:                -1.224
REMARK  Name = 
REMARK  7 active torsions:
REMARK  status: ('A' for Active; 'I' for Inactive)
REMARK    1  A    between atoms: C_1  and  O_2
REMARK    2  A    between atoms: O_2  and  C_3
REMARK    3  A    between atoms: C_10  and  C_11
REMARK    4  A    between atoms: N_13  and  C_14
REMARK    5  A    between atoms: C_14  and  C_15
REMARK    6  A    between atoms: C_18  and  C_19
REMARK    7  A    between atoms: C_20  and  C_21
REMARK                            x       y       z     vdW  Elec       q    Type
REMARK                         _______ _______ _______ _____ _____    ______ ____
ROOT
ATOM      1  C   UNL     1      48.980   7.360  15.669  0.00  0.00    +0.000 C 
ATOM      2  O   UNL     1      48.709   8.257  16.466  0.00  0.00    +0.000 OA
ATOM      3  N   UNL     1      50.101   6.590  15.827  0.00  0.00    +0.000 N 
ATOM      4  H   UNL     1      50.281   5.820  15.198  0.00  0.00    +0.000 HD
ENDROOT
BRANCH   1  12
ATOM      5  C   UNL     1      47.300   4.550  14.606  0.00  0.00    +0.000 A 
ATOM      6  N   UNL     1      46.546   3.624  13.982  0.00  0.00    +0.000 NA
ATOM      7  C   UNL     1      45.918   3.979  12.858  0.00  0.00    +0.000 A 
ATOM      8  N   UNL     1      45.951   5.167  12.263  0.00  0.00    +0.000 NA
ATOM      9  C   UNL     1      46.707   6.062  12.920  0.00  0.00    +0.000 A 
ATOM     10  S   UNL     1      46.871   7.636  12.303  0.00  0.00    +0.000 S 
ATOM     11  C   UNL     1      47.880   8.090  13.592  0.00  0.00    +0.000 A 
ATOM     12  C   UNL     1      48.112   7.075  14.514  0.00  0.00    +0.000 A 
ATOM     13  C   UNL     1      47.412   5.859  14.103  0.00  0.00    +0.000 A 
BRANCH   5  15
ATOM     14  C   UNL     1      47.028   4.163  16.896  0.00  0.00    +0.000 C 
ATOM     15  O   UNL     1      47.920   4.195  15.784  0.00  0.00    +0.000 OA
ENDBRANCH   5  15
ENDBRANCH   1  12
BRANCH   3  16
ATOM     16  C   UNL     1      51.022   6.789  16.920  0.00  0.00    +0.000 C 
BRANCH  16  17
ATOM     17  C   UNL     1      51.712   5.501  17.295  0.00  0.00    +0.000 A 
ATOM     18  C   UNL     1      53.104   5.453  17.452  0.00  0.00    +0.000 A 
ATOM     19  C   UNL     1      53.748   4.251  17.776  0.00  0.00    +0.000 A 
ATOM     20  C   UNL     1      53.016   3.070  17.952  0.00  0.00    +0.000 A 
ATOM     21  C   UNL     1      51.627   3.118  17.772  0.00  0.00    +0.000 A 
ATOM     22  C   UNL     1      50.981   4.317  17.446  0.00  0.00    +0.000 A 
BRANCH  20  23
ATOM     23  C   UNL     1      53.647   1.770  18.238  0.00  0.00    +0.000 C 
ATOM     24  C   UNL     1      53.216   0.572  17.803  0.00  0.00    +0.000 C 
BRANCH  24  25
ATOM     25  C   UNL     1      53.883  -0.699  18.134  0.00  0.00    +0.000 A 
ATOM     26  C   UNL     1      54.884  -1.204  17.309  0.00  0.00    +0.000 A 
ATOM     27  C   UNL     1      55.488  -2.417  17.642  0.00  0.00    +0.000 A 
ATOM     28  C   UNL     1      55.079  -3.089  18.787  0.00  0.00    +0.000 A 
ATOM     29  C   UNL     1      54.079  -2.517  19.554  0.00  0.00    +0.000 A 
ATOM     30  N   UNL     1      53.477  -1.346  19.254  0.00  0.00    +0.000 NA
ENDBRANCH  24  25
ENDBRANCH  20  23
ENDBRANCH  16  17
ENDBRANCH   3  16
TORSDOF 6
ENDMDL
MODEL 5
REMARK VINA RESULT:    -5.180      1.509      2.215
REMARK INTER + INTRA:          -8.220
REMARK INTER:                  -7.155
REMARK INTRA:                  -1.066
REMARK UNBOUND:                -1.224
REMARK  Name = 
REMARK  7 active torsions:
REMARK  status: ('A' for Active; 'I' for Inactive)
REMARK    1  A    between atoms: C_1  and  O_2
REMARK    2  A    between atoms: O_2  and  C_3
REMARK    3  A    between atoms: C_10  and  C_11
REMARK    4  A    between atoms: N_13  and  C_14
REMARK    5  A    between atoms: C_14  and  C_15
REMARK    6  A    between atoms: C_18  and  C_19
REMARK    7  A    between atoms: C_20  and  C_21
REMARK                            x       y       z     vdW  Elec       q    Type
REMARK                         _______ _______ _______ _____ _____    ______ ____
ROOT
ATOM      1  C   UNL     1      46.619   7.939  12.990  0.00  0.00    +0.000 C 
ATOM      2  O   UNL     1      46.205   8.888  13.653  0.00  0.00    +0.000 OA
ATOM      3  N   UNL     1      47.958   7.763  12.769  0.00  0.00    +0.000 N 
ATOM      4  H   UNL     1      48.289   6.948  12.271  0.00  0.00    +0.000 HD
ENDROOT
BRANCH   1  12
ATOM      5  C   UNL     1      46.355   4.515  13.226  0.00  0.00    +0.000 A 
ATOM      6  N   UNL     1      46.020   3.212  13.154  0.00  0.00    +0.000 NA
ATOM      7  C   UNL     1      44.972   2.874  12.396  0.00  0.00    +0.000 A 
ATOM      8  N   UNL     1      44.204   3.691  11.682  0.00  0.00    +0.000 NA
ATOM      9  C   UNL     1      44.568   4.980  11.788  0.00  0.00    +0.000 A 
ATOM     10  S   UNL     1      43.701   6.168  10.939  0.00  0.00    +0.000 S 
ATOM     11  C   UNL     1      44.696   7.402  11.551  0.00  0.00    +0.000 A 
ATOM     12  C   UNL     1      45.695   6.951  12.407  0.00  0.00    +0.000 A 
ATOM     13  C   UNL     1      45.619   5.497  12.541  0.00  0.00    +0.000 A 
BRANCH   5  15
ATOM     14  C   UNL     1      47.291   4.365  15.364  0.00  0.00    +0.000 C 
ATOM     15  O   UNL     1      47.413   4.867  14.036  0.00  0.00    +0.000 OA
ENDBRANCH   5  15
ENDBRANCH   1  12
BRANCH   3  16
ATOM     16  C   UNL     1      48.949   8.675  13.289  0.00  0.00    +0.000 C 
BRANCH  16  17
ATOM     17  C   UNL     1      49.794   8.017  14.351  0.00  0.00    +0.000 A 
ATOM     18  C   UNL     1      51.192   8.097  14.307  0.00  0.00    +0.000 A 
ATOM     19  C   UNL     1      51.978   7.465  15.281  0.00  0.00    +0.000 A 
ATOM     20  C   UNL     1      51.384   6.741  16.322  0.00  0.00    +0.000 A 
ATOM     21  C   UNL     1      49.986   6.645  16.350  0.00  0.00    +0.000 A 
ATOM     22  C   UNL     1      49.198   7.273  15.377  0.00  0.00    +0.000 A 
BRANCH  20  23
ATOM     23  C   UNL     1      52.162   6.012  17.338  0.00  0.00    +0.000 C 
ATOM     24  C   UNL     1      51.948   4.745  17.735  0.00  0.00    +0.000 C 
BRANCH  24  25
ATOM     25  C   UNL     1      52.754   4.072  18.770  0.00  0.00    +0.000 A 
ATOM     26  C   UNL     1      52.707   4.507  20.091  0.00  0.00    +0.000 A 
ATOM     27  C   UNL     1      53.492   3.859  21.045  0.00  0.00    +0.000 A 
ATOM     28  C   UNL     1      54.297   2.796  20.657  0.00  0.00    +0.000 A 
ATOM     29  C   UNL     1      54.283   2.424  19.324  0.00  0.00    +0.000 A 
ATOM     30  N   UNL     1      53.535   3.035  18.379  0.00  0.00    +0.000 NA
ENDBRANCH  24  25
ENDBRANCH  20  23
ENDBRANCH  16  17
ENDBRANCH   3  16
TORSDOF 6
ENDMDL
MODEL 6
REMARK VINA RESULT:    -5.177      4.716      8.710
REMARK INTER + INTRA:          -8.217
REMARK INTER:                  -7.223
REMARK INTRA:                  -0.995
REMARK UNBOUND:                -1.224
REMARK  Name = 
REMARK  7 active torsions:
REMARK  status: ('A' for Active; 'I' for Inactive)
REMARK    1  A    between atoms: C_1  and  O_2
REMARK    2  A    between atoms: O_2  and  C_3
REMARK    3  A    between atoms: C_10  and  C_11
REMARK    4  A    between atoms: N_13  and  C_14
REMARK    5  A    between atoms: C_14  and  C_15
REMARK    6  A    between atoms: C_18  and  C_19
REMARK    7  A    between atoms: C_20  and  C_21
REMARK                            x       y       z     vdW  Elec       q    Type
REMARK                         _______ _______ _______ _____ _____    ______ ____
ROOT
ATOM      1  C   UNL     1      48.454  10.215  17.266  0.00  0.00    +0.000 C 
ATOM      2  O   UNL     1      49.116  11.250  17.200  0.00  0.00    +0.000 OA
ATOM      3  N   UNL     1      48.064   9.553  16.134  0.00  0.00    +0.000 N 
ATOM      4  H   UNL     1      47.570   8.674  16.203  0.00  0.00    +0.000 HD
ENDROOT
BRANCH   1  12
ATOM      5  C   UNL     1      48.298   7.002  18.491  0.00  0.00    +0.000 A 
ATOM      6  N   UNL     1      48.158   5.874  19.214  0.00  0.00    +0.000 NA
ATOM      7  C   UNL     1      47.719   5.984  20.471  0.00  0.00    +0.000 A 
ATOM      8  N   UNL     1      47.391   7.103  21.109  0.00  0.00    +0.000 NA
ATOM      9  C   UNL     1      47.553   8.204  20.356  0.00  0.00    +0.000 A 
ATOM     10  S   UNL     1      47.177   9.727  21.006  0.00  0.00    +0.000 S 
ATOM     11  C   UNL     1      47.615  10.506  19.561  0.00  0.00    +0.000 A 
ATOM     12  C   UNL     1      48.055   9.643  18.564  0.00  0.00    +0.000 A 
ATOM     13  C   UNL     1      48.010   8.263  19.042  0.00  0.00    +0.000 A 
BRANCH   5  15
ATOM     14  C   UNL     1      48.631   5.583  16.662  0.00  0.00    +0.000 C 
ATOM     15  O   UNL     1      48.784   6.892  17.206  0.00  0.00    +0.000 OA
ENDBRANCH   5  15
ENDBRANCH   1  12
BRANCH   3  16
ATOM     16  C   UNL     1      48.395  10.029  14.812  0.00  0.00    +0.000 C 
BRANCH  16  17
ATOM     17  C   UNL     1      47.891   9.087  13.748  0.00  0.00    +0.000 A 
ATOM     18  C   UNL     1      46.538   8.725  13.694  0.00  0.00    +0.000 A 
ATOM     19  C   UNL     1      46.073   7.830  12.721  0.00  0.00    +0.000 A 
ATOM     20  C   UNL     1      46.950   7.279  11.778  0.00  0.00    +0.000 A 
ATOM     21  C   UNL     1      48.305   7.626  11.849  0.00  0.00    +0.000 A 
ATOM     22  C   UNL     1      48.773   8.518  12.822  0.00  0.00    +0.000 A 
BRANCH  20  23
ATOM     23  C   UNL     1      46.525   6.292  10.770  0.00  0.00    +0.000 C 
ATOM     24  C   UNL     1      45.679   5.267  10.978  0.00  0.00    +0.000 C 
BRANCH  24  25
ATOM     25  C   UNL     1      45.303   4.300   9.931  0.00  0.00    +0.000 A 
ATOM     26  C   UNL     1      44.691   3.097  10.272  0.00  0.00    +0.000 A 
ATOM     27  C   UNL     1      44.358   2.196   9.259  0.00  0.00    +0.000 A 
ATOM     28  C   UNL     1      44.642   2.521   7.939  0.00  0.00    +0.000 A 
ATOM     29  C   UNL     1      45.249   3.739   7.685  0.00  0.00    +0.000 A 
ATOM     30  N   UNL     1      45.584   4.628   8.646  0.00  0.00    +0.000 NA
ENDBRANCH  24  25
ENDBRANCH  20  23
ENDBRANCH  16  17
ENDBRANCH   3  16
TORSDOF 6
ENDMDL
MODEL 7
REMARK VINA RESULT:    -5.126      7.094      9.504
REMARK INTER + INTRA:          -8.147
REMARK INTER:                  -7.007
REMARK INTRA:                  -1.140
REMARK UNBOUND:                -1.224
REMARK  Name = 
REMARK  7 active torsions:
REMARK  status: ('A' for Active; 'I' for Inactive)
REMARK    1  A    between atoms: C_1  and  O_2
REMARK    2  A    between atoms: O_2  and  C_3
REMARK    3  A    between atoms: C_10  and  C_11
REMARK    4  A    between atoms: N_13  and  C_14
REMARK    5  A    between atoms: C_14  and  C_15
REMARK    6  A    between atoms: C_18  and  C_19
REMARK    7  A    between atoms: C_20  and  C_21
REMARK                            x       y       z     vdW  Elec       q    Type
REMARK                         _______ _______ _______ _____ _____    ______ ____
ROOT
ATOM      1  C   UNL     1      48.958   8.058  12.228  0.00  0.00    +0.000 C 
ATOM      2  O   UNL     1      48.605   9.175  11.852  0.00  0.00    +0.000 OA
ATOM      3  N   UNL     1      50.282   7.749  12.377  0.00  0.00    +0.000 N 
ATOM      4  H   UNL     1      50.556   6.846  12.742  0.00  0.00    +0.000 HD
ENDROOT
BRANCH   1  12
ATOM      5  C   UNL     1      48.545   5.903  14.881  0.00  0.00    +0.000 A 
ATOM      6  N   UNL     1      48.148   4.977  15.776  0.00  0.00    +0.000 NA
ATOM      7  C   UNL     1      47.063   4.251  15.490  0.00  0.00    +0.000 A 
ATOM      8  N   UNL     1      46.312   4.332  14.396  0.00  0.00    +0.000 NA
ATOM      9  C   UNL     1      46.737   5.271  13.535  0.00  0.00    +0.000 A 
ATOM     10  S   UNL     1      45.900   5.512  12.077  0.00  0.00    +0.000 S 
ATOM     11  C   UNL     1      46.969   6.747  11.610  0.00  0.00    +0.000 A 
ATOM     12  C   UNL     1      47.972   7.008  12.537  0.00  0.00    +0.000 A 
ATOM     13  C   UNL     1      47.833   6.116  13.687  0.00  0.00    +0.000 A 
BRANCH   5  15
ATOM     14  C   UNL     1      49.315   7.816  15.984  0.00  0.00    +0.000 C 
ATOM     15  O   UNL     1      49.642   6.676  15.192  0.00  0.00    +0.000 OA
ENDBRANCH   5  15
ENDBRANCH   1  12
BRANCH   3  16
ATOM     16  C   UNL     1      51.330   8.701  12.096  0.00  0.00    +0.000 C 
BRANCH  16  17
ATOM     17  C   UNL     1      51.926   8.471  10.730  0.00  0.00    +0.000 A 
ATOM     18  C   UNL     1      52.067   7.174  10.218  0.00  0.00    +0.000 A 
ATOM     19  C   UNL     1      52.644   6.959   8.959  0.00  0.00    +0.000 A 
ATOM     20  C   UNL     1      53.091   8.036   8.182  0.00  0.00    +0.000 A 
ATOM     21  C   UNL     1      52.968   9.329   8.707  0.00  0.00    +0.000 A 
ATOM     22  C   UNL     1      52.395   9.546   9.966  0.00  0.00    +0.000 A 
BRANCH  20  23
ATOM     23  C   UNL     1      53.754   7.862   6.878  0.00  0.00    +0.000 C 
ATOM     24  C   UNL     1      53.298   8.313   5.695  0.00  0.00    +0.000 C 
BRANCH  24  25
ATOM     25  C   UNL     1      54.001   8.095   4.418  0.00  0.00    +0.000 A 
ATOM     26  C   UNL     1      54.582   9.165   3.744  0.00  0.00    +0.000 A 
ATOM     27  C   UNL     1      55.229   8.930   2.531  0.00  0.00    +0.000 A 
ATOM     28  C   UNL     1      55.280   7.637   2.026  0.00  0.00    +0.000 A 
ATOM     29  C   UNL     1      54.680   6.629   2.761  0.00  0.00    +0.000 A 
ATOM     30  N   UNL     1      54.045   6.829   3.936  0.00  0.00    +0.000 NA
ENDBRANCH  24  25
ENDBRANCH  20  23
ENDBRANCH  16  17
ENDBRANCH   3  16
TORSDOF 6
ENDMDL
MODEL 8
REMARK VINA RESULT:    -5.108      6.933      9.663
REMARK INTER + INTRA:          -8.123
REMARK INTER:                  -7.109
REMARK INTRA:                  -1.014
REMARK UNBOUND:                -1.224
REMARK  Name = 
REMARK  7 active torsions:
REMARK  status: ('A' for Active; 'I' for Inactive)
REMARK    1  A    between atoms: C_1  and  O_2
REMARK    2  A    between atoms: O_2  and  C_3
REMARK    3  A    between atoms: C_10  and  C_11
REMARK    4  A    between atoms: N_13  and  C_14
REMARK    5  A    between atoms: C_14  and  C_15
REMARK    6  A    between atoms: C_18  and  C_19
REMARK    7  A    between atoms: C_20  and  C_21
REMARK                            x       y       z     vdW  Elec       q    Type
REMARK                         _______ _______ _______ _____ _____    ______ ____
ROOT
ATOM      1  C   UNL     1      53.107   9.990   9.831  0.00  0.00    +0.000 C 
ATOM      2  O   UNL     1      53.758   9.470  10.736  0.00  0.00    +0.000 OA
ATOM      3  N   UNL     1      51.898  10.580  10.081  0.00  0.00    +0.000 N 
ATOM      4  H   UNL     1      51.400  11.054   9.339  0.00  0.00    +0.000 HD
ENDROOT
BRANCH   1  12
ATOM      5  C   UNL     1      53.180   7.633   7.323  0.00  0.00    +0.000 A 
ATOM      6  N   UNL     1      53.321   6.924   6.186  0.00  0.00    +0.000 NA
ATOM      7  C   UNL     1      53.893   7.525   5.138  0.00  0.00    +0.000 A 
ATOM      8  N   UNL     1      54.356   8.770   5.084  0.00  0.00    +0.000 NA
ATOM      9  C   UNL     1      54.189   9.443   6.235  0.00  0.00    +0.000 A 
ATOM     10  S   UNL     1      54.726  11.050   6.351  0.00  0.00    +0.000 S 
ATOM     11  C   UNL     1      54.193  11.163   7.961  0.00  0.00    +0.000 A 
ATOM     12  C   UNL     1      53.599  10.002   8.443  0.00  0.00    +0.000 A 
ATOM     13  C   UNL     1      53.605   8.971   7.407  0.00  0.00    +0.000 A 
BRANCH   5  15
ATOM     14  C   UNL     1      53.454   6.263   9.199  0.00  0.00    +0.000 C 
ATOM     15  O   UNL     1      52.559   7.025   8.392  0.00  0.00    +0.000 OA
ENDBRANCH   5  15
ENDBRANCH   1  12
BRANCH   3  16
ATOM     16  C   UNL     1      51.320  10.619  11.403  0.00  0.00    +0.000 C 
BRANCH  16  17
ATOM     17  C   UNL     1      50.234   9.584  11.557  0.00  0.00    +0.000 A 
ATOM     18  C   UNL     1      48.895   9.967  11.715  0.00  0.00    +0.000 A 
ATOM     19  C   UNL     1      47.889   9.006  11.883  0.00  0.00    +0.000 A 
ATOM     20  C   UNL     1      48.198   7.639  11.893  0.00  0.00    +0.000 A 
ATOM     21  C   UNL     1      49.540   7.262  11.757  0.00  0.00    +0.000 A 
ATOM     22  C   UNL     1      50.548   8.220  11.593  0.00  0.00    +0.000 A 
BRANCH  20  23
ATOM     23  C   UNL     1      47.189   6.591  12.122  0.00  0.00    +0.000 C 
ATOM     24  C   UNL     1      46.212   6.238  11.267  0.00  0.00    +0.000 C 
BRANCH  24  25
ATOM     25  C   UNL     1      45.219   5.188  11.559  0.00  0.00    +0.000 A 
ATOM     26  C   UNL     1      44.506   5.207  12.754  0.00  0.00    +0.000 A 
ATOM     27  C   UNL     1      43.583   4.192  13.008  0.00  0.00    +0.000 A 
ATOM     28  C   UNL     1      43.395   3.192  12.063  0.00  0.00    +0.000 A 
ATOM     29  C   UNL     1      44.142   3.249  10.899  0.00  0.00    +0.000 A 
ATOM     30  N   UNL     1      45.043   4.218  10.629  0.00  0.00    +0.000 NA
ENDBRANCH  24  25
ENDBRANCH  20  23
ENDBRANCH  16  17
ENDBRANCH   3  16
TORSDOF 6
ENDMDL
MODEL 9
REMARK VINA RESULT:    -4.996      5.171      7.451
REMARK INTER + INTRA:          -7.972
REMARK INTER:                  -6.850
REMARK INTRA:                  -1.122
REMARK UNBOUND:                -1.224
REMARK  Name = 
REMARK  7 active torsions:
REMARK  status: ('A' for Active; 'I' for Inactive)
REMARK    1  A    between atoms: C_1  and  O_2
REMARK    2  A    between atoms: O_2  and  C_3
REMARK    3  A    between atoms: C_10  and  C_11
REMARK    4  A    between atoms: N_13  and  C_14
REMARK    5  A    between atoms: C_14  and  C_15
REMARK    6  A    between atoms: C_18  and  C_19
REMARK    7  A    between atoms: C_20  and  C_21
REMARK                            x       y       z     vdW  Elec       q    Type
REMARK                         _______ _______ _______ _____ _____    ______ ____
ROOT
ATOM      1  C   UNL     1      48.972   7.927  16.607  0.00  0.00    +0.000 C 
ATOM      2  O   UNL     1      49.844   8.770  16.811  0.00  0.00    +0.000 OA
ATOM      3  N   UNL     1      48.142   8.017  15.522  0.00  0.00    +0.000 N 
ATOM      4  H   UNL     1      47.469   7.287  15.335  0.00  0.00    +0.000 HD
ENDROOT
BRANCH   1  12
ATOM      5  C   UNL     1      47.838   4.708  16.165  0.00  0.00    +0.000 A 
ATOM      6  N   UNL     1      47.456   3.419  16.270  0.00  0.00    +0.000 NA
ATOM      7  C   UNL     1      47.514   2.844  17.475  0.00  0.00    +0.000 A 
ATOM      8  N   UNL     1      47.909   3.407  18.612  0.00  0.00    +0.000 NA
ATOM      9  C   UNL     1      48.287   4.687  18.461  0.00  0.00    +0.000 A 
ATOM     10  S   UNL     1      48.818   5.569  19.812  0.00  0.00    +0.000 S 
ATOM     11  C   UNL     1      49.083   6.954  18.865  0.00  0.00    +0.000 A 
ATOM     12  C   UNL     1      48.784   6.784  17.518  0.00  0.00    +0.000 A 
ATOM     13  C   UNL     1      48.300   5.425  17.281  0.00  0.00    +0.000 A 
BRANCH   5  15
ATOM     14  C   UNL     1      46.696   4.878  14.131  0.00  0.00    +0.000 C 
ATOM     15  O   UNL     1      47.812   5.290  14.916  0.00  0.00    +0.000 OA
ENDBRANCH   5  15
ENDBRANCH   1  12
BRANCH   3  16
ATOM     16  C   UNL     1      48.237   9.099  14.571  0.00  0.00    +0.000 C 
BRANCH  16  17
ATOM     17  C   UNL     1      49.219   8.777  13.472  0.00  0.00    +0.000 A 
ATOM     18  C   UNL     1      50.449   9.443  13.392  0.00  0.00    +0.000 A 
ATOM     19  C   UNL     1      51.351   9.162  12.357  0.00  0.00    +0.000 A 
ATOM     20  C   UNL     1      51.045   8.206  11.380  0.00  0.00    +0.000 A 
ATOM     21  C   UNL     1      49.805   7.559  11.451  0.00  0.00    +0.000 A 
ATOM     22  C   UNL     1      48.900   7.840  12.482  0.00  0.00    +0.000 A 
BRANCH  20  23
ATOM     23  C   UNL     1      51.931   7.913  10.240  0.00  0.00    +0.000 C 
ATOM     24  C   UNL     1      52.483   6.719   9.958  0.00  0.00    +0.000 C 
BRANCH  24  25
ATOM     25  C   UNL     1      53.377   6.489   8.808  0.00  0.00    +0.000 A 
ATOM     26  C   UNL     1      52.952   6.789   7.517  0.00  0.00    +0.000 A 
ATOM     27  C   UNL     1      53.815   6.548   6.448  0.00  0.00    +0.000 A 
ATOM     28  C   UNL     1      55.075   6.019   6.696  0.00  0.00    +0.000 A 
ATOM     29  C   UNL     1      55.421   5.753   8.010  0.00  0.00    +0.000 A 
ATOM     30  N   UNL     1      54.604   5.974   9.063  0.00  0.00    +0.000 NA
ENDBRANCH  24  25
ENDBRANCH  20  23
ENDBRANCH  16  17
ENDBRANCH   3  16
TORSDOF 6
ENDMDL
