MODEL 1
REMARK VINA RESULT:    -8.539      0.000      0.000
REMARK INTER + INTRA:         -13.387
REMARK INTER:                 -12.284
REMARK INTRA:                  -1.103
REMARK UNBOUND:                -1.103
REMARK  Name = 
REMARK  8 active torsions:
REMARK  status: ('A' for Active; 'I' for Inactive)
REMARK    1  A    between atoms: C_2  and  C_21
REMARK    2  A    between atoms: N_3  and  C_4
REMARK    3  A    between atoms: C_4  and  C_5
REMARK    4  A    between atoms: C_8  and  C_9
REMARK    5  A    between atoms: C_9  and  C_10
REMARK    6  A    between atoms: C_10  and  O_11
REMARK    7  A    between atoms: C_10  and  C_12
REMARK    8  A    between atoms: C_12  and  C_13
REMARK                            x       y       z     vdW  Elec       q    Type
REMARK                         _______ _______ _______ _____ _____    ______ ____
ROOT
ATOM      1  C   UNL     1      46.213   7.159  12.473  0.00  0.00    +0.000 A 
ATOM      2  C   UNL     1      46.680   6.733  11.231  0.00  0.00    +0.000 A 
ATOM      3  C   UNL     1      45.949   5.801  10.502  0.00  0.00    +0.000 A 
ATOM      4  C   UNL     1      44.754   5.313  11.029  0.00  0.00    +0.000 A 
ATOM      5  N   UNL     1      44.259   5.736  12.217  0.00  0.00    +0.000 NA
ATOM      6  C   UNL     1      44.990   6.651  12.899  0.00  0.00    +0.000 A 
ENDROOT
BRANCH   1   7
ATOM      7  C   UNL     1      46.991   8.140  13.296  0.00  0.00    +0.000 C 
BRANCH   7  10
ATOM      8  O   UNL     1      49.273   6.521  13.611  0.00  0.00    +0.000 OA
ATOM      9  C   UNL     1      48.614   6.819  14.604  0.00  0.00    +0.000 C 
ATOM     10  N   UNL     1      47.456   7.554  14.525  0.00  0.00    +0.000 N 
ATOM     11  H   UNL     1      47.038   7.907  15.379  0.00  0.00    +0.000 HD
BRANCH   9  12
ATOM     12  C   UNL     1      48.994   6.361  15.945  0.00  0.00    +0.000 A 
ATOM     13  C   UNL     1      49.824   7.152  16.733  0.00  0.00    +0.000 A 
ATOM     14  S   UNL     1      50.161   6.477  18.260  0.00  0.00    +0.000 S 
ATOM     15  C   UNL     1      49.175   5.125  17.943  0.00  0.00    +0.000 A 
ATOM     16  N   UNL     1      48.993   4.158  18.880  0.00  0.00    +0.000 NA
ATOM     17  C   UNL     1      48.185   3.217  18.526  0.00  0.00    +0.000 A 
ATOM     18  N   UNL     1      47.555   3.145  17.309  0.00  0.00    +0.000 N 
ATOM     19  C   UNL     1      47.781   4.049  16.296  0.00  0.00    +0.000 A 
ATOM     20  O   UNL     1      47.336   3.867  15.172  0.00  0.00    +0.000 OA
ATOM     21  C   UNL     1      48.629   5.169  16.673  0.00  0.00    +0.000 A 
ATOM     22  H   UNL     1      46.964   2.358  17.077  0.00  0.00    +0.000 HD
ENDBRANCH   9  12
ENDBRANCH   7  10
ENDBRANCH   1   7
BRANCH   4  23
ATOM     23  C   UNL     1      43.942   4.299  10.254  0.00  0.00    +0.000 C 
BRANCH  23  24
ATOM     24  C   UNL     1      44.514   2.884  10.414  0.00  0.00    +0.000 C 
BRANCH  24  25
ATOM     25  O   UNL     1      43.845   2.232  11.503  0.00  0.00    +0.000 OA
ATOM     26  H   UNL     1      44.329   2.432  12.323  0.00  0.00    +0.000 HD
ENDBRANCH  24  25
BRANCH  24  27
ATOM     27  C   UNL     1      44.344   2.060   9.123  0.00  0.00    +0.000 C 
BRANCH  27  28
ATOM     28  C   UNL     1      45.557   2.152   8.224  0.00  0.00    +0.000 A 
ATOM     29  C   UNL     1      45.888   3.350   7.592  0.00  0.00    +0.000 A 
ATOM     30  C   UNL     1      47.061   3.419   6.848  0.00  0.00    +0.000 A 
ATOM     31  C   UNL     1      47.864   2.291   6.736  0.00  0.00    +0.000 A 
ATOM     32  C   UNL     1      47.450   1.132   7.371  0.00  0.00    +0.000 A 
ATOM     33  N   UNL     1      46.320   1.036   8.107  0.00  0.00    +0.000 NA
ENDBRANCH  27  28
ENDBRANCH  24  27
ENDBRANCH  23  24
ENDBRANCH   4  23
TORSDOF 8
ENDMDL
MODEL 2
REMARK VINA RESULT:    -8.126      2.205      2.680
REMARK INTER + INTRA:         -12.792
REMARK INTER:                 -11.539
REMARK INTRA:                  -1.252
REMARK UNBOUND:                -1.103
REMARK  Name = 
REMARK  8 active torsions:
REMARK  status: ('A' for Active; 'I' for Inactive)
REMARK    1  A    between atoms: C_2  and  C_21
REMARK    2  A    between atoms: N_3  and  C_4
REMARK    3  A    between atoms: C_4  and  C_5
REMARK    4  A    between atoms: C_8  and  C_9
REMARK    5  A    between atoms: C_9  and  C_10
REMARK    6  A    between atoms: C_10  and  O_11
REMARK    7  A    between atoms: C_10  and  C_12
REMARK    8  A    between atoms: C_12  and  C_13
REMARK                            x       y       z     vdW  Elec       q    Type
REMARK                         _______ _______ _______ _____ _____    ______ ____
ROOT
ATOM      1  C   UNL     1      47.309   6.298  13.254  0.00  0.00    +0.000 A 
ATOM      2  C   UNL     1      47.034   6.810  11.987  0.00  0.00    +0.000 A 
ATOM      3  C   UNL     1      46.013   6.254  11.226  0.00  0.00    +0.000 A 
ATOM      4  C   UNL     1      45.275   5.193  11.750  0.00  0.00    +0.000 A 
ATOM      5  N   UNL     1      45.496   4.699  12.992  0.00  0.00    +0.000 NA
ATOM      6  C   UNL     1      46.494   5.268  13.713  0.00  0.00    +0.000 A 
ENDROOT
BRANCH   1   7
ATOM      7  C   UNL     1      48.422   6.856  14.089  0.00  0.00    +0.000 C 
BRANCH   7  10
ATOM      8  O   UNL     1      50.460   6.259  15.937  0.00  0.00    +0.000 OA
ATOM      9  C   UNL     1      49.299   6.327  16.333  0.00  0.00    +0.000 C 
ATOM     10  N   UNL     1      48.244   6.554  15.484  0.00  0.00    +0.000 N 
ATOM     11  H   UNL     1      47.332   6.759  15.877  0.00  0.00    +0.000 HD
BRANCH   9  12
ATOM     12  C   UNL     1      48.955   6.115  17.745  0.00  0.00    +0.000 A 
ATOM     13  C   UNL     1      49.228   4.890  18.343  0.00  0.00    +0.000 A 
ATOM     14  S   UNL     1      48.772   4.815  19.982  0.00  0.00    +0.000 S 
ATOM     15  C   UNL     1      48.235   6.431  19.966  0.00  0.00    +0.000 A 
ATOM     16  N   UNL     1      47.750   7.018  21.091  0.00  0.00    +0.000 NA
ATOM     17  C   UNL     1      47.424   8.258  20.949  0.00  0.00    +0.000 A 
ATOM     18  N   UNL     1      47.521   8.961  19.775  0.00  0.00    +0.000 N 
ATOM     19  C   UNL     1      47.917   8.384  18.589  0.00  0.00    +0.000 A 
ATOM     20  O   UNL     1      47.836   8.990  17.531  0.00  0.00    +0.000 OA
ATOM     21  C   UNL     1      48.364   7.006  18.715  0.00  0.00    +0.000 A 
ATOM     22  H   UNL     1      47.210   9.921  19.719  0.00  0.00    +0.000 HD
ENDBRANCH   9  12
ENDBRANCH   7  10
ENDBRANCH   1   7
BRANCH   4  23
ATOM     23  C   UNL     1      44.159   4.572  10.940  0.00  0.00    +0.000 C 
BRANCH  23  24
ATOM     24  C   UNL     1      44.660   3.371  10.126  0.00  0.00    +0.000 C 
BRANCH  24  25
ATOM     25  O   UNL     1      43.841   2.231  10.428  0.00  0.00    +0.000 OA
ATOM     26  H   UNL     1      43.946   2.021  11.372  0.00  0.00    +0.000 HD
ENDBRANCH  24  25
BRANCH  24  27
ATOM     27  C   UNL     1      44.620   3.661   8.613  0.00  0.00    +0.000 C 
BRANCH  27  28
ATOM     28  C   UNL     1      45.662   2.871   7.854  0.00  0.00    +0.000 A 
ATOM     29  C   UNL     1      46.366   3.447   6.798  0.00  0.00    +0.000 A 
ATOM     30  C   UNL     1      47.380   2.719   6.184  0.00  0.00    +0.000 A 
ATOM     31  C   UNL     1      47.655   1.431   6.626  0.00  0.00    +0.000 A 
ATOM     32  C   UNL     1      46.892   0.920   7.662  0.00  0.00    +0.000 A 
ATOM     33  N   UNL     1      45.905   1.607   8.282  0.00  0.00    +0.000 NA
ENDBRANCH  27  28
ENDBRANCH  24  27
ENDBRANCH  23  24
ENDBRANCH   4  23
TORSDOF 8
ENDMDL
MODEL 3
REMARK VINA RESULT:    -7.616      2.422      3.625
REMARK INTER + INTRA:         -12.058
REMARK INTER:                 -10.935
REMARK INTRA:                  -1.124
REMARK UNBOUND:                -1.103
REMARK  Name = 
REMARK  8 active torsions:
REMARK  status: ('A' for Active; 'I' for Inactive)
REMARK    1  A    between atoms: C_2  and  C_21
REMARK    2  A    between atoms: N_3  and  C_4
REMARK    3  A    between atoms: C_4  and  C_5
REMARK    4  A    between atoms: C_8  and  C_9
REMARK    5  A    between atoms: C_9  and  C_10
REMARK    6  A    between atoms: C_10  and  O_11
REMARK    7  A    between atoms: C_10  and  C_12
REMARK    8  A    between atoms: C_12  and  C_13
REMARK                            x       y       z     vdW  Elec       q    Type
REMARK                         _______ _______ _______ _____ _____    ______ ____
ROOT
ATOM      1  C   UNL     1      46.925   4.453  14.279  0.00  0.00    +0.000 A 
ATOM      2  C   UNL     1      46.163   3.565  13.522  0.00  0.00    +0.000 A 
ATOM      3  C   UNL     1      45.594   3.992  12.327  0.00  0.00    +0.000 A 
ATOM      4  C   UNL     1      45.804   5.304  11.905  0.00  0.00    +0.000 A 
ATOM      5  N   UNL     1      46.570   6.177  12.603  0.00  0.00    +0.000 NA
ATOM      6  C   UNL     1      47.117   5.729  13.760  0.00  0.00    +0.000 A 
ENDROOT
BRANCH   1   7
ATOM      7  C   UNL     1      47.528   4.033  15.586  0.00  0.00    +0.000 C 
BRANCH   7  10
ATOM      8  O   UNL     1      49.739   5.412  16.653  0.00  0.00    +0.000 OA
ATOM      9  C   UNL     1      48.607   5.754  16.987  0.00  0.00    +0.000 C 
ATOM     10  N   UNL     1      47.482   5.093  16.558  0.00  0.00    +0.000 N 
ATOM     11  H   UNL     1      46.573   5.507  16.730  0.00  0.00    +0.000 HD
BRANCH   9  12
ATOM     12  C   UNL     1      48.384   6.867  17.917  0.00  0.00    +0.000 A 
ATOM     13  C   UNL     1      48.301   6.616  19.283  0.00  0.00    +0.000 A 
ATOM     14  S   UNL     1      48.046   8.016  20.219  0.00  0.00    +0.000 S 
ATOM     15  C   UNL     1      48.082   9.014  18.839  0.00  0.00    +0.000 A 
ATOM     16  N   UNL     1      47.960  10.363  18.949  0.00  0.00    +0.000 NA
ATOM     17  C   UNL     1      48.053  11.000  17.831  0.00  0.00    +0.000 A 
ATOM     18  N   UNL     1      48.237  10.408  16.608  0.00  0.00    +0.000 N 
ATOM     19  C   UNL     1      48.272   9.042  16.436  0.00  0.00    +0.000 A 
ATOM     20  O   UNL     1      48.273   8.543  15.321  0.00  0.00    +0.000 OA
ATOM     21  C   UNL     1      48.246   8.283  17.677  0.00  0.00    +0.000 A 
ATOM     22  H   UNL     1      48.261  10.961  15.763  0.00  0.00    +0.000 HD
ENDBRANCH   9  12
ENDBRANCH   7  10
ENDBRANCH   1   7
BRANCH   4  23
ATOM     23  C   UNL     1      45.196   5.790  10.608  0.00  0.00    +0.000 C 
BRANCH  23  24
ATOM     24  C   UNL     1      44.949   4.630   9.635  0.00  0.00    +0.000 C 
BRANCH  24  25
ATOM     25  O   UNL     1      43.570   4.641   9.238  0.00  0.00    +0.000 OA
ATOM     26  H   UNL     1      43.531   4.604   8.266  0.00  0.00    +0.000 HD
ENDBRANCH  24  25
BRANCH  24  27
ATOM     27  C   UNL     1      45.855   4.736   8.393  0.00  0.00    +0.000 C 
BRANCH  27  28
ATOM     28  C   UNL     1      46.247   3.377   7.857  0.00  0.00    +0.000 A 
ATOM     29  C   UNL     1      47.082   3.262   6.746  0.00  0.00    +0.000 A 
ATOM     30  C   UNL     1      47.494   1.996   6.340  0.00  0.00    +0.000 A 
ATOM     31  C   UNL     1      47.050   0.880   7.036  0.00  0.00    +0.000 A 
ATOM     32  C   UNL     1      46.200   1.078   8.111  0.00  0.00    +0.000 A 
ATOM     33  N   UNL     1      45.788   2.295   8.534  0.00  0.00    +0.000 NA
ENDBRANCH  27  28
ENDBRANCH  24  27
ENDBRANCH  23  24
ENDBRANCH   4  23
TORSDOF 8
ENDMDL
MODEL 4
REMARK VINA RESULT:    -7.386      2.666      3.408
REMARK INTER + INTRA:         -11.727
REMARK INTER:                 -10.535
REMARK INTRA:                  -1.192
REMARK UNBOUND:                -1.103
REMARK  Name = 
REMARK  8 active torsions:
REMARK  status: ('A' for Active; 'I' for Inactive)
REMARK    1  A    between atoms: C_2  and  C_21
REMARK    2  A    between atoms: N_3  and  C_4
REMARK    3  A    between atoms: C_4  and  C_5
REMARK    4  A    between atoms: C_8  and  C_9
REMARK    5  A    between atoms: C_9  and  C_10
REMARK    6  A    between atoms: C_10  and  O_11
REMARK    7  A    between atoms: C_10  and  C_12
REMARK    8  A    between atoms: C_12  and  C_13
REMARK                            x       y       z     vdW  Elec       q    Type
REMARK                         _______ _______ _______ _____ _____    ______ ____
ROOT
ATOM      1  C   UNL     1      46.949   4.661  14.373  0.00  0.00    +0.000 A 
ATOM      2  C   UNL     1      46.264   3.670  13.673  0.00  0.00    +0.000 A 
ATOM      3  C   UNL     1      45.796   3.931  12.390  0.00  0.00    +0.000 A 
ATOM      4  C   UNL     1      46.028   5.183  11.824  0.00  0.00    +0.000 A 
ATOM      5  N   UNL     1      46.722   6.153  12.467  0.00  0.00    +0.000 NA
ATOM      6  C   UNL     1      47.172   5.865  13.713  0.00  0.00    +0.000 A 
ENDROOT
BRANCH   1   7
ATOM      7  C   UNL     1      47.442   4.422  15.768  0.00  0.00    +0.000 C 
BRANCH   7  10
ATOM      8  O   UNL     1      50.037   4.956  16.722  0.00  0.00    +0.000 OA
ATOM      9  C   UNL     1      49.188   5.841  16.780  0.00  0.00    +0.000 C 
ATOM     10  N   UNL     1      47.886   5.640  16.392  0.00  0.00    +0.000 N 
ATOM     11  H   UNL     1      47.268   6.440  16.309  0.00  0.00    +0.000 HD
BRANCH   9  12
ATOM     12  C   UNL     1      49.499   7.169  17.324  0.00  0.00    +0.000 A 
ATOM     13  C   UNL     1      50.559   7.898  16.795  0.00  0.00    +0.000 A 
ATOM     14  S   UNL     1      50.777   9.417  17.534  0.00  0.00    +0.000 S 
ATOM     15  C   UNL     1      49.437   9.176  18.556  0.00  0.00    +0.000 A 
ATOM     16  N   UNL     1      49.043  10.138  19.432  0.00  0.00    +0.000 NA
ATOM     17  C   UNL     1      47.986   9.843  20.109  0.00  0.00    +0.000 A 
ATOM     18  N   UNL     1      47.296   8.662  20.005  0.00  0.00    +0.000 N 
ATOM     19  C   UNL     1      47.710   7.623  19.203  0.00  0.00    +0.000 A 
ATOM     20  O   UNL     1      47.170   6.528  19.255  0.00  0.00    +0.000 OA
ATOM     21  C   UNL     1      48.856   7.936  18.364  0.00  0.00    +0.000 A 
ATOM     22  H   UNL     1      46.497   8.476  20.595  0.00  0.00    +0.000 HD
ENDBRANCH   9  12
ENDBRANCH   7  10
ENDBRANCH   1   7
BRANCH   4  23
ATOM     23  C   UNL     1      45.527   5.490  10.430  0.00  0.00    +0.000 C 
BRANCH  23  24
ATOM     24  C   UNL     1      44.314   4.623  10.067  0.00  0.00    +0.000 C 
BRANCH  24  25
ATOM     25  O   UNL     1      43.117   5.313  10.455  0.00  0.00    +0.000 OA
ATOM     26  H   UNL     1      43.361   6.029  11.067  0.00  0.00    +0.000 HD
ENDBRANCH  24  25
BRANCH  24  27
ATOM     27  C   UNL     1      44.276   4.313   8.557  0.00  0.00    +0.000 C 
BRANCH  27  28
ATOM     28  C   UNL     1      45.394   3.383   8.139  0.00  0.00    +0.000 A 
ATOM     29  C   UNL     1      45.424   2.061   8.579  0.00  0.00    +0.000 A 
ATOM     30  C   UNL     1      46.417   1.212   8.099  0.00  0.00    +0.000 A 
ATOM     31  C   UNL     1      47.363   1.706   7.210  0.00  0.00    +0.000 A 
ATOM     32  C   UNL     1      47.280   3.039   6.844  0.00  0.00    +0.000 A 
ATOM     33  N   UNL     1      46.323   3.885   7.288  0.00  0.00    +0.000 NA
ENDBRANCH  27  28
ENDBRANCH  24  27
ENDBRANCH  23  24
ENDBRANCH   4  23
TORSDOF 8
ENDMDL
MODEL 5
REMARK VINA RESULT:    -7.366      2.885      3.805
REMARK INTER + INTRA:         -11.699
REMARK INTER:                 -10.307
REMARK INTRA:                  -1.392
REMARK UNBOUND:                -1.103
REMARK  Name = 
REMARK  8 active torsions:
REMARK  status: ('A' for Active; 'I' for Inactive)
REMARK    1  A    between atoms: C_2  and  C_21
REMARK    2  A    between atoms: N_3  and  C_4
REMARK    3  A    between atoms: C_4  and  C_5
REMARK    4  A    between atoms: C_8  and  C_9
REMARK    5  A    between atoms: C_9  and  C_10
REMARK    6  A    between atoms: C_10  and  O_11
REMARK    7  A    between atoms: C_10  and  C_12
REMARK    8  A    between atoms: C_12  and  C_13
REMARK                            x       y       z     vdW  Elec       q    Type
REMARK                         _______ _______ _______ _____ _____    ______ ____
ROOT
ATOM      1  C   UNL     1      48.309   6.077  15.273  0.00  0.00    +0.000 A 
ATOM      2  C   UNL     1      47.542   4.958  15.594  0.00  0.00    +0.000 A 
ATOM      3  C   UNL     1      46.766   4.351  14.613  0.00  0.00    +0.000 A 
ATOM      4  C   UNL     1      46.774   4.873  13.320  0.00  0.00    +0.000 A 
ATOM      5  N   UNL     1      47.537   5.937  12.972  0.00  0.00    +0.000 NA
ATOM      6  C   UNL     1      48.289   6.502  13.949  0.00  0.00    +0.000 A 
ENDROOT
BRANCH   1   7
ATOM      7  C   UNL     1      49.135   6.772  16.313  0.00  0.00    +0.000 C 
BRANCH   7  10
ATOM      8  O   UNL     1      49.511   5.857  18.949  0.00  0.00    +0.000 OA
ATOM      9  C   UNL     1      50.292   5.491  18.076  0.00  0.00    +0.000 C 
ATOM     10  N   UNL     1      50.212   5.940  16.780  0.00  0.00    +0.000 N 
ATOM     11  H   UNL     1      50.775   5.490  16.068  0.00  0.00    +0.000 HD
BRANCH   9  12
ATOM     12  C   UNL     1      51.407   4.582  18.373  0.00  0.00    +0.000 A 
ATOM     13  C   UNL     1      52.479   5.035  19.135  0.00  0.00    +0.000 A 
ATOM     14  S   UNL     1      53.680   3.855  19.390  0.00  0.00    +0.000 S 
ATOM     15  C   UNL     1      52.791   2.682  18.532  0.00  0.00    +0.000 A 
ATOM     16  N   UNL     1      53.250   1.410  18.407  0.00  0.00    +0.000 NA
ATOM     17  C   UNL     1      52.456   0.615  17.774  0.00  0.00    +0.000 A 
ATOM     18  N   UNL     1      51.248   0.983  17.236  0.00  0.00    +0.000 N 
ATOM     19  C   UNL     1      50.786   2.279  17.256  0.00  0.00    +0.000 A 
ATOM     20  O   UNL     1      49.790   2.607  16.627  0.00  0.00    +0.000 OA
ATOM     21  C   UNL     1      51.613   3.197  18.022  0.00  0.00    +0.000 A 
ATOM     22  H   UNL     1      50.690   0.321  16.716  0.00  0.00    +0.000 HD
ENDBRANCH   9  12
ENDBRANCH   7  10
ENDBRANCH   1   7
BRANCH   4  23
ATOM     23  C   UNL     1      45.937   4.229  12.238  0.00  0.00    +0.000 C 
BRANCH  23  24
ATOM     24  C   UNL     1      44.807   5.159  11.776  0.00  0.00    +0.000 C 
BRANCH  24  25
ATOM     25  O   UNL     1      45.381   6.377  11.279  0.00  0.00    +0.000 OA
ATOM     26  H   UNL     1      44.693   7.065  11.287  0.00  0.00    +0.000 HD
ENDBRANCH  24  25
BRANCH  24  27
ATOM     27  C   UNL     1      43.948   4.499  10.680  0.00  0.00    +0.000 C 
BRANCH  27  28
ATOM     28  C   UNL     1      44.793   3.847   9.609  0.00  0.00    +0.000 A 
ATOM     29  C   UNL     1      44.848   2.459   9.488  0.00  0.00    +0.000 A 
ATOM     30  C   UNL     1      45.563   1.901   8.434  0.00  0.00    +0.000 A 
ATOM     31  C   UNL     1      46.220   2.736   7.539  0.00  0.00    +0.000 A 
ATOM     32  C   UNL     1      46.140   4.103   7.745  0.00  0.00    +0.000 A 
ATOM     33  N   UNL     1      45.447   4.675   8.755  0.00  0.00    +0.000 NA
ENDBRANCH  27  28
ENDBRANCH  24  27
ENDBRANCH  23  24
ENDBRANCH   4  23
TORSDOF 8
ENDMDL
MODEL 6
REMARK VINA RESULT:    -7.110      3.173      7.916
REMARK INTER + INTRA:         -11.331
REMARK INTER:                  -9.594
REMARK INTRA:                  -1.737
REMARK UNBOUND:                -1.103
REMARK  Name = 
REMARK  8 active torsions:
REMARK  status: ('A' for Active; 'I' for Inactive)
REMARK    1  A    between atoms: C_2  and  C_21
REMARK    2  A    between atoms: N_3  and  C_4
REMARK    3  A    between atoms: C_4  and  C_5
REMARK    4  A    between atoms: C_8  and  C_9
REMARK    5  A    between atoms: C_9  and  C_10
REMARK    6  A    between atoms: C_10  and  O_11
REMARK    7  A    between atoms: C_10  and  C_12
REMARK    8  A    between atoms: C_12  and  C_13
REMARK                            x       y       z     vdW  Elec       q    Type
REMARK                         _______ _______ _______ _____ _____    ______ ____
ROOT
ATOM      1  C   UNL     1      48.785   8.015  13.348  0.00  0.00    +0.000 A 
ATOM      2  C   UNL     1      49.227   9.080  14.133  0.00  0.00    +0.000 A 
ATOM      3  C   UNL     1      49.707   8.837  15.415  0.00  0.00    +0.000 A 
ATOM      4  C   UNL     1      49.745   7.528  15.891  0.00  0.00    +0.000 A 
ATOM      5  N   UNL     1      49.356   6.471  15.137  0.00  0.00    +0.000 NA
ATOM      6  C   UNL     1      48.900   6.738  13.889  0.00  0.00    +0.000 A 
ENDROOT
BRANCH   1   7
ATOM      7  C   UNL     1      48.235   8.245  11.973  0.00  0.00    +0.000 C 
BRANCH   7  10
ATOM      8  O   UNL     1      45.437   7.948  11.866  0.00  0.00    +0.000 OA
ATOM      9  C   UNL     1      46.148   7.052  11.417  0.00  0.00    +0.000 C 
ATOM     10  N   UNL     1      47.519   7.095  11.488  0.00  0.00    +0.000 N 
ATOM     11  H   UNL     1      48.060   6.415  10.966  0.00  0.00    +0.000 HD
BRANCH   9  12
ATOM     12  C   UNL     1      45.573   5.840  10.820  0.00  0.00    +0.000 A 
ATOM     13  C   UNL     1      45.821   5.550   9.482  0.00  0.00    +0.000 A 
ATOM     14  S   UNL     1      45.086   4.107   8.952  0.00  0.00    +0.000 S 
ATOM     15  C   UNL     1      44.448   3.795  10.500  0.00  0.00    +0.000 A 
ATOM     16  N   UNL     1      43.731   2.668  10.746  0.00  0.00    +0.000 NA
ATOM     17  C   UNL     1      43.350   2.535  11.971  0.00  0.00    +0.000 A 
ATOM     18  N   UNL     1      43.605   3.438  12.971  0.00  0.00    +0.000 N 
ATOM     19  C   UNL     1      44.245   4.637  12.750  0.00  0.00    +0.000 A 
ATOM     20  O   UNL     1      44.311   5.491  13.622  0.00  0.00    +0.000 OA
ATOM     21  C   UNL     1      44.758   4.799  11.399  0.00  0.00    +0.000 A 
ATOM     22  H   UNL     1      43.243   3.295  13.904  0.00  0.00    +0.000 HD
ENDBRANCH   9  12
ENDBRANCH   7  10
ENDBRANCH   1   7
BRANCH   4  23
ATOM     23  C   UNL     1      50.263   7.240  17.282  0.00  0.00    +0.000 C 
BRANCH  23  24
ATOM     24  C   UNL     1      49.114   7.084  18.287  0.00  0.00    +0.000 C 
BRANCH  24  25
ATOM     25  O   UNL     1      47.867   7.149  17.581  0.00  0.00    +0.000 OA
ATOM     26  H   UNL     1      47.567   8.075  17.574  0.00  0.00    +0.000 HD
ENDBRANCH  24  25
BRANCH  24  27
ATOM     27  C   UNL     1      49.215   5.751  19.053  0.00  0.00    +0.000 C 
BRANCH  27  28
ATOM     28  C   UNL     1      49.056   4.555  18.140  0.00  0.00    +0.000 A 
ATOM     29  C   UNL     1      50.125   3.694  17.898  0.00  0.00    +0.000 A 
ATOM     30  C   UNL     1      49.914   2.556  17.126  0.00  0.00    +0.000 A 
ATOM     31  C   UNL     1      48.651   2.315  16.601  0.00  0.00    +0.000 A 
ATOM     32  C   UNL     1      47.649   3.234  16.864  0.00  0.00    +0.000 A 
ATOM     33  N   UNL     1      47.822   4.344  17.616  0.00  0.00    +0.000 NA
ENDBRANCH  27  28
ENDBRANCH  24  27
ENDBRANCH  23  24
ENDBRANCH   4  23
TORSDOF 8
ENDMDL
MODEL 7
REMARK VINA RESULT:    -7.109      4.818      9.556
REMARK INTER + INTRA:         -11.330
REMARK INTER:                 -10.647
REMARK INTRA:                  -0.683
REMARK UNBOUND:                -1.103
REMARK  Name = 
REMARK  8 active torsions:
REMARK  status: ('A' for Active; 'I' for Inactive)
REMARK    1  A    between atoms: C_2  and  C_21
REMARK    2  A    between atoms: N_3  and  C_4
REMARK    3  A    between atoms: C_4  and  C_5
REMARK    4  A    between atoms: C_8  and  C_9
REMARK    5  A    between atoms: C_9  and  C_10
REMARK    6  A    between atoms: C_10  and  O_11
REMARK    7  A    between atoms: C_10  and  C_12
REMARK    8  A    between atoms: C_12  and  C_13
REMARK                            x       y       z     vdW  Elec       q    Type
REMARK                         _______ _______ _______ _____ _____    ______ ____
ROOT
ATOM      1  C   UNL     1      48.584   3.175  17.126  0.00  0.00    +0.000 A 
ATOM      2  C   UNL     1      49.366   4.042  17.887  0.00  0.00    +0.000 A 
ATOM      3  C   UNL     1      50.723   3.784  18.048  0.00  0.00    +0.000 A 
ATOM      4  C   UNL     1      51.278   2.660  17.437  0.00  0.00    +0.000 A 
ATOM      5  N   UNL     1      50.548   1.820  16.664  0.00  0.00    +0.000 NA
ATOM      6  C   UNL     1      49.230   2.104  16.519  0.00  0.00    +0.000 A 
ENDROOT
BRANCH   1   7
ATOM      7  C   UNL     1      47.113   3.409  16.957  0.00  0.00    +0.000 C 
BRANCH   7  10
ATOM      8  O   UNL     1      47.207   3.046  14.166  0.00  0.00    +0.000 OA
ATOM      9  C   UNL     1      46.858   4.136  14.613  0.00  0.00    +0.000 C 
ATOM     10  N   UNL     1      46.845   4.410  15.958  0.00  0.00    +0.000 N 
ATOM     11  H   UNL     1      46.401   5.262  16.283  0.00  0.00    +0.000 HD
BRANCH   9  12
ATOM     12  C   UNL     1      46.481   5.245  13.727  0.00  0.00    +0.000 A 
ATOM     13  C   UNL     1      47.381   6.281  13.503  0.00  0.00    +0.000 A 
ATOM     14  S   UNL     1      46.789   7.481  12.448  0.00  0.00    +0.000 S 
ATOM     15  C   UNL     1      45.327   6.637  12.217  0.00  0.00    +0.000 A 
ATOM     16  N   UNL     1      44.371   7.111  11.375  0.00  0.00    +0.000 NA
ATOM     17  C   UNL     1      43.338   6.349  11.258  0.00  0.00    +0.000 A 
ATOM     18  N   UNL     1      43.163   5.161  11.923  0.00  0.00    +0.000 N 
ATOM     19  C   UNL     1      44.059   4.688  12.854  0.00  0.00    +0.000 A 
ATOM     20  O   UNL     1      43.799   3.715  13.547  0.00  0.00    +0.000 OA
ATOM     21  C   UNL     1      45.276   5.476  12.967  0.00  0.00    +0.000 A 
ATOM     22  H   UNL     1      42.310   4.629  11.818  0.00  0.00    +0.000 HD
ENDBRANCH   9  12
ENDBRANCH   7  10
ENDBRANCH   1   7
BRANCH   4  23
ATOM     23  C   UNL     1      52.751   2.359  17.599  0.00  0.00    +0.000 C 
BRANCH  23  24
ATOM     24  C   UNL     1      52.974   0.995  18.265  0.00  0.00    +0.000 C 
BRANCH  24  25
ATOM     25  O   UNL     1      51.749   0.249  18.221  0.00  0.00    +0.000 OA
ATOM     26  H   UNL     1      51.008   0.880  18.187  0.00  0.00    +0.000 HD
ENDBRANCH  24  25
BRANCH  24  27
ATOM     27  C   UNL     1      54.095   0.203  17.563  0.00  0.00    +0.000 C 
BRANCH  27  28
ATOM     28  C   UNL     1      54.307  -1.159  18.186  0.00  0.00    +0.000 A 
ATOM     29  C   UNL     1      54.968  -2.168  17.489  0.00  0.00    +0.000 A 
ATOM     30  C   UNL     1      55.224  -3.376  18.129  0.00  0.00    +0.000 A 
ATOM     31  C   UNL     1      54.799  -3.555  19.440  0.00  0.00    +0.000 A 
ATOM     32  C   UNL     1      54.123  -2.513  20.053  0.00  0.00    +0.000 A 
ATOM     33  N   UNL     1      53.867  -1.326  19.459  0.00  0.00    +0.000 NA
ENDBRANCH  27  28
ENDBRANCH  24  27
ENDBRANCH  23  24
ENDBRANCH   4  23
TORSDOF 8
ENDMDL
MODEL 8
REMARK VINA RESULT:    -7.103      3.337      5.262
REMARK INTER + INTRA:         -11.321
REMARK INTER:                 -10.404
REMARK INTRA:                  -0.917
REMARK UNBOUND:                -1.103
REMARK  Name = 
REMARK  8 active torsions:
REMARK  status: ('A' for Active; 'I' for Inactive)
REMARK    1  A    between atoms: C_2  and  C_21
REMARK    2  A    between atoms: N_3  and  C_4
REMARK    3  A    between atoms: C_4  and  C_5
REMARK    4  A    between atoms: C_8  and  C_9
REMARK    5  A    between atoms: C_9  and  C_10
REMARK    6  A    between atoms: C_10  and  O_11
REMARK    7  A    between atoms: C_10  and  C_12
REMARK    8  A    between atoms: C_12  and  C_13
REMARK                            x       y       z     vdW  Elec       q    Type
REMARK                         _______ _______ _______ _____ _____    ______ ____
ROOT
ATOM      1  C   UNL     1      47.975   4.226  16.662  0.00  0.00    +0.000 A 
ATOM      2  C   UNL     1      47.121   3.702  15.694  0.00  0.00    +0.000 A 
ATOM      3  C   UNL     1      46.899   4.407  14.516  0.00  0.00    +0.000 A 
ATOM      4  C   UNL     1      47.543   5.628  14.324  0.00  0.00    +0.000 A 
ATOM      5  N   UNL     1      48.405   6.145  15.232  0.00  0.00    +0.000 NA
ATOM      6  C   UNL     1      48.607   5.430  16.366  0.00  0.00    +0.000 A 
ENDROOT
BRANCH   1   7
ATOM      7  C   UNL     1      48.214   3.506  17.955  0.00  0.00    +0.000 C 
BRANCH   7  10
ATOM      8  O   UNL     1      49.693   1.700  16.380  0.00  0.00    +0.000 OA
ATOM      9  C   UNL     1      50.265   2.314  17.277  0.00  0.00    +0.000 C 
ATOM     10  N   UNL     1      49.602   3.165  18.126  0.00  0.00    +0.000 N 
ATOM     11  H   UNL     1      50.140   3.765  18.740  0.00  0.00    +0.000 HD
BRANCH   9  12
ATOM     12  C   UNL     1      51.699   2.135  17.537  0.00  0.00    +0.000 A 
ATOM     13  C   UNL     1      52.229   0.852  17.615  0.00  0.00    +0.000 A 
ATOM     14  S   UNL     1      53.905   0.824  17.916  0.00  0.00    +0.000 S 
ATOM     15  C   UNL     1      53.993   2.525  17.907  0.00  0.00    +0.000 A 
ATOM     16  N   UNL     1      55.180   3.164  18.071  0.00  0.00    +0.000 NA
ATOM     17  C   UNL     1      55.109   4.450  17.996  0.00  0.00    +0.000 A 
ATOM     18  N   UNL     1      53.952   5.157  17.790  0.00  0.00    +0.000 N 
ATOM     19  C   UNL     1      52.715   4.559  17.712  0.00  0.00    +0.000 A 
ATOM     20  O   UNL     1      51.689   5.224  17.694  0.00  0.00    +0.000 OA
ATOM     21  C   UNL     1      52.752   3.106  17.718  0.00  0.00    +0.000 A 
ATOM     22  H   UNL     1      53.957   6.168  17.781  0.00  0.00    +0.000 HD
ENDBRANCH   9  12
ENDBRANCH   7  10
ENDBRANCH   1   7
BRANCH   4  23
ATOM     23  C   UNL     1      47.316   6.413  13.051  0.00  0.00    +0.000 C 
BRANCH  23  24
ATOM     24  C   UNL     1      45.902   6.189  12.499  0.00  0.00    +0.000 C 
BRANCH  24  25
ATOM     25  O   UNL     1      45.008   7.126  13.115  0.00  0.00    +0.000 OA
ATOM     26  H   UNL     1      45.411   7.434  13.946  0.00  0.00    +0.000 HD
ENDBRANCH  24  25
BRANCH  24  27
ATOM     27  C   UNL     1      45.864   6.355  10.967  0.00  0.00    +0.000 C 
BRANCH  27  28
ATOM     28  C   UNL     1      45.358   5.110  10.272  0.00  0.00    +0.000 A 
ATOM     29  C   UNL     1      45.676   4.858   8.938  0.00  0.00    +0.000 A 
ATOM     30  C   UNL     1      45.270   3.659   8.362  0.00  0.00    +0.000 A 
ATOM     31  C   UNL     1      44.542   2.751   9.121  0.00  0.00    +0.000 A 
ATOM     32  C   UNL     1      44.243   3.089  10.430  0.00  0.00    +0.000 A 
ATOM     33  N   UNL     1      44.631   4.243  11.020  0.00  0.00    +0.000 NA
ENDBRANCH  27  28
ENDBRANCH  24  27
ENDBRANCH  23  24
ENDBRANCH   4  23
TORSDOF 8
ENDMDL
MODEL 9
REMARK VINA RESULT:    -7.086      2.860      8.311
REMARK INTER + INTRA:         -11.296
REMARK INTER:                  -9.551
REMARK INTRA:                  -1.746
REMARK UNBOUND:                -1.103
REMARK  Name = 
REMARK  8 active torsions:
REMARK  status: ('A' for Active; 'I' for Inactive)
REMARK    1  A    between atoms: C_2  and  C_21
REMARK    2  A    between atoms: N_3  and  C_4
REMARK    3  A    between atoms: C_4  and  C_5
REMARK    4  A    between atoms: C_8  and  C_9
REMARK    5  A    between atoms: C_9  and  C_10
REMARK    6  A    between atoms: C_10  and  O_11
REMARK    7  A    between atoms: C_10  and  C_12
REMARK    8  A    between atoms: C_12  and  C_13
REMARK                            x       y       z     vdW  Elec       q    Type
REMARK                         _______ _______ _______ _____ _____    ______ ____
ROOT
ATOM      1  C   UNL     1      48.203   7.784  13.720  0.00  0.00    +0.000 A 
ATOM      2  C   UNL     1      48.363   8.967  14.440  0.00  0.00    +0.000 A 
ATOM      3  C   UNL     1      48.898   8.925  15.723  0.00  0.00    +0.000 A 
ATOM      4  C   UNL     1      49.273   7.696  16.263  0.00  0.00    +0.000 A 
ATOM      5  N   UNL     1      49.162   6.536  15.572  0.00  0.00    +0.000 NA
ATOM      6  C   UNL     1      48.644   6.610  14.322  0.00  0.00    +0.000 A 
ENDROOT
BRANCH   1   7
ATOM      7  C   UNL     1      47.602   7.791  12.347  0.00  0.00    +0.000 C 
BRANCH   7  10
ATOM      8  O   UNL     1      44.861   7.315  12.782  0.00  0.00    +0.000 OA
ATOM      9  C   UNL     1      45.542   6.436  12.259  0.00  0.00    +0.000 C 
ATOM     10  N   UNL     1      46.896   6.569  12.069  0.00  0.00    +0.000 N 
ATOM     11  H   UNL     1      47.381   5.889  11.494  0.00  0.00    +0.000 HD
BRANCH   9  12
ATOM     12  C   UNL     1      44.958   5.153  11.849  0.00  0.00    +0.000 A 
ATOM     13  C   UNL     1      44.240   4.398  12.770  0.00  0.00    +0.000 A 
ATOM     14  S   UNL     1      43.626   2.944  12.129  0.00  0.00    +0.000 S 
ATOM     15  C   UNL     1      44.259   3.291  10.586  0.00  0.00    +0.000 A 
ATOM     16  N   UNL     1      44.051   2.448   9.540  0.00  0.00    +0.000 NA
ATOM     17  C   UNL     1      44.544   2.857   8.421  0.00  0.00    +0.000 A 
ATOM     18  N   UNL     1      45.244   4.024   8.255  0.00  0.00    +0.000 N 
ATOM     19  C   UNL     1      45.560   4.861   9.301  0.00  0.00    +0.000 A 
ATOM     20  O   UNL     1      46.322   5.805   9.151  0.00  0.00    +0.000 OA
ATOM     21  C   UNL     1      44.963   4.481  10.571  0.00  0.00    +0.000 A 
ATOM     22  H   UNL     1      45.640   4.268   7.357  0.00  0.00    +0.000 HD
ENDBRANCH   9  12
ENDBRANCH   7  10
ENDBRANCH   1   7
BRANCH   4  23
ATOM     23  C   UNL     1      49.858   7.626  17.656  0.00  0.00    +0.000 C 
BRANCH  23  24
ATOM     24  C   UNL     1      48.788   7.271  18.696  0.00  0.00    +0.000 C 
BRANCH  24  25
ATOM     25  O   UNL     1      47.516   7.169  18.039  0.00  0.00    +0.000 OA
ATOM     26  H   UNL     1      47.653   7.302  17.085  0.00  0.00    +0.000 HD
ENDBRANCH  24  25
BRANCH  24  27
ATOM     27  C   UNL     1      49.117   5.947  19.412  0.00  0.00    +0.000 C 
BRANCH  27  28
ATOM     28  C   UNL     1      49.002   4.755  18.487  0.00  0.00    +0.000 A 
ATOM     29  C   UNL     1      50.136   4.046  18.092  0.00  0.00    +0.000 A 
ATOM     30  C   UNL     1      49.980   2.902  17.315  0.00  0.00    +0.000 A 
ATOM     31  C   UNL     1      48.704   2.505  16.936  0.00  0.00    +0.000 A 
ATOM     32  C   UNL     1      47.632   3.281  17.346  0.00  0.00    +0.000 A 
ATOM     33  N   UNL     1      47.751   4.392  18.107  0.00  0.00    +0.000 NA
ENDBRANCH  27  28
ENDBRANCH  24  27
ENDBRANCH  23  24
ENDBRANCH   4  23
TORSDOF 8
ENDMDL
