MODEL 1
REMARK VINA RESULT:    -8.733      0.000      0.000
REMARK INTER + INTRA:         -11.545
REMARK INTER:                 -10.775
REMARK INTRA:                  -0.770
REMARK UNBOUND:                -0.770
REMARK  Name = 
REMARK  4 active torsions:
REMARK  status: ('A' for Active; 'I' for Inactive)
REMARK    1  A    between atoms: C_2  and  C_4
REMARK    2  A    between atoms: N_8  and  C_9
REMARK    3  A    between atoms: C_9  and  C_10
REMARK    4  A    between atoms: C_14  and  C_15
REMARK                            x       y       z     vdW  Elec       q    Type
REMARK                         _______ _______ _______ _____ _____    ______ ____
ROOT
ATOM      1  C   UNL     1      43.588   3.778  11.176  0.00  0.00    +0.000 C 
ENDROOT
BRANCH   1   6
ATOM      2  C   UNL     1      46.625   2.506   7.228  0.00  0.00    +0.000 A 
ATOM      3  C   UNL     1      46.087   3.731   7.602  0.00  0.00    +0.000 A 
ATOM      4  C   UNL     1      45.241   3.787   8.704  0.00  0.00    +0.000 A 
ATOM      5  C   UNL     1      44.946   2.630   9.415  0.00  0.00    +0.000 A 
ATOM      6  N   UNL     1      44.147   2.616  10.525  0.00  0.00    +0.000 N 
ATOM      7  N   UNL     1      45.431   1.429   9.037  0.00  0.00    +0.000 NA
ATOM      8  C   UNL     1      46.251   1.385   7.952  0.00  0.00    +0.000 A 
ATOM      9  H   UNL     1      43.982   1.698  10.915  0.00  0.00    +0.000 HD
BRANCH   2  11
ATOM     10  N   UNL     1      47.451   3.303   5.097  0.00  0.00    +0.000 N 
ATOM     11  C   UNL     1      47.562   2.376   6.096  0.00  0.00    +0.000 C 
ATOM     12  O   UNL     1      48.418   1.501   6.069  0.00  0.00    +0.000 OA
ATOM     13  H   UNL     1      48.156   3.268   4.369  0.00  0.00    +0.000 HD
ATOM     14  H   UNL     1      46.933   4.163   5.207  0.00  0.00    +0.000 HD
ENDBRANCH   2  11
ENDBRANCH   1   6
BRANCH   1  15
ATOM     15  C   UNL     1      44.610   4.609  11.923  0.00  0.00    +0.000 A 
ATOM     16  C   UNL     1      45.478   3.959  12.809  0.00  0.00    +0.000 A 
ATOM     17  C   UNL     1      46.451   4.675  13.500  0.00  0.00    +0.000 A 
ATOM     18  C   UNL     1      46.576   6.051  13.305  0.00  0.00    +0.000 A 
ATOM     19  C   UNL     1      45.743   6.745  12.410  0.00  0.00    +0.000 A 
ATOM     20  C   UNL     1      44.753   5.997  11.745  0.00  0.00    +0.000 A 
BRANCH  19  21
ATOM     21  C   UNL     1      45.920   8.193  12.154  0.00  0.00    +0.000 A 
ATOM     22  C   UNL     1      47.175   8.822  12.280  0.00  0.00    +0.000 A 
ATOM     23  C   UNL     1      47.337  10.193  12.043  0.00  0.00    +0.000 A 
ATOM     24  C   UNL     1      46.245  10.965  11.664  0.00  0.00    +0.000 A 
ATOM     25  C   UNL     1      45.001  10.363  11.541  0.00  0.00    +0.000 A 
ATOM     26  F   UNL     1      43.943  11.103  11.181  0.00  0.00    +0.000 F 
ATOM     27  C   UNL     1      44.830   9.005  11.788  0.00  0.00    +0.000 A 
ENDBRANCH  19  21
ENDBRANCH   1  15
TORSDOF 4
ENDMDL
MODEL 2
REMARK VINA RESULT:    -8.552      1.675      2.042
REMARK INTER + INTRA:         -11.323
REMARK INTER:                 -10.526
REMARK INTRA:                  -0.797
REMARK UNBOUND:                -0.770
REMARK  Name = 
REMARK  4 active torsions:
REMARK  status: ('A' for Active; 'I' for Inactive)
REMARK    1  A    between atoms: C_2  and  C_4
REMARK    2  A    between atoms: N_8  and  C_9
REMARK    3  A    between atoms: C_9  and  C_10
REMARK    4  A    between atoms: C_14  and  C_15
REMARK                            x       y       z     vdW  Elec       q    Type
REMARK                         _______ _______ _______ _____ _____    ______ ____
ROOT
ATOM      1  C   UNL     1      43.681   4.912  10.854  0.00  0.00    +0.000 C 
ENDROOT
BRANCH   1   6
ATOM      2  C   UNL     1      46.664   2.665   7.320  0.00  0.00    +0.000 A 
ATOM      3  C   UNL     1      46.450   4.008   7.607  0.00  0.00    +0.000 A 
ATOM      4  C   UNL     1      45.536   4.348   8.600  0.00  0.00    +0.000 A 
ATOM      5  C   UNL     1      44.853   3.352   9.288  0.00  0.00    +0.000 A 
ATOM      6  N   UNL     1      43.963   3.612  10.294  0.00  0.00    +0.000 N 
ATOM      7  N   UNL     1      45.023   2.047   8.989  0.00  0.00    +0.000 NA
ATOM      8  C   UNL     1      45.914   1.727   8.012  0.00  0.00    +0.000 A 
ATOM      9  H   UNL     1      43.507   2.794  10.676  0.00  0.00    +0.000 HD
BRANCH   2  11
ATOM     10  N   UNL     1      47.829   3.051   5.235  0.00  0.00    +0.000 N 
ATOM     11  C   UNL     1      47.647   2.229   6.311  0.00  0.00    +0.000 C 
ATOM     12  O   UNL     1      48.293   1.198   6.450  0.00  0.00    +0.000 OA
ATOM     13  H   UNL     1      48.571   2.797   4.593  0.00  0.00    +0.000 HD
ATOM     14  H   UNL     1      47.502   4.006   5.217  0.00  0.00    +0.000 HD
ENDBRANCH   2  11
ENDBRANCH   1   6
BRANCH   1  15
ATOM     15  C   UNL     1      44.769   5.430  11.772  0.00  0.00    +0.000 A 
ATOM     16  C   UNL     1      45.128   4.655  12.882  0.00  0.00    +0.000 A 
ATOM     17  C   UNL     1      46.140   5.075  13.740  0.00  0.00    +0.000 A 
ATOM     18  C   UNL     1      46.813   6.273  13.494  0.00  0.00    +0.000 A 
ATOM     19  C   UNL     1      46.503   7.074  12.381  0.00  0.00    +0.000 A 
ATOM     20  C   UNL     1      45.460   6.634  11.545  0.00  0.00    +0.000 A 
BRANCH  19  21
ATOM     21  C   UNL     1      47.263   8.310  12.083  0.00  0.00    +0.000 A 
ATOM     22  C   UNL     1      46.661   9.583  12.137  0.00  0.00    +0.000 A 
ATOM     23  C   UNL     1      47.380  10.749  11.848  0.00  0.00    +0.000 A 
ATOM     24  C   UNL     1      48.725  10.668  11.506  0.00  0.00    +0.000 A 
ATOM     25  C   UNL     1      49.332   9.423  11.441  0.00  0.00    +0.000 A 
ATOM     26  F   UNL     1      50.627   9.337  11.107  0.00  0.00    +0.000 F 
ATOM     27  C   UNL     1      48.620   8.259  11.713  0.00  0.00    +0.000 A 
ENDBRANCH  19  21
ENDBRANCH   1  15
TORSDOF 4
ENDMDL
MODEL 3
REMARK VINA RESULT:    -8.345      3.096      4.552
REMARK INTER + INTRA:         -11.066
REMARK INTER:                 -10.348
REMARK INTRA:                  -0.719
REMARK UNBOUND:                -0.770
REMARK  Name = 
REMARK  4 active torsions:
REMARK  status: ('A' for Active; 'I' for Inactive)
REMARK    1  A    between atoms: C_2  and  C_4
REMARK    2  A    between atoms: N_8  and  C_9
REMARK    3  A    between atoms: C_9  and  C_10
REMARK    4  A    between atoms: C_14  and  C_15
REMARK                            x       y       z     vdW  Elec       q    Type
REMARK                         _______ _______ _______ _____ _____    ______ ____
ROOT
ATOM      1  C   UNL     1      44.427   5.360  11.475  0.00  0.00    +0.000 C 
ENDROOT
BRANCH   1   6
ATOM      2  C   UNL     1      46.342   2.718   7.502  0.00  0.00    +0.000 A 
ATOM      3  C   UNL     1      46.322   4.083   7.760  0.00  0.00    +0.000 A 
ATOM      4  C   UNL     1      45.683   4.544   8.907  0.00  0.00    +0.000 A 
ATOM      5  C   UNL     1      45.077   3.643   9.775  0.00  0.00    +0.000 A 
ATOM      6  N   UNL     1      44.457   4.022  10.934  0.00  0.00    +0.000 N 
ATOM      7  N   UNL     1      45.056   2.320   9.514  0.00  0.00    +0.000 NA
ATOM      8  C   UNL     1      45.677   1.882   8.386  0.00  0.00    +0.000 A 
ATOM      9  H   UNL     1      44.021   3.267  11.446  0.00  0.00    +0.000 HD
BRANCH   2  11
ATOM     10  N   UNL     1      47.165   2.971   5.241  0.00  0.00    +0.000 N 
ATOM     11  C   UNL     1      47.035   2.154   6.329  0.00  0.00    +0.000 C 
ATOM     12  O   UNL     1      47.502   1.022   6.344  0.00  0.00    +0.000 OA
ATOM     13  H   UNL     1      47.724   2.614   4.473  0.00  0.00    +0.000 HD
ATOM     14  H   UNL     1      47.015   3.968   5.287  0.00  0.00    +0.000 HD
ENDBRANCH   2  11
ENDBRANCH   1   6
BRANCH   1  15
ATOM     15  C   UNL     1      45.716   5.773  12.155  0.00  0.00    +0.000 A 
ATOM     16  C   UNL     1      46.519   6.736  11.531  0.00  0.00    +0.000 A 
ATOM     17  C   UNL     1      47.700   7.167  12.128  0.00  0.00    +0.000 A 
ATOM     18  C   UNL     1      48.089   6.648  13.363  0.00  0.00    +0.000 A 
ATOM     19  C   UNL     1      47.306   5.696  14.039  0.00  0.00    +0.000 A 
ATOM     20  C   UNL     1      46.130   5.262  13.398  0.00  0.00    +0.000 A 
BRANCH  19  21
ATOM     21  C   UNL     1      47.684   5.194  15.380  0.00  0.00    +0.000 A 
ATOM     22  C   UNL     1      48.669   5.832  16.161  0.00  0.00    +0.000 A 
ATOM     23  C   UNL     1      49.029   5.351  17.426  0.00  0.00    +0.000 A 
ATOM     24  C   UNL     1      48.403   4.224  17.944  0.00  0.00    +0.000 A 
ATOM     25  C   UNL     1      47.436   3.579  17.186  0.00  0.00    +0.000 A 
ATOM     26  F   UNL     1      46.832   2.488  17.677  0.00  0.00    +0.000 F 
ATOM     27  C   UNL     1      47.083   4.043  15.923  0.00  0.00    +0.000 A 
ENDBRANCH  19  21
ENDBRANCH   1  15
TORSDOF 4
ENDMDL
MODEL 4
REMARK VINA RESULT:    -8.228      4.264      7.211
REMARK INTER + INTRA:         -10.922
REMARK INTER:                 -10.615
REMARK INTRA:                  -0.308
REMARK UNBOUND:                -0.770
REMARK  Name = 
REMARK  4 active torsions:
REMARK  status: ('A' for Active; 'I' for Inactive)
REMARK    1  A    between atoms: C_2  and  C_4
REMARK    2  A    between atoms: N_8  and  C_9
REMARK    3  A    between atoms: C_9  and  C_10
REMARK    4  A    between atoms: C_14  and  C_15
REMARK                            x       y       z     vdW  Elec       q    Type
REMARK                         _______ _______ _______ _____ _____    ______ ____
ROOT
ATOM      1  C   UNL     1      43.031   6.432  11.353  0.00  0.00    +0.000 C 
ENDROOT
BRANCH   1   6
ATOM      2  C   UNL     1      47.768   7.063  13.250  0.00  0.00    +0.000 A 
ATOM      3  C   UNL     1      46.812   6.086  13.499  0.00  0.00    +0.000 A 
ATOM      4  C   UNL     1      45.571   6.182  12.878  0.00  0.00    +0.000 A 
ATOM      5  C   UNL     1      45.302   7.244  12.023  0.00  0.00    +0.000 A 
ATOM      6  N   UNL     1      44.115   7.386  11.356  0.00  0.00    +0.000 N 
ATOM      7  N   UNL     1      46.208   8.219  11.805  0.00  0.00    +0.000 NA
ATOM      8  C   UNL     1      47.415   8.118  12.424  0.00  0.00    +0.000 A 
ATOM      9  H   UNL     1      44.041   8.228  10.802  0.00  0.00    +0.000 HD
BRANCH   2  11
ATOM     10  N   UNL     1      50.156   7.391  13.038  0.00  0.00    +0.000 N 
ATOM     11  C   UNL     1      49.118   7.005  13.840  0.00  0.00    +0.000 C 
ATOM     12  O   UNL     1      49.296   6.662  15.002  0.00  0.00    +0.000 OA
ATOM     13  H   UNL     1      51.069   7.441  13.475  0.00  0.00    +0.000 HD
ATOM     14  H   UNL     1      50.019   7.903  12.178  0.00  0.00    +0.000 HD
ENDBRANCH   2  11
ENDBRANCH   1   6
BRANCH   1  15
ATOM     15  C   UNL     1      43.475   5.004  11.112  0.00  0.00    +0.000 A 
ATOM     16  C   UNL     1      42.999   4.005  11.970  0.00  0.00    +0.000 A 
ATOM     17  C   UNL     1      43.357   2.675  11.775  0.00  0.00    +0.000 A 
ATOM     18  C   UNL     1      44.190   2.324  10.712  0.00  0.00    +0.000 A 
ATOM     19  C   UNL     1      44.676   3.288   9.811  0.00  0.00    +0.000 A 
ATOM     20  C   UNL     1      44.316   4.627  10.049  0.00  0.00    +0.000 A 
BRANCH  19  21
ATOM     21  C   UNL     1      45.505   2.907   8.644  0.00  0.00    +0.000 A 
ATOM     22  C   UNL     1      45.906   3.851   7.677  0.00  0.00    +0.000 A 
ATOM     23  C   UNL     1      46.684   3.487   6.572  0.00  0.00    +0.000 A 
ATOM     24  C   UNL     1      47.088   2.166   6.413  0.00  0.00    +0.000 A 
ATOM     25  C   UNL     1      46.696   1.222   7.351  0.00  0.00    +0.000 A 
ATOM     26  F   UNL     1      47.077  -0.054   7.201  0.00  0.00    +0.000 F 
ATOM     27  C   UNL     1      45.912   1.574   8.444  0.00  0.00    +0.000 A 
ENDBRANCH  19  21
ENDBRANCH   1  15
TORSDOF 4
ENDMDL
MODEL 5
REMARK VINA RESULT:    -8.183      4.502      7.336
REMARK INTER + INTRA:         -10.867
REMARK INTER:                 -10.051
REMARK INTRA:                  -0.816
REMARK UNBOUND:                -0.770
REMARK  Name = 
REMARK  4 active torsions:
REMARK  status: ('A' for Active; 'I' for Inactive)
REMARK    1  A    between atoms: C_2  and  C_4
REMARK    2  A    between atoms: N_8  and  C_9
REMARK    3  A    between atoms: C_9  and  C_10
REMARK    4  A    between atoms: C_14  and  C_15
REMARK                            x       y       z     vdW  Elec       q    Type
REMARK                         _______ _______ _______ _____ _____    ______ ____
ROOT
ATOM      1  C   UNL     1      44.635   6.431  12.326  0.00  0.00    +0.000 C 
ENDROOT
BRANCH   1   6
ATOM      2  C   UNL     1      49.557   7.879  12.665  0.00  0.00    +0.000 A 
ATOM      3  C   UNL     1      48.714   7.777  11.565  0.00  0.00    +0.000 A 
ATOM      4  C   UNL     1      47.420   7.302  11.750  0.00  0.00    +0.000 A 
ATOM      5  C   UNL     1      46.986   6.939  13.019  0.00  0.00    +0.000 A 
ATOM      6  N   UNL     1      45.719   6.493  13.279  0.00  0.00    +0.000 N 
ATOM      7  N   UNL     1      47.808   6.997  14.087  0.00  0.00    +0.000 NA
ATOM      8  C   UNL     1      49.074   7.455  13.893  0.00  0.00    +0.000 A 
ATOM      9  H   UNL     1      45.555   6.222  14.239  0.00  0.00    +0.000 HD
BRANCH   2  11
ATOM     10  N   UNL     1      51.825   7.656  11.851  0.00  0.00    +0.000 N 
ATOM     11  C   UNL     1      50.927   8.412  12.553  0.00  0.00    +0.000 C 
ATOM     12  O   UNL     1      51.236   9.495  13.035  0.00  0.00    +0.000 OA
ATOM     13  H   UNL     1      52.738   8.069  11.695  0.00  0.00    +0.000 HD
ATOM     14  H   UNL     1      51.544   6.899  11.246  0.00  0.00    +0.000 HD
ENDBRANCH   2  11
ENDBRANCH   1   6
BRANCH   1  15
ATOM     15  C   UNL     1      44.450   5.064  11.700  0.00  0.00    +0.000 A 
ATOM     16  C   UNL     1      43.504   4.198  12.261  0.00  0.00    +0.000 A 
ATOM     17  C   UNL     1      43.278   2.942  11.706  0.00  0.00    +0.000 A 
ATOM     18  C   UNL     1      43.990   2.539  10.576  0.00  0.00    +0.000 A 
ATOM     19  C   UNL     1      44.935   3.381   9.964  0.00  0.00    +0.000 A 
ATOM     20  C   UNL     1      45.158   4.636  10.562  0.00  0.00    +0.000 A 
BRANCH  19  21
ATOM     21  C   UNL     1      45.641   2.980   8.726  0.00  0.00    +0.000 A 
ATOM     22  C   UNL     1      46.005   3.920   7.740  0.00  0.00    +0.000 A 
ATOM     23  C   UNL     1      46.668   3.536   6.568  0.00  0.00    +0.000 A 
ATOM     24  C   UNL     1      46.991   2.201   6.358  0.00  0.00    +0.000 A 
ATOM     25  C   UNL     1      46.634   1.261   7.315  0.00  0.00    +0.000 A 
ATOM     26  F   UNL     1      46.937  -0.029   7.117  0.00  0.00    +0.000 F 
ATOM     27  C   UNL     1      45.964   1.633   8.475  0.00  0.00    +0.000 A 
ENDBRANCH  19  21
ENDBRANCH   1  15
TORSDOF 4
ENDMDL
MODEL 6
REMARK VINA RESULT:    -7.916      5.160      8.539
REMARK INTER + INTRA:         -10.537
REMARK INTER:                  -9.999
REMARK INTRA:                  -0.538
REMARK UNBOUND:                -0.770
REMARK  Name = 
REMARK  4 active torsions:
REMARK  status: ('A' for Active; 'I' for Inactive)
REMARK    1  A    between atoms: C_2  and  C_4
REMARK    2  A    between atoms: N_8  and  C_9
REMARK    3  A    between atoms: C_9  and  C_10
REMARK    4  A    between atoms: C_14  and  C_15
REMARK                            x       y       z     vdW  Elec       q    Type
REMARK                         _______ _______ _______ _____ _____    ______ ____
ROOT
ATOM      1  C   UNL     1      46.172   5.365  13.411  0.00  0.00    +0.000 C 
ENDROOT
BRANCH   1   6
ATOM      2  C   UNL     1      48.516   4.322  17.867  0.00  0.00    +0.000 A 
ATOM      3  C   UNL     1      48.637   5.408  17.009  0.00  0.00    +0.000 A 
ATOM      4  C   UNL     1      47.911   5.415  15.823  0.00  0.00    +0.000 A 
ATOM      5  C   UNL     1      47.078   4.347  15.511  0.00  0.00    +0.000 A 
ATOM      6  N   UNL     1      46.313   4.301  14.377  0.00  0.00    +0.000 N 
ATOM      7  N   UNL     1      46.983   3.270  16.317  0.00  0.00    +0.000 NA
ATOM      8  C   UNL     1      47.704   3.271  17.470  0.00  0.00    +0.000 A 
ATOM      9  H   UNL     1      45.789   3.444  14.256  0.00  0.00    +0.000 HD
BRANCH   2  11
ATOM     10  N   UNL     1      48.569   3.646  20.190  0.00  0.00    +0.000 N 
ATOM     11  C   UNL     1      49.223   4.264  19.160  0.00  0.00    +0.000 C 
ATOM     12  O   UNL     1      50.354   4.714  19.293  0.00  0.00    +0.000 OA
ATOM     13  H   UNL     1      49.095   3.524  21.048  0.00  0.00    +0.000 HD
ATOM     14  H   UNL     1      47.760   3.059  20.048  0.00  0.00    +0.000 HD
ENDBRANCH   2  11
ENDBRANCH   1   6
BRANCH   1  15
ATOM     15  C   UNL     1      45.347   4.984  12.199  0.00  0.00    +0.000 A 
ATOM     16  C   UNL     1      44.015   5.412  12.139  0.00  0.00    +0.000 A 
ATOM     17  C   UNL     1      43.224   5.110  11.035  0.00  0.00    +0.000 A 
ATOM     18  C   UNL     1      43.758   4.383   9.970  0.00  0.00    +0.000 A 
ATOM     19  C   UNL     1      45.096   3.950   9.975  0.00  0.00    +0.000 A 
ATOM     20  C   UNL     1      45.863   4.250  11.116  0.00  0.00    +0.000 A 
BRANCH  19  21
ATOM     21  C   UNL     1      45.682   3.236   8.817  0.00  0.00    +0.000 A 
ATOM     22  C   UNL     1      46.088   3.918   7.652  0.00  0.00    +0.000 A 
ATOM     23  C   UNL     1      46.635   3.239   6.556  0.00  0.00    +0.000 A 
ATOM     24  C   UNL     1      46.798   1.860   6.605  0.00  0.00    +0.000 A 
ATOM     25  C   UNL     1      46.398   1.172   7.741  0.00  0.00    +0.000 A 
ATOM     26  F   UNL     1      46.547  -0.159   7.793  0.00  0.00    +0.000 F 
ATOM     27  C   UNL     1      45.841   1.837   8.828  0.00  0.00    +0.000 A 
ENDBRANCH  19  21
ENDBRANCH   1  15
TORSDOF 4
ENDMDL
MODEL 7
REMARK VINA RESULT:    -7.082      4.771      7.837
REMARK INTER + INTRA:          -9.508
REMARK INTER:                  -9.171
REMARK INTRA:                  -0.337
REMARK UNBOUND:                -0.770
REMARK  Name = 
REMARK  4 active torsions:
REMARK  status: ('A' for Active; 'I' for Inactive)
REMARK    1  A    between atoms: C_2  and  C_4
REMARK    2  A    between atoms: N_8  and  C_9
REMARK    3  A    between atoms: C_9  and  C_10
REMARK    4  A    between atoms: C_14  and  C_15
REMARK                            x       y       z     vdW  Elec       q    Type
REMARK                         _______ _______ _______ _____ _____    ______ ____
ROOT
ATOM      1  C   UNL     1      48.895   7.798  13.158  0.00  0.00    +0.000 C 
ENDROOT
BRANCH   1   6
ATOM      2  C   UNL     1      47.845   4.502  16.961  0.00  0.00    +0.000 A 
ATOM      3  C   UNL     1      47.548   4.449  15.605  0.00  0.00    +0.000 A 
ATOM      4  C   UNL     1      47.911   5.518  14.793  0.00  0.00    +0.000 A 
ATOM      5  C   UNL     1      48.561   6.618  15.339  0.00  0.00    +0.000 A 
ATOM      6  N   UNL     1      48.973   7.690  14.596  0.00  0.00    +0.000 N 
ATOM      7  N   UNL     1      48.819   6.697  16.661  0.00  0.00    +0.000 NA
ATOM      8  C   UNL     1      48.453   5.649  17.447  0.00  0.00    +0.000 A 
ATOM      9  H   UNL     1      49.393   8.438  15.131  0.00  0.00    +0.000 HD
BRANCH   2  11
ATOM     10  N   UNL     1      48.312   3.267  18.990  0.00  0.00    +0.000 N 
ATOM     11  C   UNL     1      47.529   3.389  17.876  0.00  0.00    +0.000 C 
ATOM     12  O   UNL     1      46.588   2.634  17.665  0.00  0.00    +0.000 OA
ATOM     13  H   UNL     1      48.033   2.562  19.662  0.00  0.00    +0.000 HD
ATOM     14  H   UNL     1      48.922   4.005  19.310  0.00  0.00    +0.000 HD
ENDBRANCH   2  11
ENDBRANCH   1   6
BRANCH   1  15
ATOM     15  C   UNL     1      47.491   7.649  12.610  0.00  0.00    +0.000 A 
ATOM     16  C   UNL     1      46.585   8.699  12.806  0.00  0.00    +0.000 A 
ATOM     17  C   UNL     1      45.291   8.621  12.298  0.00  0.00    +0.000 A 
ATOM     18  C   UNL     1      44.889   7.494  11.580  0.00  0.00    +0.000 A 
ATOM     19  C   UNL     1      45.769   6.424  11.339  0.00  0.00    +0.000 A 
ATOM     20  C   UNL     1      47.063   6.522  11.885  0.00  0.00    +0.000 A 
BRANCH  19  21
ATOM     21  C   UNL     1      45.364   5.259  10.519  0.00  0.00    +0.000 A 
ATOM     22  C   UNL     1      45.709   5.152   9.157  0.00  0.00    +0.000 A 
ATOM     23  C   UNL     1      45.318   4.053   8.383  0.00  0.00    +0.000 A 
ATOM     24  C   UNL     1      44.579   3.026   8.960  0.00  0.00    +0.000 A 
ATOM     25  C   UNL     1      44.225   3.118  10.298  0.00  0.00    +0.000 A 
ATOM     26  F   UNL     1      43.508   2.134  10.860  0.00  0.00    +0.000 F 
ATOM     27  C   UNL     1      44.598   4.213  11.069  0.00  0.00    +0.000 A 
ENDBRANCH  19  21
ENDBRANCH   1  15
TORSDOF 4
ENDMDL
MODEL 8
REMARK VINA RESULT:    -7.046      6.349      8.599
REMARK INTER + INTRA:          -9.464
REMARK INTER:                  -8.692
REMARK INTRA:                  -0.772
REMARK UNBOUND:                -0.770
REMARK  Name = 
REMARK  4 active torsions:
REMARK  status: ('A' for Active; 'I' for Inactive)
REMARK    1  A    between atoms: C_2  and  C_4
REMARK    2  A    between atoms: N_8  and  C_9
REMARK    3  A    between atoms: C_9  and  C_10
REMARK    4  A    between atoms: C_14  and  C_15
REMARK                            x       y       z     vdW  Elec       q    Type
REMARK                         _______ _______ _______ _____ _____    ______ ____
ROOT
ATOM      1  C   UNL     1      47.711   3.780  16.991  0.00  0.00    +0.000 C 
ENDROOT
BRANCH   1   6
ATOM      2  C   UNL     1      52.530   2.295  17.992  0.00  0.00    +0.000 A 
ATOM      3  C   UNL     1      51.908   3.527  18.150  0.00  0.00    +0.000 A 
ATOM      4  C   UNL     1      50.585   3.672  17.745  0.00  0.00    +0.000 A 
ATOM      5  C   UNL     1      49.904   2.592  17.194  0.00  0.00    +0.000 A 
ATOM      6  N   UNL     1      48.594   2.654  16.803  0.00  0.00    +0.000 N 
ATOM      7  N   UNL     1      50.510   1.403  17.000  0.00  0.00    +0.000 NA
ATOM      8  C   UNL     1      51.807   1.276  17.392  0.00  0.00    +0.000 A 
ATOM      9  H   UNL     1      48.241   1.807  16.378  0.00  0.00    +0.000 HD
BRANCH   2  11
ATOM     10  N   UNL     1      54.905   2.315  17.527  0.00  0.00    +0.000 N 
ATOM     11  C   UNL     1      53.916   2.056  18.435  0.00  0.00    +0.000 C 
ATOM     12  O   UNL     1      54.170   1.679  19.572  0.00  0.00    +0.000 OA
ATOM     13  H   UNL     1      55.858   2.241  17.864  0.00  0.00    +0.000 HD
ATOM     14  H   UNL     1      54.745   2.851  16.686  0.00  0.00    +0.000 HD
ENDBRANCH   2  11
ENDBRANCH   1   6
BRANCH   1  15
ATOM     15  C   UNL     1      47.560   4.651  15.761  0.00  0.00    +0.000 A 
ATOM     16  C   UNL     1      48.366   5.791  15.651  0.00  0.00    +0.000 A 
ATOM     17  C   UNL     1      48.284   6.609  14.527  0.00  0.00    +0.000 A 
ATOM     18  C   UNL     1      47.401   6.291  13.494  0.00  0.00    +0.000 A 
ATOM     19  C   UNL     1      46.588   5.145  13.550  0.00  0.00    +0.000 A 
ATOM     20  C   UNL     1      46.676   4.352  14.709  0.00  0.00    +0.000 A 
BRANCH  19  21
ATOM     21  C   UNL     1      45.701   4.772  12.424  0.00  0.00    +0.000 A 
ATOM     22  C   UNL     1      45.727   5.463  11.196  0.00  0.00    +0.000 A 
ATOM     23  C   UNL     1      44.882   5.111  10.136  0.00  0.00    +0.000 A 
ATOM     24  C   UNL     1      43.996   4.050  10.278  0.00  0.00    +0.000 A 
ATOM     25  C   UNL     1      43.951   3.363  11.483  0.00  0.00    +0.000 A 
ATOM     26  F   UNL     1      43.094   2.343  11.629  0.00  0.00    +0.000 F 
ATOM     27  C   UNL     1      44.778   3.715  12.544  0.00  0.00    +0.000 A 
ENDBRANCH  19  21
ENDBRANCH   1  15
TORSDOF 4
ENDMDL
MODEL 9
REMARK VINA RESULT:    -6.863      5.498      8.641
REMARK INTER + INTRA:          -9.238
REMARK INTER:                  -8.583
REMARK INTRA:                  -0.655
REMARK UNBOUND:                -0.770
REMARK  Name = 
REMARK  4 active torsions:
REMARK  status: ('A' for Active; 'I' for Inactive)
REMARK    1  A    between atoms: C_2  and  C_4
REMARK    2  A    between atoms: N_8  and  C_9
REMARK    3  A    between atoms: C_9  and  C_10
REMARK    4  A    between atoms: C_14  and  C_15
REMARK                            x       y       z     vdW  Elec       q    Type
REMARK                         _______ _______ _______ _____ _____    ______ ____
ROOT
ATOM      1  C   UNL     1      48.311   7.431  13.956  0.00  0.00    +0.000 C 
ENDROOT
BRANCH   1   6
ATOM      2  C   UNL     1      48.668   5.482  18.701  0.00  0.00    +0.000 A 
ATOM      3  C   UNL     1      48.551   6.796  18.265  0.00  0.00    +0.000 A 
ATOM      4  C   UNL     1      48.523   7.053  16.898  0.00  0.00    +0.000 A 
ATOM      5  C   UNL     1      48.612   6.005  15.991  0.00  0.00    +0.000 A 
ATOM      6  N   UNL     1      48.563   6.181  14.635  0.00  0.00    +0.000 N 
ATOM      7  N   UNL     1      48.767   4.729  16.402  0.00  0.00    +0.000 NA
ATOM      8  C   UNL     1      48.800   4.491  17.741  0.00  0.00    +0.000 A 
ATOM      9  H   UNL     1      48.684   5.335  14.094  0.00  0.00    +0.000 HD
BRANCH   2  11
ATOM     10  N   UNL     1      48.528   3.803  20.438  0.00  0.00    +0.000 N 
ATOM     11  C   UNL     1      48.662   5.129  20.132  0.00  0.00    +0.000 C 
ATOM     12  O   UNL     1      48.807   5.978  21.003  0.00  0.00    +0.000 OA
ATOM     13  H   UNL     1      48.620   3.554  21.416  0.00  0.00    +0.000 HD
ATOM     14  H   UNL     1      48.654   3.071  19.754  0.00  0.00    +0.000 HD
ENDBRANCH   2  11
ENDBRANCH   1   6
BRANCH   1  15
ATOM     15  C   UNL     1      47.079   7.410  13.076  0.00  0.00    +0.000 A 
ATOM     16  C   UNL     1      46.285   8.562  13.015  0.00  0.00    +0.000 A 
ATOM     17  C   UNL     1      45.157   8.602  12.201  0.00  0.00    +0.000 A 
ATOM     18  C   UNL     1      44.814   7.492  11.427  0.00  0.00    +0.000 A 
ATOM     19  C   UNL     1      45.593   6.321  11.437  0.00  0.00    +0.000 A 
ATOM     20  C   UNL     1      46.713   6.303  12.289  0.00  0.00    +0.000 A 
BRANCH  19  21
ATOM     21  C   UNL     1      45.267   5.168  10.566  0.00  0.00    +0.000 A 
ATOM     22  C   UNL     1      44.518   4.070  11.036  0.00  0.00    +0.000 A 
ATOM     23  C   UNL     1      44.217   2.979  10.212  0.00  0.00    +0.000 A 
ATOM     24  C   UNL     1      44.651   2.966   8.891  0.00  0.00    +0.000 A 
ATOM     25  C   UNL     1      45.395   4.036   8.414  0.00  0.00    +0.000 A 
ATOM     26  F   UNL     1      45.822   4.028   7.144  0.00  0.00    +0.000 F 
ATOM     27  C   UNL     1      45.710   5.117   9.231  0.00  0.00    +0.000 A 
ENDBRANCH  19  21
ENDBRANCH   1  15
TORSDOF 4
ENDMDL
