MODEL 1
REMARK VINA RESULT:    -7.157      0.000      0.000
REMARK INTER + INTRA:         -11.012
REMARK INTER:                  -9.876
REMARK INTRA:                  -1.135
REMARK UNBOUND:                -1.135
REMARK  Name = 
REMARK  8 active torsions:
REMARK  status: ('A' for Active; 'I' for Inactive)
REMARK    1  A    between atoms: C_1  and  C_2
REMARK    2  A    between atoms: C_2  and  C_3
REMARK    3  A    between atoms: C_2  and  C_15
REMARK    4  A    between atoms: C_3  and  N_4
REMARK    5  A    between atoms: N_4  and  C_5
REMARK    6  A    between atoms: C_8  and  S_9
REMARK    7  A    between atoms: S_9  and  N_10
REMARK    8  A    between atoms: C_19  and  C_20
REMARK                            x       y       z     vdW  Elec       q    Type
REMARK                         _______ _______ _______ _____ _____    ______ ____
ROOT
ATOM      1  N   UNL     1      43.697   5.305  12.657  0.00  0.00    +0.000 N 
ATOM      2  H   UNL     1      43.078   5.818  13.280  0.00  0.00    +0.000 HD
ENDROOT
BRANCH   1   3
ATOM      3  C   UNL     1      45.004   5.809  12.692  0.00  0.00    +0.000 A 
ATOM      4  C   UNL     1      46.078   5.150  13.311  0.00  0.00    +0.000 A 
ATOM      5  C   UNL     1      47.349   5.728  13.372  0.00  0.00    +0.000 A 
ATOM      6  C   UNL     1      47.552   6.995  12.833  0.00  0.00    +0.000 A 
ATOM      7  C   UNL     1      46.495   7.694  12.251  0.00  0.00    +0.000 A 
ATOM      8  C   UNL     1      45.232   7.098  12.183  0.00  0.00    +0.000 A 
BRANCH   6   9
ATOM      9  S   UNL     1      49.152   7.736  12.919  0.00  0.00    +0.000 S 
ATOM     10  O   UNL     1      49.935   7.322  11.776  0.00  0.00    +0.000 OA
ATOM     11  O   UNL     1      49.021   9.118  13.311  0.00  0.00    +0.000 OA
BRANCH   9  12
ATOM     12  N   UNL     1      49.808   6.939  14.242  0.00  0.00    +0.000 NA
ATOM     13  H   UNL     1      49.440   5.990  14.296  0.00  0.00    +0.000 HD
ATOM     14  H   UNL     1      50.826   6.995  14.214  0.00  0.00    +0.000 HD
ENDBRANCH   9  12
ENDBRANCH   6   9
ENDBRANCH   1   3
BRANCH   1  15
ATOM     15  C   UNL     1      43.107   4.983  11.372  0.00  0.00    +0.000 C 
BRANCH  15  17
ATOM     16  C   UNL     1      43.443   2.477  11.948  0.00  0.00    +0.000 C 
ATOM     17  C   UNL     1      43.500   3.594  10.950  0.00  0.00    +0.000 C 
BRANCH  17  18
ATOM     18  C   UNL     1      44.496   3.514   9.867  0.00  0.00    +0.000 A 
ATOM     19  C   UNL     1      44.942   4.671   9.214  0.00  0.00    +0.000 A 
ATOM     20  C   UNL     1      45.846   4.590   8.155  0.00  0.00    +0.000 A 
ATOM     21  C   UNL     1      46.325   3.348   7.743  0.00  0.00    +0.000 A 
ATOM     22  C   UNL     1      45.897   2.186   8.392  0.00  0.00    +0.000 A 
ATOM     23  C   UNL     1      44.979   2.269   9.447  0.00  0.00    +0.000 A 
BRANCH  22  24
ATOM     24  C   UNL     1      46.397   0.909   7.978  0.00  0.00    +0.000 C 
ATOM     25  N   UNL     1      46.803  -0.125   7.648  0.00  0.00    +0.000 NA
ENDBRANCH  22  24
ENDBRANCH  17  18
ENDBRANCH  15  17
ENDBRANCH   1  15
TORSDOF 7
ENDMDL
MODEL 2
REMARK VINA RESULT:    -6.915      3.743      6.787
REMARK INTER + INTRA:         -10.678
REMARK INTER:                  -9.890
REMARK INTRA:                  -0.788
REMARK UNBOUND:                -1.135
REMARK  Name = 
REMARK  8 active torsions:
REMARK  status: ('A' for Active; 'I' for Inactive)
REMARK    1  A    between atoms: C_1  and  C_2
REMARK    2  A    between atoms: C_2  and  C_3
REMARK    3  A    between atoms: C_2  and  C_15
REMARK    4  A    between atoms: C_3  and  N_4
REMARK    5  A    between atoms: N_4  and  C_5
REMARK    6  A    between atoms: C_8  and  S_9
REMARK    7  A    between atoms: S_9  and  N_10
REMARK    8  A    between atoms: C_19  and  C_20
REMARK                            x       y       z     vdW  Elec       q    Type
REMARK                         _______ _______ _______ _____ _____    ______ ____
ROOT
ATOM      1  N   UNL     1      43.719   4.717  10.533  0.00  0.00    +0.000 N 
ATOM      2  H   UNL     1      42.752   4.507  10.300  0.00  0.00    +0.000 HD
ENDROOT
BRANCH   1   3
ATOM      3  C   UNL     1      44.614   4.070   9.669  0.00  0.00    +0.000 A 
ATOM      4  C   UNL     1      45.431   4.741   8.746  0.00  0.00    +0.000 A 
ATOM      5  C   UNL     1      46.259   4.042   7.863  0.00  0.00    +0.000 A 
ATOM      6  C   UNL     1      46.258   2.650   7.880  0.00  0.00    +0.000 A 
ATOM      7  C   UNL     1      45.424   1.954   8.755  0.00  0.00    +0.000 A 
ATOM      8  C   UNL     1      44.612   2.666   9.643  0.00  0.00    +0.000 A 
BRANCH   6   9
ATOM      9  S   UNL     1      47.292   1.761   6.759  0.00  0.00    +0.000 S 
ATOM     10  O   UNL     1      48.658   2.211   6.908  0.00  0.00    +0.000 OA
ATOM     11  O   UNL     1      46.928   0.365   6.773  0.00  0.00    +0.000 OA
BRANCH   9  12
ATOM     12  N   UNL     1      46.764   2.363   5.284  0.00  0.00    +0.000 NA
ATOM     13  H   UNL     1      45.764   2.199   5.177  0.00  0.00    +0.000 HD
ATOM     14  H   UNL     1      47.043   3.340   5.187  0.00  0.00    +0.000 HD
ENDBRANCH   9  12
ENDBRANCH   6   9
ENDBRANCH   1   3
BRANCH   1  15
ATOM     15  C   UNL     1      43.998   4.717  11.955  0.00  0.00    +0.000 C 
BRANCH  15  17
ATOM     16  C   UNL     1      46.173   3.866  13.081  0.00  0.00    +0.000 C 
ATOM     17  C   UNL     1      45.475   4.857  12.199  0.00  0.00    +0.000 C 
BRANCH  17  18
ATOM     18  C   UNL     1      46.005   6.231  12.133  0.00  0.00    +0.000 A 
ATOM     19  C   UNL     1      47.386   6.467  12.118  0.00  0.00    +0.000 A 
ATOM     20  C   UNL     1      47.887   7.769  12.107  0.00  0.00    +0.000 A 
ATOM     21  C   UNL     1      47.010   8.852  12.099  0.00  0.00    +0.000 A 
ATOM     22  C   UNL     1      45.629   8.631  12.102  0.00  0.00    +0.000 A 
ATOM     23  C   UNL     1      45.129   7.323  12.126  0.00  0.00    +0.000 A 
BRANCH  22  24
ATOM     24  C   UNL     1      44.726   9.742  12.080  0.00  0.00    +0.000 C 
ATOM     25  N   UNL     1      43.995  10.642  12.058  0.00  0.00    +0.000 NA
ENDBRANCH  22  24
ENDBRANCH  17  18
ENDBRANCH  15  17
ENDBRANCH   1  15
TORSDOF 7
ENDMDL
MODEL 3
REMARK VINA RESULT:    -6.405      3.231      3.912
REMARK INTER + INTRA:          -9.975
REMARK INTER:                  -9.181
REMARK INTRA:                  -0.793
REMARK UNBOUND:                -1.135
REMARK  Name = 
REMARK  8 active torsions:
REMARK  status: ('A' for Active; 'I' for Inactive)
REMARK    1  A    between atoms: C_1  and  C_2
REMARK    2  A    between atoms: C_2  and  C_3
REMARK    3  A    between atoms: C_2  and  C_15
REMARK    4  A    between atoms: C_3  and  N_4
REMARK    5  A    between atoms: N_4  and  C_5
REMARK    6  A    between atoms: C_8  and  S_9
REMARK    7  A    between atoms: S_9  and  N_10
REMARK    8  A    between atoms: C_19  and  C_20
REMARK                            x       y       z     vdW  Elec       q    Type
REMARK                         _______ _______ _______ _____ _____    ______ ____
ROOT
ATOM      1  N   UNL     1      46.727   7.034  12.611  0.00  0.00    +0.000 N 
ATOM      2  H   UNL     1      47.154   7.947  12.744  0.00  0.00    +0.000 HD
ENDROOT
BRANCH   1   3
ATOM      3  C   UNL     1      47.103   6.133  13.616  0.00  0.00    +0.000 A 
ATOM      4  C   UNL     1      46.522   4.866  13.786  0.00  0.00    +0.000 A 
ATOM      5  C   UNL     1      46.891   4.032  14.845  0.00  0.00    +0.000 A 
ATOM      6  C   UNL     1      47.835   4.474  15.768  0.00  0.00    +0.000 A 
ATOM      7  C   UNL     1      48.398   5.745  15.651  0.00  0.00    +0.000 A 
ATOM      8  C   UNL     1      48.031   6.563  14.578  0.00  0.00    +0.000 A 
BRANCH   6   9
ATOM      9  S   UNL     1      48.296   3.430  17.115  0.00  0.00    +0.000 S 
ATOM     10  O   UNL     1      48.948   2.246  16.604  0.00  0.00    +0.000 OA
ATOM     11  O   UNL     1      48.860   4.233  18.173  0.00  0.00    +0.000 OA
BRANCH   9  12
ATOM     12  N   UNL     1      46.791   2.930  17.666  0.00  0.00    +0.000 NA
ATOM     13  H   UNL     1      46.700   3.126  18.662  0.00  0.00    +0.000 HD
ATOM     14  H   UNL     1      46.056   3.337  17.088  0.00  0.00    +0.000 HD
ENDBRANCH   9  12
ENDBRANCH   6   9
ENDBRANCH   1   3
BRANCH   1  15
ATOM     15  C   UNL     1      46.718   6.581  11.234  0.00  0.00    +0.000 C 
BRANCH  15  17
ATOM     16  C   UNL     1      44.159   6.855  11.553  0.00  0.00    +0.000 C 
ATOM     17  C   UNL     1      45.314   6.273  10.793  0.00  0.00    +0.000 C 
BRANCH  17  18
ATOM     18  C   UNL     1      45.125   4.976  10.120  0.00  0.00    +0.000 A 
ATOM     19  C   UNL     1      44.379   3.955  10.724  0.00  0.00    +0.000 A 
ATOM     20  C   UNL     1      44.243   2.710  10.109  0.00  0.00    +0.000 A 
ATOM     21  C   UNL     1      44.845   2.475   8.875  0.00  0.00    +0.000 A 
ATOM     22  C   UNL     1      45.585   3.488   8.255  0.00  0.00    +0.000 A 
ATOM     23  C   UNL     1      45.730   4.733   8.881  0.00  0.00    +0.000 A 
BRANCH  22  24
ATOM     24  C   UNL     1      46.194   3.253   6.980  0.00  0.00    +0.000 C 
ATOM     25  N   UNL     1      46.683   3.065   5.946  0.00  0.00    +0.000 NA
ENDBRANCH  22  24
ENDBRANCH  17  18
ENDBRANCH  15  17
ENDBRANCH   1  15
TORSDOF 7
ENDMDL
MODEL 4
REMARK VINA RESULT:    -6.351      4.022      6.963
REMARK INTER + INTRA:          -9.900
REMARK INTER:                  -9.343
REMARK INTRA:                  -0.557
REMARK UNBOUND:                -1.135
REMARK  Name = 
REMARK  8 active torsions:
REMARK  status: ('A' for Active; 'I' for Inactive)
REMARK    1  A    between atoms: C_1  and  C_2
REMARK    2  A    between atoms: C_2  and  C_3
REMARK    3  A    between atoms: C_2  and  C_15
REMARK    4  A    between atoms: C_3  and  N_4
REMARK    5  A    between atoms: N_4  and  C_5
REMARK    6  A    between atoms: C_8  and  S_9
REMARK    7  A    between atoms: S_9  and  N_10
REMARK    8  A    between atoms: C_19  and  C_20
REMARK                            x       y       z     vdW  Elec       q    Type
REMARK                         _______ _______ _______ _____ _____    ______ ____
ROOT
ATOM      1  N   UNL     1      44.440   4.838  10.750  0.00  0.00    +0.000 N 
ATOM      2  H   UNL     1      43.436   4.705  10.667  0.00  0.00    +0.000 HD
ENDROOT
BRANCH   1   3
ATOM      3  C   UNL     1      45.137   4.208   9.710  0.00  0.00    +0.000 A 
ATOM      4  C   UNL     1      45.813   4.899   8.692  0.00  0.00    +0.000 A 
ATOM      5  C   UNL     1      46.437   4.221   7.642  0.00  0.00    +0.000 A 
ATOM      6  C   UNL     1      46.368   2.832   7.587  0.00  0.00    +0.000 A 
ATOM      7  C   UNL     1      45.666   2.119   8.559  0.00  0.00    +0.000 A 
ATOM      8  C   UNL     1      45.059   2.810   9.612  0.00  0.00    +0.000 A 
BRANCH   6   9
ATOM      9  S   UNL     1      47.144   1.970   6.256  0.00  0.00    +0.000 S 
ATOM     10  O   UNL     1      47.150   0.552   6.541  0.00  0.00    +0.000 OA
ATOM     11  O   UNL     1      46.681   2.508   5.000  0.00  0.00    +0.000 OA
BRANCH   9  12
ATOM     12  N   UNL     1      48.734   2.482   6.421  0.00  0.00    +0.000 NA
ATOM     13  H   UNL     1      49.007   2.464   7.403  0.00  0.00    +0.000 HD
ATOM     14  H   UNL     1      49.341   1.939   5.806  0.00  0.00    +0.000 HD
ENDBRANCH   9  12
ENDBRANCH   6   9
ENDBRANCH   1   3
BRANCH   1  15
ATOM     15  C   UNL     1      44.944   4.712  12.104  0.00  0.00    +0.000 C 
BRANCH  15  17
ATOM     16  C   UNL     1      45.738   7.121  11.567  0.00  0.00    +0.000 C 
ATOM     17  C   UNL     1      45.567   6.004  12.553  0.00  0.00    +0.000 C 
BRANCH  17  18
ATOM     18  C   UNL     1      46.532   5.896  13.661  0.00  0.00    +0.000 A 
ATOM     19  C   UNL     1      47.620   6.775  13.755  0.00  0.00    +0.000 A 
ATOM     20  C   UNL     1      48.561   6.640  14.776  0.00  0.00    +0.000 A 
ATOM     21  C   UNL     1      48.417   5.629  15.725  0.00  0.00    +0.000 A 
ATOM     22  C   UNL     1      47.331   4.752  15.650  0.00  0.00    +0.000 A 
ATOM     23  C   UNL     1      46.395   4.882  14.616  0.00  0.00    +0.000 A 
BRANCH  22  24
ATOM     24  C   UNL     1      47.174   3.721  16.631  0.00  0.00    +0.000 C 
ATOM     25  N   UNL     1      47.044   2.884  17.423  0.00  0.00    +0.000 NA
ENDBRANCH  22  24
ENDBRANCH  17  18
ENDBRANCH  15  17
ENDBRANCH   1  15
TORSDOF 7
ENDMDL
MODEL 5
REMARK VINA RESULT:    -6.165      3.364      4.641
REMARK INTER + INTRA:          -9.642
REMARK INTER:                  -8.623
REMARK INTRA:                  -1.020
REMARK UNBOUND:                -1.135
REMARK  Name = 
REMARK  8 active torsions:
REMARK  status: ('A' for Active; 'I' for Inactive)
REMARK    1  A    between atoms: C_1  and  C_2
REMARK    2  A    between atoms: C_2  and  C_3
REMARK    3  A    between atoms: C_2  and  C_15
REMARK    4  A    between atoms: C_3  and  N_4
REMARK    5  A    between atoms: N_4  and  C_5
REMARK    6  A    between atoms: C_8  and  S_9
REMARK    7  A    between atoms: S_9  and  N_10
REMARK    8  A    between atoms: C_19  and  C_20
REMARK                            x       y       z     vdW  Elec       q    Type
REMARK                         _______ _______ _______ _____ _____    ______ ____
ROOT
ATOM      1  N   UNL     1      47.272   6.831  12.670  0.00  0.00    +0.000 N 
ATOM      2  H   UNL     1      47.306   6.282  11.814  0.00  0.00    +0.000 HD
ENDROOT
BRANCH   1   3
ATOM      3  C   UNL     1      47.495   6.039  13.805  0.00  0.00    +0.000 A 
ATOM      4  C   UNL     1      46.891   4.789  14.015  0.00  0.00    +0.000 A 
ATOM      5  C   UNL     1      47.099   4.070  15.195  0.00  0.00    +0.000 A 
ATOM      6  C   UNL     1      47.900   4.612  16.196  0.00  0.00    +0.000 A 
ATOM      7  C   UNL     1      48.477   5.871  16.035  0.00  0.00    +0.000 A 
ATOM      8  C   UNL     1      48.274   6.573  14.843  0.00  0.00    +0.000 A 
BRANCH   6   9
ATOM      9  S   UNL     1      48.155   3.714  17.694  0.00  0.00    +0.000 S 
ATOM     10  O   UNL     1      49.206   2.741  17.497  0.00  0.00    +0.000 OA
ATOM     11  O   UNL     1      48.143   4.628  18.810  0.00  0.00    +0.000 OA
BRANCH   9  12
ATOM     12  N   UNL     1      46.727   2.840  17.796  0.00  0.00    +0.000 NA
ATOM     13  H   UNL     1      46.330   2.925  18.731  0.00  0.00    +0.000 HD
ATOM     14  H   UNL     1      46.095   3.116  17.044  0.00  0.00    +0.000 HD
ENDBRANCH   9  12
ENDBRANCH   6   9
ENDBRANCH   1   3
BRANCH   1  15
ATOM     15  C   UNL     1      46.204   7.811  12.701  0.00  0.00    +0.000 C 
BRANCH  15  17
ATOM     16  C   UNL     1      44.345   8.590  11.070  0.00  0.00    +0.000 C 
ATOM     17  C   UNL     1      45.163   7.484  11.667  0.00  0.00    +0.000 C 
BRANCH  17  18
ATOM     18  C   UNL     1      44.558   6.144  11.772  0.00  0.00    +0.000 A 
ATOM     19  C   UNL     1      43.738   5.809  12.857  0.00  0.00    +0.000 A 
ATOM     20  C   UNL     1      43.208   4.525  12.982  0.00  0.00    +0.000 A 
ATOM     21  C   UNL     1      43.482   3.562  12.012  0.00  0.00    +0.000 A 
ATOM     22  C   UNL     1      44.290   3.885  10.917  0.00  0.00    +0.000 A 
ATOM     23  C   UNL     1      44.832   5.172  10.802  0.00  0.00    +0.000 A 
BRANCH  22  24
ATOM     24  C   UNL     1      44.563   2.901   9.913  0.00  0.00    +0.000 C 
ATOM     25  N   UNL     1      44.780   2.105   9.099  0.00  0.00    +0.000 NA
ENDBRANCH  22  24
ENDBRANCH  17  18
ENDBRANCH  15  17
ENDBRANCH   1  15
TORSDOF 7
ENDMDL
MODEL 6
REMARK VINA RESULT:    -5.917      4.229      7.540
REMARK INTER + INTRA:          -9.300
REMARK INTER:                  -8.658
REMARK INTRA:                  -0.642
REMARK UNBOUND:                -1.135
REMARK  Name = 
REMARK  8 active torsions:
REMARK  status: ('A' for Active; 'I' for Inactive)
REMARK    1  A    between atoms: C_1  and  C_2
REMARK    2  A    between atoms: C_2  and  C_3
REMARK    3  A    between atoms: C_2  and  C_15
REMARK    4  A    between atoms: C_3  and  N_4
REMARK    5  A    between atoms: N_4  and  C_5
REMARK    6  A    between atoms: C_8  and  S_9
REMARK    7  A    between atoms: S_9  and  N_10
REMARK    8  A    between atoms: C_19  and  C_20
REMARK                            x       y       z     vdW  Elec       q    Type
REMARK                         _______ _______ _______ _____ _____    ______ ____
ROOT
ATOM      1  N   UNL     1      47.316   7.481  13.577  0.00  0.00    +0.000 N 
ATOM      2  H   UNL     1      46.897   7.721  14.472  0.00  0.00    +0.000 HD
ENDROOT
BRANCH   1   3
ATOM      3  C   UNL     1      46.543   6.544  12.876  0.00  0.00    +0.000 A 
ATOM      4  C   UNL     1      46.046   5.361  13.445  0.00  0.00    +0.000 A 
ATOM      5  C   UNL     1      45.334   4.430  12.683  0.00  0.00    +0.000 A 
ATOM      6  C   UNL     1      45.135   4.665  11.326  0.00  0.00    +0.000 A 
ATOM      7  C   UNL     1      45.655   5.810  10.722  0.00  0.00    +0.000 A 
ATOM      8  C   UNL     1      46.351   6.741  11.499  0.00  0.00    +0.000 A 
BRANCH   6   9
ATOM      9  S   UNL     1      44.248   3.487  10.355  0.00  0.00    +0.000 S 
ATOM     10  O   UNL     1      45.176   2.526   9.801  0.00  0.00    +0.000 OA
ATOM     11  O   UNL     1      43.048   3.094  11.054  0.00  0.00    +0.000 OA
BRANCH   9  12
ATOM     12  N   UNL     1      43.745   4.440   9.069  0.00  0.00    +0.000 NA
ATOM     13  H   UNL     1      43.105   5.162   9.397  0.00  0.00    +0.000 HD
ATOM     14  H   UNL     1      44.555   4.795   8.560  0.00  0.00    +0.000 HD
ENDBRANCH   9  12
ENDBRANCH   6   9
ENDBRANCH   1   3
BRANCH   1  15
ATOM     15  C   UNL     1      48.754   7.304  13.625  0.00  0.00    +0.000 C 
BRANCH  15  17
ATOM     16  C   UNL     1      50.178   8.907  15.082  0.00  0.00    +0.000 C 
ATOM     17  C   UNL     1      49.286   7.707  14.972  0.00  0.00    +0.000 C 
BRANCH  17  18
ATOM     18  C   UNL     1      49.463   6.612  15.943  0.00  0.00    +0.000 A 
ATOM     19  C   UNL     1      50.686   6.426  16.600  0.00  0.00    +0.000 A 
ATOM     20  C   UNL     1      50.868   5.359  17.480  0.00  0.00    +0.000 A 
ATOM     21  C   UNL     1      49.823   4.471  17.722  0.00  0.00    +0.000 A 
ATOM     22  C   UNL     1      48.593   4.650  17.082  0.00  0.00    +0.000 A 
ATOM     23  C   UNL     1      48.417   5.715  16.189  0.00  0.00    +0.000 A 
BRANCH  22  24
ATOM     24  C   UNL     1      47.512   3.746  17.339  0.00  0.00    +0.000 C 
ATOM     25  N   UNL     1      46.639   3.011  17.543  0.00  0.00    +0.000 NA
ENDBRANCH  22  24
ENDBRANCH  17  18
ENDBRANCH  15  17
ENDBRANCH   1  15
TORSDOF 7
ENDMDL
MODEL 7
REMARK VINA RESULT:    -5.893      4.492      7.796
REMARK INTER + INTRA:          -9.267
REMARK INTER:                  -8.547
REMARK INTRA:                  -0.721
REMARK UNBOUND:                -1.135
REMARK  Name = 
REMARK  8 active torsions:
REMARK  status: ('A' for Active; 'I' for Inactive)
REMARK    1  A    between atoms: C_1  and  C_2
REMARK    2  A    between atoms: C_2  and  C_3
REMARK    3  A    between atoms: C_2  and  C_15
REMARK    4  A    between atoms: C_3  and  N_4
REMARK    5  A    between atoms: N_4  and  C_5
REMARK    6  A    between atoms: C_8  and  S_9
REMARK    7  A    between atoms: S_9  and  N_10
REMARK    8  A    between atoms: C_19  and  C_20
REMARK                            x       y       z     vdW  Elec       q    Type
REMARK                         _______ _______ _______ _____ _____    ______ ____
ROOT
ATOM      1  N   UNL     1      47.359   7.197  13.992  0.00  0.00    +0.000 N 
ATOM      2  H   UNL     1      46.735   7.575  14.700  0.00  0.00    +0.000 HD
ENDROOT
BRANCH   1   3
ATOM      3  C   UNL     1      46.686   6.343  13.108  0.00  0.00    +0.000 A 
ATOM      4  C   UNL     1      46.391   6.673  11.775  0.00  0.00    +0.000 A 
ATOM      5  C   UNL     1      45.660   5.809  10.955  0.00  0.00    +0.000 A 
ATOM      6  C   UNL     1      45.192   4.606  11.474  0.00  0.00    +0.000 A 
ATOM      7  C   UNL     1      45.430   4.269  12.807  0.00  0.00    +0.000 A 
ATOM      8  C   UNL     1      46.176   5.136  13.612  0.00  0.00    +0.000 A 
BRANCH   6   9
ATOM      9  S   UNL     1      44.257   3.515  10.447  0.00  0.00    +0.000 S 
ATOM     10  O   UNL     1      45.145   2.550   9.840  0.00  0.00    +0.000 OA
ATOM     11  O   UNL     1      43.045   3.134  11.130  0.00  0.00    +0.000 OA
BRANCH   9  12
ATOM     12  N   UNL     1      43.789   4.553   9.215  0.00  0.00    +0.000 NA
ATOM     13  H   UNL     1      42.780   4.701   9.246  0.00  0.00    +0.000 HD
ATOM     14  H   UNL     1      44.340   5.410   9.252  0.00  0.00    +0.000 HD
ENDBRANCH   9  12
ENDBRANCH   6   9
ENDBRANCH   1   3
BRANCH   1  15
ATOM     15  C   UNL     1      48.656   6.795  14.500  0.00  0.00    +0.000 C 
BRANCH  15  17
ATOM     16  C   UNL     1      49.011   7.934  16.802  0.00  0.00    +0.000 C 
ATOM     17  C   UNL     1      48.631   6.725  16.001  0.00  0.00    +0.000 C 
BRANCH  17  18
ATOM     18  C   UNL     1      48.883   5.394  16.582  0.00  0.00    +0.000 A 
ATOM     19  C   UNL     1      47.853   4.449  16.687  0.00  0.00    +0.000 A 
ATOM     20  C   UNL     1      48.080   3.209  17.283  0.00  0.00    +0.000 A 
ATOM     21  C   UNL     1      49.346   2.894  17.772  0.00  0.00    +0.000 A 
ATOM     22  C   UNL     1      50.386   3.822  17.665  0.00  0.00    +0.000 A 
ATOM     23  C   UNL     1      50.152   5.072  17.077  0.00  0.00    +0.000 A 
BRANCH  22  24
ATOM     24  C   UNL     1      51.691   3.495  18.155  0.00  0.00    +0.000 C 
ATOM     25  N   UNL     1      52.748   3.235  18.555  0.00  0.00    +0.000 NA
ENDBRANCH  22  24
ENDBRANCH  17  18
ENDBRANCH  15  17
ENDBRANCH   1  15
TORSDOF 7
ENDMDL
MODEL 8
REMARK VINA RESULT:    -5.874      2.361      2.817
REMARK INTER + INTRA:          -9.241
REMARK INTER:                  -8.692
REMARK INTRA:                  -0.550
REMARK UNBOUND:                -1.135
REMARK  Name = 
REMARK  8 active torsions:
REMARK  status: ('A' for Active; 'I' for Inactive)
REMARK    1  A    between atoms: C_1  and  C_2
REMARK    2  A    between atoms: C_2  and  C_3
REMARK    3  A    between atoms: C_2  and  C_15
REMARK    4  A    between atoms: C_3  and  N_4
REMARK    5  A    between atoms: N_4  and  C_5
REMARK    6  A    between atoms: C_8  and  S_9
REMARK    7  A    between atoms: S_9  and  N_10
REMARK    8  A    between atoms: C_19  and  C_20
REMARK                            x       y       z     vdW  Elec       q    Type
REMARK                         _______ _______ _______ _____ _____    ______ ____
ROOT
ATOM      1  N   UNL     1      46.106   4.111  12.738  0.00  0.00    +0.000 N 
ATOM      2  H   UNL     1      46.109   3.102  12.861  0.00  0.00    +0.000 HD
ENDROOT
BRANCH   1   3
ATOM      3  C   UNL     1      46.798   4.762  13.769  0.00  0.00    +0.000 A 
ATOM      4  C   UNL     1      47.524   5.951  13.593  0.00  0.00    +0.000 A 
ATOM      5  C   UNL     1      48.249   6.523  14.641  0.00  0.00    +0.000 A 
ATOM      6  C   UNL     1      48.275   5.891  15.881  0.00  0.00    +0.000 A 
ATOM      7  C   UNL     1      47.600   4.686  16.075  0.00  0.00    +0.000 A 
ATOM      8  C   UNL     1      46.867   4.132  15.022  0.00  0.00    +0.000 A 
BRANCH   6   9
ATOM      9  S   UNL     1      49.200   6.603  17.206  0.00  0.00    +0.000 S 
ATOM     10  O   UNL     1      49.681   5.552  18.074  0.00  0.00    +0.000 OA
ATOM     11  O   UNL     1      50.061   7.639  16.689  0.00  0.00    +0.000 OA
BRANCH   9  12
ATOM     12  N   UNL     1      47.988   7.390  18.060  0.00  0.00    +0.000 NA
ATOM     13  H   UNL     1      47.339   7.838  17.414  0.00  0.00    +0.000 HD
ATOM     14  H   UNL     1      47.550   6.745  18.718  0.00  0.00    +0.000 HD
ENDBRANCH   9  12
ENDBRANCH   6   9
ENDBRANCH   1   3
BRANCH   1  15
ATOM     15  C   UNL     1      44.833   4.651  12.302  0.00  0.00    +0.000 C 
BRANCH  15  17
ATOM     16  C   UNL     1      43.321   2.622  11.736  0.00  0.00    +0.000 C 
ATOM     17  C   UNL     1      44.203   3.745  11.281  0.00  0.00    +0.000 C 
BRANCH  17  18
ATOM     18  C   UNL     1      44.956   3.579  10.025  0.00  0.00    +0.000 A 
ATOM     19  C   UNL     1      45.261   4.683   9.217  0.00  0.00    +0.000 A 
ATOM     20  C   UNL     1      45.929   4.517   8.004  0.00  0.00    +0.000 A 
ATOM     21  C   UNL     1      46.312   3.244   7.589  0.00  0.00    +0.000 A 
ATOM     22  C   UNL     1      46.025   2.134   8.389  0.00  0.00    +0.000 A 
ATOM     23  C   UNL     1      45.342   2.301   9.601  0.00  0.00    +0.000 A 
BRANCH  22  24
ATOM     24  C   UNL     1      46.429   0.825   7.971  0.00  0.00    +0.000 C 
ATOM     25  N   UNL     1      46.752  -0.237   7.635  0.00  0.00    +0.000 NA
ENDBRANCH  22  24
ENDBRANCH  17  18
ENDBRANCH  15  17
ENDBRANCH   1  15
TORSDOF 7
ENDMDL
MODEL 9
REMARK VINA RESULT:    -5.756      4.227      7.641
REMARK INTER + INTRA:          -9.078
REMARK INTER:                  -8.346
REMARK INTRA:                  -0.733
REMARK UNBOUND:                -1.135
REMARK  Name = 
REMARK  8 active torsions:
REMARK  status: ('A' for Active; 'I' for Inactive)
REMARK    1  A    between atoms: C_1  and  C_2
REMARK    2  A    between atoms: C_2  and  C_3
REMARK    3  A    between atoms: C_2  and  C_15
REMARK    4  A    between atoms: C_3  and  N_4
REMARK    5  A    between atoms: N_4  and  C_5
REMARK    6  A    between atoms: C_8  and  S_9
REMARK    7  A    between atoms: S_9  and  N_10
REMARK    8  A    between atoms: C_19  and  C_20
REMARK                            x       y       z     vdW  Elec       q    Type
REMARK                         _______ _______ _______ _____ _____    ______ ____
ROOT
ATOM      1  N   UNL     1      48.434   7.059  13.100  0.00  0.00    +0.000 N 
ATOM      2  H   UNL     1      48.814   7.676  12.386  0.00  0.00    +0.000 HD
ENDROOT
BRANCH   1   3
ATOM      3  C   UNL     1      47.389   6.268  12.602  0.00  0.00    +0.000 A 
ATOM      4  C   UNL     1      46.640   6.594  11.460  0.00  0.00    +0.000 A 
ATOM      5  C   UNL     1      45.566   5.803  11.044  0.00  0.00    +0.000 A 
ATOM      6  C   UNL     1      45.213   4.681  11.788  0.00  0.00    +0.000 A 
ATOM      7  C   UNL     1      45.910   4.356  12.952  0.00  0.00    +0.000 A 
ATOM      8  C   UNL     1      46.992   5.148  13.349  0.00  0.00    +0.000 A 
BRANCH   6   9
ATOM      9  S   UNL     1      43.849   3.685  11.275  0.00  0.00    +0.000 S 
ATOM     10  O   UNL     1      42.624   4.439  11.415  0.00  0.00    +0.000 OA
ATOM     11  O   UNL     1      44.195   2.984  10.062  0.00  0.00    +0.000 OA
BRANCH   9  12
ATOM     12  N   UNL     1      43.820   2.526  12.488  0.00  0.00    +0.000 NA
ATOM     13  H   UNL     1      44.770   2.246  12.728  0.00  0.00    +0.000 HD
ATOM     14  H   UNL     1      43.269   2.862  13.278  0.00  0.00    +0.000 HD
ENDBRANCH   9  12
ENDBRANCH   6   9
ENDBRANCH   1   3
BRANCH   1  15
ATOM     15  C   UNL     1      48.280   7.682  14.399  0.00  0.00    +0.000 C 
BRANCH  15  17
ATOM     16  C   UNL     1      50.819   8.166  14.606  0.00  0.00    +0.000 C 
ATOM     17  C   UNL     1      49.561   7.588  15.181  0.00  0.00    +0.000 C 
BRANCH  17  18
ATOM     18  C   UNL     1      49.673   6.429  16.085  0.00  0.00    +0.000 A 
ATOM     19  C   UNL     1      50.888   6.120  16.710  0.00  0.00    +0.000 A 
ATOM     20  C   UNL     1      51.007   4.995  17.525  0.00  0.00    +0.000 A 
ATOM     21  C   UNL     1      49.904   4.169  17.734  0.00  0.00    +0.000 A 
ATOM     22  C   UNL     1      48.681   4.471  17.127  0.00  0.00    +0.000 A 
ATOM     23  C   UNL     1      48.569   5.595  16.298  0.00  0.00    +0.000 A 
BRANCH  22  24
ATOM     24  C   UNL     1      47.543   3.631  17.351  0.00  0.00    +0.000 C 
ATOM     25  N   UNL     1      46.621   2.953  17.536  0.00  0.00    +0.000 NA
ENDBRANCH  22  24
ENDBRANCH  17  18
ENDBRANCH  15  17
ENDBRANCH   1  15
TORSDOF 7
ENDMDL
