MODEL 1
REMARK VINA RESULT:    -8.560      0.000      0.000
REMARK INTER + INTRA:         -11.667
REMARK INTER:                 -11.562
REMARK INTRA:                  -0.105
REMARK UNBOUND:                -0.105
REMARK  Name = 
REMARK  7 active torsions:
REMARK  status: ('A' for Active; 'I' for Inactive)
REMARK    1  A    between atoms: N_1  and  C_2
REMARK    2  A    between atoms: C_2  and  C_3
REMARK    3  A    between atoms: C_3  and  C_4
REMARK    4  A    between atoms: C_7  and  C_8
REMARK    5  A    between atoms: C_8  and  N_9
REMARK    6  A    between atoms: C_14  and  C_15
REMARK    7  A    between atoms: C_15  and  O_17
REMARK                            x       y       z     vdW  Elec       q    Type
REMARK                         _______ _______ _______ _____ _____    ______ ____
ROOT
ATOM      1  N   UNL     1      44.286   4.679  10.095  0.00  0.00    +0.000 N 
ATOM      2  N   UNL     1      43.432   3.856  10.742  0.00  0.00    +0.000 NA
ATOM      3  N   UNL     1      43.719   2.617  10.366  0.00  0.00    +0.000 NA
ATOM      4  C   UNL     1      44.694   2.683   9.408  0.00  0.00    +0.000 A 
ATOM      5  C   UNL     1      45.425   1.666   8.783  0.00  0.00    +0.000 A 
ATOM      6  C   UNL     1      46.390   2.042   7.838  0.00  0.00    +0.000 A 
ATOM      7  C   UNL     1      46.554   3.381   7.454  0.00  0.00    +0.000 A 
ATOM      8  C   UNL     1      45.844   4.406   8.089  0.00  0.00    +0.000 A 
ATOM      9  C   UNL     1      44.962   4.010   9.099  0.00  0.00    +0.000 A 
ENDROOT
BRANCH   6  10
ATOM     10  C   UNL     1      47.279   1.032   7.223  0.00  0.00    +0.000 C 
ATOM     11  O   UNL     1      48.169   1.311   6.444  0.00  0.00    +0.000 OA
BRANCH  10  12
ATOM     12  O   UNL     1      47.061  -0.219   7.683  0.00  0.00    +0.000 OA
ATOM     13  H   UNL     1      47.654  -0.511   8.403  0.00  0.00    +0.000 HD
ENDBRANCH  10  12
ENDBRANCH   6  10
BRANCH   1  14
ATOM     14  C   UNL     1      44.736   5.898  10.759  0.00  0.00    +0.000 C 
BRANCH  14  18
ATOM     15  C   UNL     1      47.032   5.033  14.342  0.00  0.00    +0.000 A 
ATOM     16  C   UNL     1      45.819   4.376  14.097  0.00  0.00    +0.000 A 
ATOM     17  C   UNL     1      45.101   4.616  12.922  0.00  0.00    +0.000 A 
ATOM     18  C   UNL     1      45.570   5.533  11.972  0.00  0.00    +0.000 A 
ATOM     19  C   UNL     1      46.778   6.200  12.226  0.00  0.00    +0.000 A 
ATOM     20  C   UNL     1      47.501   5.952  13.396  0.00  0.00    +0.000 A 
BRANCH  15  21
ATOM     21  C   UNL     1      47.803   4.799  15.623  0.00  0.00    +0.000 C 
BRANCH  21  22
ATOM     22  C   UNL     1      47.586   3.399  16.213  0.00  0.00    +0.000 C 
BRANCH  22  23
ATOM     23  N   UNL     1      46.729   3.451  17.396  0.00  0.00    +0.000 NA
ATOM     24  H   UNL     1      45.836   3.872  17.147  0.00  0.00    +0.000 HD
ATOM     25  H   UNL     1      47.146   4.064  18.098  0.00  0.00    +0.000 HD
ENDBRANCH  22  23
ENDBRANCH  21  22
ENDBRANCH  15  21
ENDBRANCH  14  18
ENDBRANCH   1  14
TORSDOF 7
ENDMDL
MODEL 2
REMARK VINA RESULT:    -8.269      3.373      6.698
REMARK INTER + INTRA:         -11.274
REMARK INTER:                 -10.776
REMARK INTRA:                  -0.498
REMARK UNBOUND:                -0.105
REMARK  Name = 
REMARK  7 active torsions:
REMARK  status: ('A' for Active; 'I' for Inactive)
REMARK    1  A    between atoms: N_1  and  C_2
REMARK    2  A    between atoms: C_2  and  C_3
REMARK    3  A    between atoms: C_3  and  C_4
REMARK    4  A    between atoms: C_7  and  C_8
REMARK    5  A    between atoms: C_8  and  N_9
REMARK    6  A    between atoms: C_14  and  C_15
REMARK    7  A    between atoms: C_15  and  O_17
REMARK                            x       y       z     vdW  Elec       q    Type
REMARK                         _______ _______ _______ _____ _____    ______ ____
ROOT
ATOM      1  N   UNL     1      43.485   4.073  12.077  0.00  0.00    +0.000 N 
ATOM      2  N   UNL     1      42.606   5.087  11.918  0.00  0.00    +0.000 NA
ATOM      3  N   UNL     1      43.256   6.214  12.180  0.00  0.00    +0.000 NA
ATOM      4  C   UNL     1      44.518   5.886  12.594  0.00  0.00    +0.000 A 
ATOM      5  C   UNL     1      45.625   6.698  12.869  0.00  0.00    +0.000 A 
ATOM      6  C   UNL     1      46.814   6.069  13.263  0.00  0.00    +0.000 A 
ATOM      7  C   UNL     1      46.873   4.684  13.474  0.00  0.00    +0.000 A 
ATOM      8  C   UNL     1      45.779   3.862  13.181  0.00  0.00    +0.000 A 
ATOM      9  C   UNL     1      44.638   4.506  12.692  0.00  0.00    +0.000 A 
ENDROOT
BRANCH   6  10
ATOM     10  C   UNL     1      48.054   6.852  13.458  0.00  0.00    +0.000 C 
ATOM     11  O   UNL     1      48.108   7.858  14.139  0.00  0.00    +0.000 OA
BRANCH  10  12
ATOM     12  O   UNL     1      49.136   6.288  12.881  0.00  0.00    +0.000 OA
ATOM     13  H   UNL     1      49.036   5.347  12.631  0.00  0.00    +0.000 HD
ENDBRANCH  10  12
ENDBRANCH   6  10
BRANCH   1  14
ATOM     14  C   UNL     1      43.365   2.892  11.229  0.00  0.00    +0.000 C 
BRANCH  14  18
ATOM     15  C   UNL     1      45.935   3.168   7.739  0.00  0.00    +0.000 A 
ATOM     16  C   UNL     1      45.288   4.306   8.239  0.00  0.00    +0.000 A 
ATOM     17  C   UNL     1      44.498   4.231   9.391  0.00  0.00    +0.000 A 
ATOM     18  C   UNL     1      44.322   3.012  10.059  0.00  0.00    +0.000 A 
ATOM     19  C   UNL     1      44.960   1.870   9.547  0.00  0.00    +0.000 A 
ATOM     20  C   UNL     1      45.757   1.949   8.403  0.00  0.00    +0.000 A 
BRANCH  15  21
ATOM     21  C   UNL     1      46.771   3.235   6.479  0.00  0.00    +0.000 C 
BRANCH  21  22
ATOM     22  C   UNL     1      48.041   2.378   6.549  0.00  0.00    +0.000 C 
BRANCH  22  23
ATOM     23  N   UNL     1      48.433   1.904   5.223  0.00  0.00    +0.000 NA
ATOM     24  H   UNL     1      48.529   0.890   5.243  0.00  0.00    +0.000 HD
ATOM     25  H   UNL     1      49.354   2.272   4.983  0.00  0.00    +0.000 HD
ENDBRANCH  22  23
ENDBRANCH  21  22
ENDBRANCH  15  21
ENDBRANCH  14  18
ENDBRANCH   1  14
TORSDOF 7
ENDMDL
MODEL 3
REMARK VINA RESULT:    -8.192      1.141      1.290
REMARK INTER + INTRA:         -11.170
REMARK INTER:                 -10.851
REMARK INTRA:                  -0.319
REMARK UNBOUND:                -0.105
REMARK  Name = 
REMARK  7 active torsions:
REMARK  status: ('A' for Active; 'I' for Inactive)
REMARK    1  A    between atoms: N_1  and  C_2
REMARK    2  A    between atoms: C_2  and  C_3
REMARK    3  A    between atoms: C_3  and  C_4
REMARK    4  A    between atoms: C_7  and  C_8
REMARK    5  A    between atoms: C_8  and  N_9
REMARK    6  A    between atoms: C_14  and  C_15
REMARK    7  A    between atoms: C_15  and  O_17
REMARK                            x       y       z     vdW  Elec       q    Type
REMARK                         _______ _______ _______ _____ _____    ______ ____
ROOT
ATOM      1  N   UNL     1      44.062   4.655  10.123  0.00  0.00    +0.000 N 
ATOM      2  N   UNL     1      43.295   3.810  10.846  0.00  0.00    +0.000 NA
ATOM      3  N   UNL     1      43.664   2.575  10.529  0.00  0.00    +0.000 NA
ATOM      4  C   UNL     1      44.600   2.658   9.534  0.00  0.00    +0.000 A 
ATOM      5  C   UNL     1      45.386   1.664   8.940  0.00  0.00    +0.000 A 
ATOM      6  C   UNL     1      46.288   2.055   7.942  0.00  0.00    +0.000 A 
ATOM      7  C   UNL     1      46.337   3.378   7.478  0.00  0.00    +0.000 A 
ATOM      8  C   UNL     1      45.571   4.382   8.079  0.00  0.00    +0.000 A 
ATOM      9  C   UNL     1      44.755   3.982   9.142  0.00  0.00    +0.000 A 
ENDROOT
BRANCH   6  10
ATOM     10  C   UNL     1      47.231   1.080   7.352  0.00  0.00    +0.000 C 
ATOM     11  O   UNL     1      48.167   1.399   6.643  0.00  0.00    +0.000 OA
BRANCH  10  12
ATOM     12  O   UNL     1      47.004  -0.190   7.752  0.00  0.00    +0.000 OA
ATOM     13  H   UNL     1      46.141  -0.566   7.488  0.00  0.00    +0.000 HD
ENDBRANCH  10  12
ENDBRANCH   6  10
BRANCH   1  14
ATOM     14  C   UNL     1      44.439   5.941  10.701  0.00  0.00    +0.000 C 
BRANCH  14  18
ATOM     15  C   UNL     1      47.237   5.492  13.991  0.00  0.00    +0.000 A 
ATOM     16  C   UNL     1      46.025   4.790  13.987  0.00  0.00    +0.000 A 
ATOM     17  C   UNL     1      45.142   4.895  12.907  0.00  0.00    +0.000 A 
ATOM     18  C   UNL     1      45.445   5.718  11.814  0.00  0.00    +0.000 A 
ATOM     19  C   UNL     1      46.654   6.431  11.827  0.00  0.00    +0.000 A 
ATOM     20  C   UNL     1      47.539   6.318  12.902  0.00  0.00    +0.000 A 
BRANCH  15  21
ATOM     21  C   UNL     1      48.186   5.405  15.167  0.00  0.00    +0.000 C 
BRANCH  21  22
ATOM     22  C   UNL     1      48.950   6.709  15.427  0.00  0.00    +0.000 C 
BRANCH  22  23
ATOM     23  N   UNL     1      48.192   7.601  16.303  0.00  0.00    +0.000 NA
ATOM     24  H   UNL     1      48.560   7.535  17.251  0.00  0.00    +0.000 HD
ATOM     25  H   UNL     1      47.221   7.290  16.355  0.00  0.00    +0.000 HD
ENDBRANCH  22  23
ENDBRANCH  21  22
ENDBRANCH  15  21
ENDBRANCH  14  18
ENDBRANCH   1  14
TORSDOF 7
ENDMDL
MODEL 4
REMARK VINA RESULT:    -7.712      4.214      7.413
REMARK INTER + INTRA:         -10.522
REMARK INTER:                  -9.945
REMARK INTRA:                  -0.577
REMARK UNBOUND:                -0.105
REMARK  Name = 
REMARK  7 active torsions:
REMARK  status: ('A' for Active; 'I' for Inactive)
REMARK    1  A    between atoms: N_1  and  C_2
REMARK    2  A    between atoms: C_2  and  C_3
REMARK    3  A    between atoms: C_3  and  C_4
REMARK    4  A    between atoms: C_7  and  C_8
REMARK    5  A    between atoms: C_8  and  N_9
REMARK    6  A    between atoms: C_14  and  C_15
REMARK    7  A    between atoms: C_15  and  O_17
REMARK                            x       y       z     vdW  Elec       q    Type
REMARK                         _______ _______ _______ _____ _____    ______ ____
ROOT
ATOM      1  N   UNL     1      45.993   4.396  12.483  0.00  0.00    +0.000 N 
ATOM      2  N   UNL     1      46.125   3.381  13.365  0.00  0.00    +0.000 NA
ATOM      3  N   UNL     1      46.807   3.849  14.403  0.00  0.00    +0.000 NA
ATOM      4  C   UNL     1      47.178   5.134  14.118  0.00  0.00    +0.000 A 
ATOM      5  C   UNL     1      47.799   6.101  14.918  0.00  0.00    +0.000 A 
ATOM      6  C   UNL     1      48.043   7.359  14.351  0.00  0.00    +0.000 A 
ATOM      7  C   UNL     1      47.769   7.617  12.999  0.00  0.00    +0.000 A 
ATOM      8  C   UNL     1      47.130   6.666  12.198  0.00  0.00    +0.000 A 
ATOM      9  C   UNL     1      46.806   5.456  12.818  0.00  0.00    +0.000 A 
ENDROOT
BRANCH   6  10
ATOM     10  C   UNL     1      48.589   8.464  15.170  0.00  0.00    +0.000 C 
ATOM     11  O   UNL     1      49.779   8.683  15.287  0.00  0.00    +0.000 OA
BRANCH  10  12
ATOM     12  O   UNL     1      47.633   9.257  15.698  0.00  0.00    +0.000 OA
ATOM     13  H   UNL     1      47.927  10.152  15.960  0.00  0.00    +0.000 HD
ENDBRANCH  10  12
ENDBRANCH   6  10
BRANCH   1  14
ATOM     14  C   UNL     1      44.784   4.475  11.669  0.00  0.00    +0.000 C 
BRANCH  14  18
ATOM     15  C   UNL     1      45.926   3.252   7.661  0.00  0.00    +0.000 A 
ATOM     16  C   UNL     1      45.437   2.314   8.580  0.00  0.00    +0.000 A 
ATOM     17  C   UNL     1      45.024   2.711   9.856  0.00  0.00    +0.000 A 
ATOM     18  C   UNL     1      45.105   4.054  10.248  0.00  0.00    +0.000 A 
ATOM     19  C   UNL     1      45.608   4.989   9.330  0.00  0.00    +0.000 A 
ATOM     20  C   UNL     1      46.011   4.593   8.053  0.00  0.00    +0.000 A 
BRANCH  15  21
ATOM     21  C   UNL     1      46.399   2.827   6.288  0.00  0.00    +0.000 C 
BRANCH  21  22
ATOM     22  C   UNL     1      47.305   1.589   6.316  0.00  0.00    +0.000 C 
BRANCH  22  23
ATOM     23  N   UNL     1      48.619   1.882   5.746  0.00  0.00    +0.000 NA
ATOM     24  H   UNL     1      48.547   2.693   5.134  0.00  0.00    +0.000 HD
ATOM     25  H   UNL     1      48.919   1.106   5.155  0.00  0.00    +0.000 HD
ENDBRANCH  22  23
ENDBRANCH  21  22
ENDBRANCH  15  21
ENDBRANCH  14  18
ENDBRANCH   1  14
TORSDOF 7
ENDMDL
MODEL 5
REMARK VINA RESULT:    -6.531      3.760      6.048
REMARK INTER + INTRA:          -8.927
REMARK INTER:                  -8.489
REMARK INTRA:                  -0.437
REMARK UNBOUND:                -0.105
REMARK  Name = 
REMARK  7 active torsions:
REMARK  status: ('A' for Active; 'I' for Inactive)
REMARK    1  A    between atoms: N_1  and  C_2
REMARK    2  A    between atoms: C_2  and  C_3
REMARK    3  A    between atoms: C_3  and  C_4
REMARK    4  A    between atoms: C_7  and  C_8
REMARK    5  A    between atoms: C_8  and  N_9
REMARK    6  A    between atoms: C_14  and  C_15
REMARK    7  A    between atoms: C_15  and  O_17
REMARK                            x       y       z     vdW  Elec       q    Type
REMARK                         _______ _______ _______ _____ _____    ______ ____
ROOT
ATOM      1  N   UNL     1      47.631   4.969  14.958  0.00  0.00    +0.000 N 
ATOM      2  N   UNL     1      48.226   6.172  14.804  0.00  0.00    +0.000 NA
ATOM      3  N   UNL     1      47.715   6.727  13.712  0.00  0.00    +0.000 NA
ATOM      4  C   UNL     1      46.867   5.820  13.137  0.00  0.00    +0.000 A 
ATOM      5  C   UNL     1      45.994   5.954  12.051  0.00  0.00    +0.000 A 
ATOM      6  C   UNL     1      45.222   4.839  11.693  0.00  0.00    +0.000 A 
ATOM      7  C   UNL     1      45.385   3.602  12.333  0.00  0.00    +0.000 A 
ATOM      8  C   UNL     1      46.239   3.465  13.433  0.00  0.00    +0.000 A 
ATOM      9  C   UNL     1      46.920   4.618  13.832  0.00  0.00    +0.000 A 
ENDROOT
BRANCH   6  10
ATOM     10  C   UNL     1      44.197   4.940  10.632  0.00  0.00    +0.000 C 
ATOM     11  O   UNL     1      43.003   4.971  10.858  0.00  0.00    +0.000 OA
BRANCH  10  12
ATOM     12  O   UNL     1      44.723   5.086   9.396  0.00  0.00    +0.000 OA
ATOM     13  H   UNL     1      44.589   5.963   8.984  0.00  0.00    +0.000 HD
ENDBRANCH  10  12
ENDBRANCH   6  10
BRANCH   1  14
ATOM     14  C   UNL     1      47.395   4.462  16.305  0.00  0.00    +0.000 C 
BRANCH  14  18
ATOM     15  C   UNL     1      51.161   2.775  17.658  0.00  0.00    +0.000 A 
ATOM     16  C   UNL     1      50.866   4.127  17.877  0.00  0.00    +0.000 A 
ATOM     17  C   UNL     1      49.635   4.664  17.486  0.00  0.00    +0.000 A 
ATOM     18  C   UNL     1      48.677   3.863  16.851  0.00  0.00    +0.000 A 
ATOM     19  C   UNL     1      48.980   2.512  16.619  0.00  0.00    +0.000 A 
ATOM     20  C   UNL     1      50.206   1.975  17.020  0.00  0.00    +0.000 A 
BRANCH  15  21
ATOM     21  C   UNL     1      52.500   2.193  18.055  0.00  0.00    +0.000 C 
BRANCH  21  22
ATOM     22  C   UNL     1      52.794   0.842  17.390  0.00  0.00    +0.000 C 
BRANCH  22  23
ATOM     23  N   UNL     1      52.732  -0.249  18.361  0.00  0.00    +0.000 NA
ATOM     24  H   UNL     1      52.681  -1.138  17.865  0.00  0.00    +0.000 HD
ATOM     25  H   UNL     1      51.871  -0.179  18.905  0.00  0.00    +0.000 HD
ENDBRANCH  22  23
ENDBRANCH  21  22
ENDBRANCH  15  21
ENDBRANCH  14  18
ENDBRANCH   1  14
TORSDOF 7
ENDMDL
MODEL 6
REMARK VINA RESULT:    -6.461      2.202      2.943
REMARK INTER + INTRA:          -8.832
REMARK INTER:                  -8.729
REMARK INTRA:                  -0.103
REMARK UNBOUND:                -0.105
REMARK  Name = 
REMARK  7 active torsions:
REMARK  status: ('A' for Active; 'I' for Inactive)
REMARK    1  A    between atoms: N_1  and  C_2
REMARK    2  A    between atoms: C_2  and  C_3
REMARK    3  A    between atoms: C_3  and  C_4
REMARK    4  A    between atoms: C_7  and  C_8
REMARK    5  A    between atoms: C_8  and  N_9
REMARK    6  A    between atoms: C_14  and  C_15
REMARK    7  A    between atoms: C_15  and  O_17
REMARK                            x       y       z     vdW  Elec       q    Type
REMARK                         _______ _______ _______ _____ _____    ______ ____
ROOT
ATOM      1  N   UNL     1      43.365   5.127  11.193  0.00  0.00    +0.000 N 
ATOM      2  N   UNL     1      43.064   4.357  12.262  0.00  0.00    +0.000 NA
ATOM      3  N   UNL     1      43.595   3.160  12.046  0.00  0.00    +0.000 NA
ATOM      4  C   UNL     1      44.146   3.164  10.794  0.00  0.00    +0.000 A 
ATOM      5  C   UNL     1      44.926   2.203  10.141  0.00  0.00    +0.000 A 
ATOM      6  C   UNL     1      45.375   2.496   8.846  0.00  0.00    +0.000 A 
ATOM      7  C   UNL     1      44.978   3.666   8.182  0.00  0.00    +0.000 A 
ATOM      8  C   UNL     1      44.217   4.643   8.834  0.00  0.00    +0.000 A 
ATOM      9  C   UNL     1      43.869   4.369  10.160  0.00  0.00    +0.000 A 
ENDROOT
BRANCH   6  10
ATOM     10  C   UNL     1      46.297   1.579   8.140  0.00  0.00    +0.000 C 
ATOM     11  O   UNL     1      46.219   0.368   8.213  0.00  0.00    +0.000 OA
BRANCH  10  12
ATOM     12  O   UNL     1      47.173   2.220   7.336  0.00  0.00    +0.000 OA
ATOM     13  H   UNL     1      47.122   3.196   7.355  0.00  0.00    +0.000 HD
ENDBRANCH  10  12
ENDBRANCH   6  10
BRANCH   1  14
ATOM     14  C   UNL     1      43.592   6.555  11.390  0.00  0.00    +0.000 C 
BRANCH  14  18
ATOM     15  C   UNL     1      47.490   7.215  13.187  0.00  0.00    +0.000 A 
ATOM     16  C   UNL     1      46.506   8.212  13.232  0.00  0.00    +0.000 A 
ATOM     17  C   UNL     1      45.234   7.986  12.697  0.00  0.00    +0.000 A 
ATOM     18  C   UNL     1      44.921   6.764  12.089  0.00  0.00    +0.000 A 
ATOM     19  C   UNL     1      45.913   5.771  12.032  0.00  0.00    +0.000 A 
ATOM     20  C   UNL     1      47.180   5.994  12.576  0.00  0.00    +0.000 A 
BRANCH  15  21
ATOM     21  C   UNL     1      48.876   7.459  13.741  0.00  0.00    +0.000 C 
BRANCH  21  22
ATOM     22  C   UNL     1      49.786   8.232  12.777  0.00  0.00    +0.000 C 
BRANCH  22  23
ATOM     23  N   UNL     1      50.604   7.322  11.978  0.00  0.00    +0.000 NA
ATOM     24  H   UNL     1      49.998   6.666  11.488  0.00  0.00    +0.000 HD
ATOM     25  H   UNL     1      51.194   6.758  12.592  0.00  0.00    +0.000 HD
ENDBRANCH  22  23
ENDBRANCH  21  22
ENDBRANCH  15  21
ENDBRANCH  14  18
ENDBRANCH   1  14
TORSDOF 7
ENDMDL
MODEL 7
REMARK VINA RESULT:    -6.396      4.451      7.839
REMARK INTER + INTRA:          -8.745
REMARK INTER:                  -8.171
REMARK INTRA:                  -0.573
REMARK UNBOUND:                -0.105
REMARK  Name = 
REMARK  7 active torsions:
REMARK  status: ('A' for Active; 'I' for Inactive)
REMARK    1  A    between atoms: N_1  and  C_2
REMARK    2  A    between atoms: C_2  and  C_3
REMARK    3  A    between atoms: C_3  and  C_4
REMARK    4  A    between atoms: C_7  and  C_8
REMARK    5  A    between atoms: C_8  and  N_9
REMARK    6  A    between atoms: C_14  and  C_15
REMARK    7  A    between atoms: C_15  and  O_17
REMARK                            x       y       z     vdW  Elec       q    Type
REMARK                         _______ _______ _______ _____ _____    ______ ____
ROOT
ATOM      1  N   UNL     1      46.608   5.039  13.836  0.00  0.00    +0.000 N 
ATOM      2  N   UNL     1      46.865   4.035  14.703  0.00  0.00    +0.000 NA
ATOM      3  N   UNL     1      47.753   4.490  15.578  0.00  0.00    +0.000 NA
ATOM      4  C   UNL     1      48.115   5.752  15.193  0.00  0.00    +0.000 A 
ATOM      5  C   UNL     1      48.917   6.703  15.834  0.00  0.00    +0.000 A 
ATOM      6  C   UNL     1      49.099   7.939  15.198  0.00  0.00    +0.000 A 
ATOM      7  C   UNL     1      48.581   8.185  13.918  0.00  0.00    +0.000 A 
ATOM      8  C   UNL     1      47.760   7.250  13.279  0.00  0.00    +0.000 A 
ATOM      9  C   UNL     1      47.513   6.067  13.982  0.00  0.00    +0.000 A 
ENDROOT
BRANCH   6  10
ATOM     10  C   UNL     1      49.838   9.032  15.868  0.00  0.00    +0.000 C 
ATOM     11  O   UNL     1      49.320   9.807  16.648  0.00  0.00    +0.000 OA
BRANCH  10  12
ATOM     12  O   UNL     1      51.161   9.024  15.597  0.00  0.00    +0.000 OA
ATOM     13  H   UNL     1      51.431   9.534  14.807  0.00  0.00    +0.000 HD
ENDBRANCH  10  12
ENDBRANCH   6  10
BRANCH   1  14
ATOM     14  C   UNL     1      45.269   5.158  13.267  0.00  0.00    +0.000 C 
BRANCH  14  18
ATOM     15  C   UNL     1      45.102   3.849   9.129  0.00  0.00    +0.000 A 
ATOM     16  C   UNL     1      45.553   5.135   9.452  0.00  0.00    +0.000 A 
ATOM     17  C   UNL     1      45.654   5.545  10.786  0.00  0.00    +0.000 A 
ATOM     18  C   UNL     1      45.289   4.682  11.827  0.00  0.00    +0.000 A 
ATOM     19  C   UNL     1      44.823   3.398  11.501  0.00  0.00    +0.000 A 
ATOM     20  C   UNL     1      44.732   2.987  10.169  0.00  0.00    +0.000 A 
BRANCH  15  21
ATOM     21  C   UNL     1      44.965   3.407   7.689  0.00  0.00    +0.000 C 
BRANCH  21  22
ATOM     22  C   UNL     1      46.297   2.980   7.057  0.00  0.00    +0.000 C 
BRANCH  22  23
ATOM     23  N   UNL     1      46.890   4.071   6.285  0.00  0.00    +0.000 NA
ATOM     24  H   UNL     1      46.187   4.463   5.661  0.00  0.00    +0.000 HD
ATOM     25  H   UNL     1      47.630   3.706   5.685  0.00  0.00    +0.000 HD
ENDBRANCH  22  23
ENDBRANCH  21  22
ENDBRANCH  15  21
ENDBRANCH  14  18
ENDBRANCH   1  14
TORSDOF 7
ENDMDL
MODEL 8
REMARK VINA RESULT:    -6.145      4.434      7.336
REMARK INTER + INTRA:          -8.405
REMARK INTER:                  -7.782
REMARK INTRA:                  -0.623
REMARK UNBOUND:                -0.105
REMARK  Name = 
REMARK  7 active torsions:
REMARK  status: ('A' for Active; 'I' for Inactive)
REMARK    1  A    between atoms: N_1  and  C_2
REMARK    2  A    between atoms: C_2  and  C_3
REMARK    3  A    between atoms: C_3  and  C_4
REMARK    4  A    between atoms: C_7  and  C_8
REMARK    5  A    between atoms: C_8  and  N_9
REMARK    6  A    between atoms: C_14  and  C_15
REMARK    7  A    between atoms: C_15  and  O_17
REMARK                            x       y       z     vdW  Elec       q    Type
REMARK                         _______ _______ _______ _____ _____    ______ ____
ROOT
ATOM      1  N   UNL     1      47.273   6.176  13.207  0.00  0.00    +0.000 N 
ATOM      2  N   UNL     1      47.612   5.556  14.358  0.00  0.00    +0.000 NA
ATOM      3  N   UNL     1      48.740   6.110  14.786  0.00  0.00    +0.000 NA
ATOM      4  C   UNL     1      49.149   7.014  13.843  0.00  0.00    +0.000 A 
ATOM      5  C   UNL     1      50.197   7.940  13.866  0.00  0.00    +0.000 A 
ATOM      6  C   UNL     1      50.367   8.763  12.744  0.00  0.00    +0.000 A 
ATOM      7  C   UNL     1      49.580   8.601  11.594  0.00  0.00    +0.000 A 
ATOM      8  C   UNL     1      48.516   7.692  11.569  0.00  0.00    +0.000 A 
ATOM      9  C   UNL     1      48.306   6.958  12.740  0.00  0.00    +0.000 A 
ENDROOT
BRANCH   6  10
ATOM     10  C   UNL     1      51.379   9.841  12.743  0.00  0.00    +0.000 C 
ATOM     11  O   UNL     1      52.502   9.704  13.190  0.00  0.00    +0.000 OA
BRANCH  10  12
ATOM     12  O   UNL     1      50.963  10.962  12.116  0.00  0.00    +0.000 OA
ATOM     13  H   UNL     1      50.565  10.826  11.233  0.00  0.00    +0.000 HD
ENDBRANCH  10  12
ENDBRANCH   6  10
BRANCH   1  14
ATOM     14  C   UNL     1      45.861   6.353  12.886  0.00  0.00    +0.000 C 
BRANCH  14  18
ATOM     15  C   UNL     1      44.923   3.423   9.821  0.00  0.00    +0.000 A 
ATOM     16  C   UNL     1      44.813   3.094  11.179  0.00  0.00    +0.000 A 
ATOM     17  C   UNL     1      45.068   4.049  12.169  0.00  0.00    +0.000 A 
ATOM     18  C   UNL     1      45.455   5.350  11.824  0.00  0.00    +0.000 A 
ATOM     19  C   UNL     1      45.578   5.673  10.463  0.00  0.00    +0.000 A 
ATOM     20  C   UNL     1      45.314   4.722   9.475  0.00  0.00    +0.000 A 
BRANCH  15  21
ATOM     21  C   UNL     1      44.674   2.389   8.745  0.00  0.00    +0.000 C 
BRANCH  21  22
ATOM     22  C   UNL     1      45.921   1.567   8.394  0.00  0.00    +0.000 C 
BRANCH  22  23
ATOM     23  N   UNL     1      46.696   2.208   7.333  0.00  0.00    +0.000 NA
ATOM     24  H   UNL     1      47.064   1.494   6.707  0.00  0.00    +0.000 HD
ATOM     25  H   UNL     1      47.507   2.679   7.735  0.00  0.00    +0.000 HD
ENDBRANCH  22  23
ENDBRANCH  21  22
ENDBRANCH  15  21
ENDBRANCH  14  18
ENDBRANCH   1  14
TORSDOF 7
ENDMDL
MODEL 9
REMARK VINA RESULT:    -5.894      3.958      5.648
REMARK INTER + INTRA:          -8.065
REMARK INTER:                  -7.463
REMARK INTRA:                  -0.602
REMARK UNBOUND:                -0.105
REMARK  Name = 
REMARK  7 active torsions:
REMARK  status: ('A' for Active; 'I' for Inactive)
REMARK    1  A    between atoms: N_1  and  C_2
REMARK    2  A    between atoms: C_2  and  C_3
REMARK    3  A    between atoms: C_3  and  C_4
REMARK    4  A    between atoms: C_7  and  C_8
REMARK    5  A    between atoms: C_8  and  N_9
REMARK    6  A    between atoms: C_14  and  C_15
REMARK    7  A    between atoms: C_15  and  O_17
REMARK                            x       y       z     vdW  Elec       q    Type
REMARK                         _______ _______ _______ _____ _____    ______ ____
ROOT
ATOM      1  N   UNL     1      48.075   6.641  13.773  0.00  0.00    +0.000 N 
ATOM      2  N   UNL     1      48.706   7.357  12.816  0.00  0.00    +0.000 NA
ATOM      3  N   UNL     1      47.995   7.236  11.703  0.00  0.00    +0.000 NA
ATOM      4  C   UNL     1      46.970   6.364  11.950  0.00  0.00    +0.000 A 
ATOM      5  C   UNL     1      45.878   5.996  11.155  0.00  0.00    +0.000 A 
ATOM      6  C   UNL     1      44.962   5.079  11.689  0.00  0.00    +0.000 A 
ATOM      7  C   UNL     1      45.178   4.472  12.935  0.00  0.00    +0.000 A 
ATOM      8  C   UNL     1      46.254   4.850  13.746  0.00  0.00    +0.000 A 
ATOM      9  C   UNL     1      47.094   5.841  13.230  0.00  0.00    +0.000 A 
ENDROOT
BRANCH   6  10
ATOM     10  C   UNL     1      43.726   4.731  10.954  0.00  0.00    +0.000 C 
ATOM     11  O   UNL     1      43.344   3.588  10.793  0.00  0.00    +0.000 OA
BRANCH  10  12
ATOM     12  O   UNL     1      43.018   5.813  10.562  0.00  0.00    +0.000 OA
ATOM     13  H   UNL     1      42.105   5.865  10.909  0.00  0.00    +0.000 HD
ENDBRANCH  10  12
ENDBRANCH   6  10
BRANCH   1  14
ATOM     14  C   UNL     1      48.125   7.106  15.155  0.00  0.00    +0.000 C 
BRANCH  14  18
ATOM     15  C   UNL     1      50.750   4.685  17.626  0.00  0.00    +0.000 A 
ATOM     16  C   UNL     1      49.410   4.320  17.440  0.00  0.00    +0.000 A 
ATOM     17  C   UNL     1      48.574   5.070  16.607  0.00  0.00    +0.000 A 
ATOM     18  C   UNL     1      49.054   6.213  15.954  0.00  0.00    +0.000 A 
ATOM     19  C   UNL     1      50.394   6.584  16.153  0.00  0.00    +0.000 A 
ATOM     20  C   UNL     1      51.231   5.828  16.978  0.00  0.00    +0.000 A 
BRANCH  15  21
ATOM     21  C   UNL     1      51.655   3.893  18.546  0.00  0.00    +0.000 C 
BRANCH  21  22
ATOM     22  C   UNL     1      52.352   2.719  17.846  0.00  0.00    +0.000 C 
BRANCH  22  23
ATOM     23  N   UNL     1      51.643   1.464  18.087  0.00  0.00    +0.000 NA
ATOM     24  H   UNL     1      50.701   1.530  17.704  0.00  0.00    +0.000 HD
ATOM     25  H   UNL     1      51.531   1.318  19.091  0.00  0.00    +0.000 HD
ENDBRANCH  22  23
ENDBRANCH  21  22
ENDBRANCH  15  21
ENDBRANCH  14  18
ENDBRANCH   1  14
TORSDOF 7
ENDMDL
