MODEL 1
REMARK VINA RESULT:    -8.284      0.000      0.000
REMARK INTER + INTRA:         -12.151
REMARK INTER:                 -11.190
REMARK INTRA:                  -0.961
REMARK UNBOUND:                -0.961
REMARK  Name = 
REMARK  6 active torsions:
REMARK  status: ('A' for Active; 'I' for Inactive)
REMARK    1  A    between atoms: C_2  and  C_25
REMARK    2  A    between atoms: N_3  and  C_4
REMARK    3  A    between atoms: C_4  and  C_5
REMARK    4  A    between atoms: C_8  and  C_9
REMARK    5  A    between atoms: C_9  and  N_10
REMARK    6  A    between atoms: C_11  and  C_13
REMARK                            x       y       z     vdW  Elec       q    Type
REMARK                         _______ _______ _______ _____ _____    ______ ____
ROOT
ATOM      1  C   UNL     1      44.826   5.983  11.173  0.00  0.00    +0.000 A 
ATOM      2  C   UNL     1      44.416   7.274  11.505  0.00  0.00    +0.000 A 
ATOM      3  C   UNL     1      45.229   8.051  12.332  0.00  0.00    +0.000 A 
ATOM      4  C   UNL     1      46.441   7.535  12.794  0.00  0.00    +0.000 A 
ATOM      5  C   UNL     1      46.765   6.237  12.414  0.00  0.00    +0.000 A 
ATOM      6  N   UNL     1      45.998   5.462  11.611  0.00  0.00    +0.000 NA
ENDROOT
BRANCH   1   7
ATOM      7  C   UNL     1      43.971   5.121  10.275  0.00  0.00    +0.000 C 
BRANCH   7  10
ATOM      8  O   UNL     1      44.567   2.378   9.946  0.00  0.00    +0.000 OA
ATOM      9  C   UNL     1      45.006   3.190   9.141  0.00  0.00    +0.000 C 
ATOM     10  N   UNL     1      44.737   4.538   9.194  0.00  0.00    +0.000 N 
ATOM     11  H   UNL     1      45.255   5.150   8.568  0.00  0.00    +0.000 HD
BRANCH   9  12
ATOM     12  C   UNL     1      45.870   2.753   8.008  0.00  0.00    +0.000 A 
ATOM     13  C   UNL     1      46.406   1.473   8.008  0.00  0.00    +0.000 A 
ATOM     14  N   UNL     1      47.162   1.003   6.983  0.00  0.00    +0.000 NA
ATOM     15  C   UNL     1      47.355   1.870   5.963  0.00  0.00    +0.000 A 
ATOM     16  C   UNL     1      46.825   3.153   5.966  0.00  0.00    +0.000 A 
ATOM     17  N   UNL     1      46.070   3.633   6.984  0.00  0.00    +0.000 NA
ENDBRANCH   9  12
ENDBRANCH   7  10
ENDBRANCH   1   7
BRANCH   4  18
ATOM     18  C   UNL     1      47.349   8.319  13.697  0.00  0.00    +0.000 C 
BRANCH  18  19
ATOM     19  N   UNL     1      47.702   7.567  14.871  0.00  0.00    +0.000 N 
ATOM     20  C   UNL     1      48.918   6.939  14.979  0.00  0.00    +0.000 C 
ATOM     21  O   UNL     1      49.779   7.043  14.109  0.00  0.00    +0.000 OA
ATOM     22  H   UNL     1      46.946   7.282  15.488  0.00  0.00    +0.000 HD
BRANCH  20  23
ATOM     23  C   UNL     1      49.165   6.186  16.216  0.00  0.00    +0.000 A 
ATOM     24  C   UNL     1      50.184   6.580  17.071  0.00  0.00    +0.000 A 
ATOM     25  S   UNL     1      50.297   5.633  18.484  0.00  0.00    +0.000 S 
ATOM     26  C   UNL     1      49.023   4.626  17.978  0.00  0.00    +0.000 A 
ATOM     27  N   UNL     1      48.619   3.571  18.736  0.00  0.00    +0.000 NA
ATOM     28  C   UNL     1      47.668   2.870  18.214  0.00  0.00    +0.000 A 
ATOM     29  N   UNL     1      47.080   3.133  17.003  0.00  0.00    +0.000 N 
ATOM     30  C   UNL     1      47.431   4.208  16.220  0.00  0.00    +0.000 A 
ATOM     31  O   UNL     1      46.850   4.446  15.166  0.00  0.00    +0.000 OA
ATOM     32  C   UNL     1      48.507   5.019  16.755  0.00  0.00    +0.000 A 
ATOM     33  H   UNL     1      46.333   2.551  16.655  0.00  0.00    +0.000 HD
ENDBRANCH  20  23
ENDBRANCH  18  19
ENDBRANCH   4  18
TORSDOF 6
ENDMDL
MODEL 2
REMARK VINA RESULT:    -7.573      1.350      1.619
REMARK INTER + INTRA:         -11.190
REMARK INTER:                 -10.215
REMARK INTRA:                  -0.974
REMARK UNBOUND:                -0.961
REMARK  Name = 
REMARK  6 active torsions:
REMARK  status: ('A' for Active; 'I' for Inactive)
REMARK    1  A    between atoms: C_2  and  C_25
REMARK    2  A    between atoms: N_3  and  C_4
REMARK    3  A    between atoms: C_4  and  C_5
REMARK    4  A    between atoms: C_8  and  C_9
REMARK    5  A    between atoms: C_9  and  N_10
REMARK    6  A    between atoms: C_11  and  C_13
REMARK                            x       y       z     vdW  Elec       q    Type
REMARK                         _______ _______ _______ _____ _____    ______ ____
ROOT
ATOM      1  C   UNL     1      44.965   6.337  11.656  0.00  0.00    +0.000 A 
ATOM      2  C   UNL     1      44.766   7.716  11.709  0.00  0.00    +0.000 A 
ATOM      3  C   UNL     1      45.636   8.497  12.473  0.00  0.00    +0.000 A 
ATOM      4  C   UNL     1      46.694   7.892  13.153  0.00  0.00    +0.000 A 
ATOM      5  C   UNL     1      46.811   6.510  13.044  0.00  0.00    +0.000 A 
ATOM      6  N   UNL     1      45.986   5.728  12.309  0.00  0.00    +0.000 NA
ENDROOT
BRANCH   1   7
ATOM      7  C   UNL     1      44.046   5.467  10.832  0.00  0.00    +0.000 C 
BRANCH   7  10
ATOM      8  O   UNL     1      43.752   2.719  10.239  0.00  0.00    +0.000 OA
ATOM      9  C   UNL     1      44.577   3.382   9.623  0.00  0.00    +0.000 C 
ATOM     10  N   UNL     1      44.763   4.733   9.812  0.00  0.00    +0.000 N 
ATOM     11  H   UNL     1      45.562   5.168   9.358  0.00  0.00    +0.000 HD
BRANCH   9  12
ATOM     12  C   UNL     1      45.443   2.754   8.587  0.00  0.00    +0.000 A 
ATOM     13  C   UNL     1      45.911   3.519   7.529  0.00  0.00    +0.000 A 
ATOM     14  N   UNL     1      46.741   3.014   6.580  0.00  0.00    +0.000 NA
ATOM     15  C   UNL     1      47.077   1.714   6.739  0.00  0.00    +0.000 A 
ATOM     16  C   UNL     1      46.603   0.946   7.794  0.00  0.00    +0.000 A 
ATOM     17  N   UNL     1      45.774   1.439   8.746  0.00  0.00    +0.000 NA
ENDBRANCH   9  12
ENDBRANCH   7  10
ENDBRANCH   1   7
BRANCH   4  18
ATOM     18  C   UNL     1      47.651   8.678  14.000  0.00  0.00    +0.000 C 
BRANCH  18  19
ATOM     19  N   UNL     1      47.795   8.098  15.309  0.00  0.00    +0.000 N 
ATOM     20  C   UNL     1      48.924   8.303  16.061  0.00  0.00    +0.000 C 
ATOM     21  O   UNL     1      49.832   9.037  15.678  0.00  0.00    +0.000 OA
ATOM     22  H   UNL     1      47.179   7.324  15.547  0.00  0.00    +0.000 HD
BRANCH  20  23
ATOM     23  C   UNL     1      48.970   7.649  17.375  0.00  0.00    +0.000 A 
ATOM     24  C   UNL     1      49.203   8.406  18.514  0.00  0.00    +0.000 A 
ATOM     25  S   UNL     1      49.168   7.501  19.959  0.00  0.00    +0.000 S 
ATOM     26  C   UNL     1      48.896   6.053  19.109  0.00  0.00    +0.000 A 
ATOM     27  N   UNL     1      48.789   4.865  19.763  0.00  0.00    +0.000 NA
ATOM     28  C   UNL     1      48.620   3.842  18.993  0.00  0.00    +0.000 A 
ATOM     29  N   UNL     1      48.544   3.901  17.625  0.00  0.00    +0.000 N 
ATOM     30  C   UNL     1      48.610   5.082  16.923  0.00  0.00    +0.000 A 
ATOM     31  O   UNL     1      48.485   5.107  15.703  0.00  0.00    +0.000 OA
ATOM     32  C   UNL     1      48.815   6.260  17.743  0.00  0.00    +0.000 A 
ATOM     33  H   UNL     1      48.402   3.064  17.079  0.00  0.00    +0.000 HD
ENDBRANCH  20  23
ENDBRANCH  18  19
ENDBRANCH   4  18
TORSDOF 6
ENDMDL
MODEL 3
REMARK VINA RESULT:    -7.450      2.018      2.519
REMARK INTER + INTRA:         -11.024
REMARK INTER:                 -10.100
REMARK INTRA:                  -0.924
REMARK UNBOUND:                -0.961
REMARK  Name = 
REMARK  6 active torsions:
REMARK  status: ('A' for Active; 'I' for Inactive)
REMARK    1  A    between atoms: C_2  and  C_25
REMARK    2  A    between atoms: N_3  and  C_4
REMARK    3  A    between atoms: C_4  and  C_5
REMARK    4  A    between atoms: C_8  and  C_9
REMARK    5  A    between atoms: C_9  and  N_10
REMARK    6  A    between atoms: C_11  and  C_13
REMARK                            x       y       z     vdW  Elec       q    Type
REMARK                         _______ _______ _______ _____ _____    ______ ____
ROOT
ATOM      1  C   UNL     1      45.189   6.324  11.362  0.00  0.00    +0.000 A 
ATOM      2  C   UNL     1      44.736   7.452  12.045  0.00  0.00    +0.000 A 
ATOM      3  C   UNL     1      45.617   8.132  12.888  0.00  0.00    +0.000 A 
ATOM      4  C   UNL     1      46.934   7.687  13.018  0.00  0.00    +0.000 A 
ATOM      5  C   UNL     1      47.294   6.552  12.300  0.00  0.00    +0.000 A 
ATOM      6  N   UNL     1      46.463   5.875  11.473  0.00  0.00    +0.000 NA
ENDROOT
BRANCH   1   7
ATOM      7  C   UNL     1      44.262   5.572  10.437  0.00  0.00    +0.000 C 
BRANCH   7  10
ATOM      8  O   UNL     1      43.940   2.804   9.962  0.00  0.00    +0.000 OA
ATOM      9  C   UNL     1      44.785   3.428   9.333  0.00  0.00    +0.000 C 
ATOM     10  N   UNL     1      44.987   4.784   9.464  0.00  0.00    +0.000 N 
ATOM     11  H   UNL     1      45.800   5.188   9.007  0.00  0.00    +0.000 HD
BRANCH   9  12
ATOM     12  C   UNL     1      45.662   2.743   8.342  0.00  0.00    +0.000 A 
ATOM     13  C   UNL     1      46.185   3.461   7.277  0.00  0.00    +0.000 A 
ATOM     14  N   UNL     1      47.026   2.903   6.369  0.00  0.00    +0.000 NA
ATOM     15  C   UNL     1      47.316   1.598   6.576  0.00  0.00    +0.000 A 
ATOM     16  C   UNL     1      46.786   0.877   7.638  0.00  0.00    +0.000 A 
ATOM     17  N   UNL     1      45.945   1.423   8.549  0.00  0.00    +0.000 NA
ENDBRANCH   9  12
ENDBRANCH   7  10
ENDBRANCH   1   7
BRANCH   4  18
ATOM     18  C   UNL     1      47.920   8.369  13.920  0.00  0.00    +0.000 C 
BRANCH  18  19
ATOM     19  N   UNL     1      47.883   7.823  15.250  0.00  0.00    +0.000 N 
ATOM     20  C   UNL     1      48.865   6.978  15.704  0.00  0.00    +0.000 C 
ATOM     21  O   UNL     1      49.846   6.701  15.018  0.00  0.00    +0.000 OA
ATOM     22  H   UNL     1      46.994   7.851  15.742  0.00  0.00    +0.000 HD
BRANCH  20  23
ATOM     23  C   UNL     1      48.717   6.468  17.073  0.00  0.00    +0.000 A 
ATOM     24  C   UNL     1      48.985   5.133  17.344  0.00  0.00    +0.000 A 
ATOM     25  S   UNL     1      48.818   4.721  18.990  0.00  0.00    +0.000 S 
ATOM     26  C   UNL     1      48.327   6.299  19.391  0.00  0.00    +0.000 A 
ATOM     27  N   UNL     1      47.998   6.627  20.670  0.00  0.00    +0.000 NA
ATOM     28  C   UNL     1      47.607   7.848  20.827  0.00  0.00    +0.000 A 
ATOM     29  N   UNL     1      47.520   8.773  19.818  0.00  0.00    +0.000 N 
ATOM     30  C   UNL     1      47.876   8.498  18.518  0.00  0.00    +0.000 A 
ATOM     31  O   UNL     1      47.837   9.363  17.650  0.00  0.00    +0.000 OA
ATOM     32  C   UNL     1      48.308   7.133  18.288  0.00  0.00    +0.000 A 
ATOM     33  H   UNL     1      47.216   9.716  20.008  0.00  0.00    +0.000 HD
ENDBRANCH  20  23
ENDBRANCH  18  19
ENDBRANCH   4  18
TORSDOF 6
ENDMDL
MODEL 4
REMARK VINA RESULT:    -7.237      4.821      9.639
REMARK INTER + INTRA:         -10.736
REMARK INTER:                  -9.943
REMARK INTRA:                  -0.794
REMARK UNBOUND:                -0.961
REMARK  Name = 
REMARK  6 active torsions:
REMARK  status: ('A' for Active; 'I' for Inactive)
REMARK    1  A    between atoms: C_2  and  C_25
REMARK    2  A    between atoms: N_3  and  C_4
REMARK    3  A    between atoms: C_4  and  C_5
REMARK    4  A    between atoms: C_8  and  C_9
REMARK    5  A    between atoms: C_9  and  N_10
REMARK    6  A    between atoms: C_11  and  C_13
REMARK                            x       y       z     vdW  Elec       q    Type
REMARK                         _______ _______ _______ _____ _____    ______ ____
ROOT
ATOM      1  C   UNL     1      51.373   2.997  17.846  0.00  0.00    +0.000 A 
ATOM      2  C   UNL     1      50.709   1.993  17.143  0.00  0.00    +0.000 A 
ATOM      3  C   UNL     1      49.349   2.147  16.864  0.00  0.00    +0.000 A 
ATOM      4  C   UNL     1      48.685   3.305  17.272  0.00  0.00    +0.000 A 
ATOM      5  C   UNL     1      49.429   4.251  17.970  0.00  0.00    +0.000 A 
ATOM      6  N   UNL     1      50.748   4.130  18.252  0.00  0.00    +0.000 NA
ENDROOT
BRANCH   1   7
ATOM      7  C   UNL     1      52.845   2.863  18.156  0.00  0.00    +0.000 C 
BRANCH   7  10
ATOM      8  O   UNL     1      54.743   1.345  16.713  0.00  0.00    +0.000 OA
ATOM      9  C   UNL     1      54.132   0.823  17.637  0.00  0.00    +0.000 C 
ATOM     10  N   UNL     1      53.221   1.492  18.423  0.00  0.00    +0.000 N 
ATOM     11  H   UNL     1      52.664   0.943  19.073  0.00  0.00    +0.000 HD
BRANCH   9  12
ATOM     12  C   UNL     1      54.358  -0.606  17.992  0.00  0.00    +0.000 A 
ATOM     13  C   UNL     1      55.033  -1.434  17.108  0.00  0.00    +0.000 A 
ATOM     14  N   UNL     1      55.308  -2.732  17.395  0.00  0.00    +0.000 NA
ATOM     15  C   UNL     1      54.878  -3.160  18.604  0.00  0.00    +0.000 A 
ATOM     16  C   UNL     1      54.196  -2.333  19.486  0.00  0.00    +0.000 A 
ATOM     17  N   UNL     1      53.914  -1.037  19.210  0.00  0.00    +0.000 NA
ENDBRANCH   9  12
ENDBRANCH   7  10
ENDBRANCH   1   7
BRANCH   4  18
ATOM     18  C   UNL     1      47.223   3.519  17.013  0.00  0.00    +0.000 C 
BRANCH  18  19
ATOM     19  N   UNL     1      47.007   4.542  16.025  0.00  0.00    +0.000 N 
ATOM     20  C   UNL     1      47.068   4.264  14.682  0.00  0.00    +0.000 C 
ATOM     21  O   UNL     1      47.247   3.122  14.266  0.00  0.00    +0.000 OA
ATOM     22  H   UNL     1      47.083   5.509  16.330  0.00  0.00    +0.000 HD
BRANCH  20  23
ATOM     23  C   UNL     1      46.848   5.389  13.764  0.00  0.00    +0.000 A 
ATOM     24  C   UNL     1      47.872   6.293  13.524  0.00  0.00    +0.000 A 
ATOM     25  S   UNL     1      47.468   7.503  12.392  0.00  0.00    +0.000 S 
ATOM     26  C   UNL     1      45.889   6.894  12.224  0.00  0.00    +0.000 A 
ATOM     27  N   UNL     1      44.988   7.499  11.403  0.00  0.00    +0.000 NA
ATOM     28  C   UNL     1      43.817   6.954  11.399  0.00  0.00    +0.000 A 
ATOM     29  N   UNL     1      43.466   5.855  12.141  0.00  0.00    +0.000 N 
ATOM     30  C   UNL     1      44.352   5.190  12.957  0.00  0.00    +0.000 A 
ATOM     31  O   UNL     1      44.022   4.179  13.567  0.00  0.00    +0.000 OA
ATOM     32  C   UNL     1      45.679   5.773  13.007  0.00  0.00    +0.000 A 
ATOM     33  H   UNL     1      42.535   5.472  12.086  0.00  0.00    +0.000 HD
ENDBRANCH  20  23
ENDBRANCH  18  19
ENDBRANCH   4  18
TORSDOF 6
ENDMDL
MODEL 5
REMARK VINA RESULT:    -7.120      3.165      8.608
REMARK INTER + INTRA:         -10.579
REMARK INTER:                  -9.809
REMARK INTRA:                  -0.770
REMARK UNBOUND:                -0.961
REMARK  Name = 
REMARK  6 active torsions:
REMARK  status: ('A' for Active; 'I' for Inactive)
REMARK    1  A    between atoms: C_2  and  C_25
REMARK    2  A    between atoms: N_3  and  C_4
REMARK    3  A    between atoms: C_4  and  C_5
REMARK    4  A    between atoms: C_8  and  C_9
REMARK    5  A    between atoms: C_9  and  N_10
REMARK    6  A    between atoms: C_11  and  C_13
REMARK                            x       y       z     vdW  Elec       q    Type
REMARK                         _______ _______ _______ _____ _____    ______ ____
ROOT
ATOM      1  C   UNL     1      49.702   7.202  15.711  0.00  0.00    +0.000 A 
ATOM      2  C   UNL     1      49.918   8.343  14.938  0.00  0.00    +0.000 A 
ATOM      3  C   UNL     1      49.179   8.517  13.766  0.00  0.00    +0.000 A 
ATOM      4  C   UNL     1      48.229   7.563  13.398  0.00  0.00    +0.000 A 
ATOM      5  C   UNL     1      48.085   6.457  14.229  0.00  0.00    +0.000 A 
ATOM      6  N   UNL     1      48.784   6.263  15.372  0.00  0.00    +0.000 NA
ENDROOT
BRANCH   1   7
ATOM      7  C   UNL     1      50.479   6.990  16.987  0.00  0.00    +0.000 C 
BRANCH   7  10
ATOM      8  O   UNL     1      49.305   4.703  18.163  0.00  0.00    +0.000 OA
ATOM      9  C   UNL     1      50.428   4.623  17.682  0.00  0.00    +0.000 C 
ATOM     10  N   UNL     1      51.065   5.669  17.053  0.00  0.00    +0.000 N 
ATOM     11  H   UNL     1      52.045   5.549  16.811  0.00  0.00    +0.000 HD
BRANCH   9  12
ATOM     12  C   UNL     1      51.192   3.345  17.733  0.00  0.00    +0.000 A 
ATOM     13  C   UNL     1      50.573   2.160  17.364  0.00  0.00    +0.000 A 
ATOM     14  N   UNL     1      51.229   0.972  17.346  0.00  0.00    +0.000 NA
ATOM     15  C   UNL     1      52.530   1.026  17.714  0.00  0.00    +0.000 A 
ATOM     16  C   UNL     1      53.148   2.210  18.091  0.00  0.00    +0.000 A 
ATOM     17  N   UNL     1      52.503   3.401  18.113  0.00  0.00    +0.000 NA
ENDBRANCH   9  12
ENDBRANCH   7  10
ENDBRANCH   1   7
BRANCH   4  18
ATOM     18  C   UNL     1      47.417   7.690  12.143  0.00  0.00    +0.000 C 
BRANCH  18  19
ATOM     19  N   UNL     1      46.756   6.455  11.815  0.00  0.00    +0.000 N 
ATOM     20  C   UNL     1      45.389   6.377  11.727  0.00  0.00    +0.000 C 
ATOM     21  O   UNL     1      44.675   7.367  11.862  0.00  0.00    +0.000 OA
ATOM     22  H   UNL     1      47.291   5.596  11.921  0.00  0.00    +0.000 HD
BRANCH  20  23
ATOM     23  C   UNL     1      44.822   5.061  11.402  0.00  0.00    +0.000 A 
ATOM     24  C   UNL     1      44.067   4.383  12.349  0.00  0.00    +0.000 A 
ATOM     25  S   UNL     1      43.439   2.900  11.790  0.00  0.00    +0.000 S 
ATOM     26  C   UNL     1      44.199   3.084  10.280  0.00  0.00    +0.000 A 
ATOM     27  N   UNL     1      44.086   2.129   9.317  0.00  0.00    +0.000 NA
ATOM     28  C   UNL     1      44.744   2.380   8.235  0.00  0.00    +0.000 A 
ATOM     29  N   UNL     1      45.503   3.503   8.026  0.00  0.00    +0.000 N 
ATOM     30  C   UNL     1      45.618   4.511   8.956  0.00  0.00    +0.000 A 
ATOM     31  O   UNL     1      46.262   5.527   8.719  0.00  0.00    +0.000 OA
ATOM     32  C   UNL     1      44.908   4.269  10.197  0.00  0.00    +0.000 A 
ATOM     33  H   UNL     1      45.986   3.644   7.152  0.00  0.00    +0.000 HD
ENDBRANCH  20  23
ENDBRANCH  18  19
ENDBRANCH   4  18
TORSDOF 6
ENDMDL
MODEL 6
REMARK VINA RESULT:    -7.009      4.841      9.619
REMARK INTER + INTRA:         -10.429
REMARK INTER:                  -9.316
REMARK INTRA:                  -1.113
REMARK UNBOUND:                -0.961
REMARK  Name = 
REMARK  6 active torsions:
REMARK  status: ('A' for Active; 'I' for Inactive)
REMARK    1  A    between atoms: C_2  and  C_25
REMARK    2  A    between atoms: N_3  and  C_4
REMARK    3  A    between atoms: C_4  and  C_5
REMARK    4  A    between atoms: C_8  and  C_9
REMARK    5  A    between atoms: C_9  and  N_10
REMARK    6  A    between atoms: C_11  and  C_13
REMARK                            x       y       z     vdW  Elec       q    Type
REMARK                         _______ _______ _______ _____ _____    ______ ____
ROOT
ATOM      1  C   UNL     1      51.283   2.964  17.798  0.00  0.00    +0.000 A 
ATOM      2  C   UNL     1      50.595   1.954  17.128  0.00  0.00    +0.000 A 
ATOM      3  C   UNL     1      49.251   2.149  16.804  0.00  0.00    +0.000 A 
ATOM      4  C   UNL     1      48.626   3.353  17.137  0.00  0.00    +0.000 A 
ATOM      5  C   UNL     1      49.391   4.301  17.807  0.00  0.00    +0.000 A 
ATOM      6  N   UNL     1      50.696   4.141  18.131  0.00  0.00    +0.000 NA
ENDROOT
BRANCH   1   7
ATOM      7  C   UNL     1      52.739   2.786  18.154  0.00  0.00    +0.000 C 
BRANCH   7  10
ATOM      8  O   UNL     1      54.788   1.290  16.907  0.00  0.00    +0.000 OA
ATOM      9  C   UNL     1      54.063   0.747  17.732  0.00  0.00    +0.000 C 
ATOM     10  N   UNL     1      53.068   1.402  18.420  0.00  0.00    +0.000 N 
ATOM     11  H   UNL     1      52.430   0.840  18.978  0.00  0.00    +0.000 HD
BRANCH   9  12
ATOM     12  C   UNL     1      54.231  -0.695  18.064  0.00  0.00    +0.000 A 
ATOM     13  C   UNL     1      54.963  -1.514  17.217  0.00  0.00    +0.000 A 
ATOM     14  N   UNL     1      55.189  -2.824  17.490  0.00  0.00    +0.000 NA
ATOM     15  C   UNL     1      54.649  -3.274  18.646  0.00  0.00    +0.000 A 
ATOM     16  C   UNL     1      53.910  -2.457  19.490  0.00  0.00    +0.000 A 
ATOM     17  N   UNL     1      53.678  -1.149  19.227  0.00  0.00    +0.000 NA
ENDBRANCH   9  12
ENDBRANCH   7  10
ENDBRANCH   1   7
BRANCH   4  18
ATOM     18  C   UNL     1      47.181   3.613  16.827  0.00  0.00    +0.000 C 
BRANCH  18  19
ATOM     19  N   UNL     1      47.033   4.624  15.815  0.00  0.00    +0.000 N 
ATOM     20  C   UNL     1      47.083   4.311  14.479  0.00  0.00    +0.000 C 
ATOM     21  O   UNL     1      47.194   3.151  14.091  0.00  0.00    +0.000 OA
ATOM     22  H   UNL     1      47.166   5.592  16.098  0.00  0.00    +0.000 HD
BRANCH  20  23
ATOM     23  C   UNL     1      46.936   5.425  13.534  0.00  0.00    +0.000 A 
ATOM     24  C   UNL     1      45.909   5.407  12.601  0.00  0.00    +0.000 A 
ATOM     25  S   UNL     1      45.849   6.801  11.620  0.00  0.00    +0.000 S 
ATOM     26  C   UNL     1      47.229   7.454  12.369  0.00  0.00    +0.000 A 
ATOM     27  N   UNL     1      47.741   8.651  11.975  0.00  0.00    +0.000 NA
ATOM     28  C   UNL     1      48.811   9.010  12.603  0.00  0.00    +0.000 A 
ATOM     29  N   UNL     1      49.414   8.279  13.595  0.00  0.00    +0.000 N 
ATOM     30  C   UNL     1      48.913   7.082  14.052  0.00  0.00    +0.000 A 
ATOM     31  O   UNL     1      49.446   6.479  14.977  0.00  0.00    +0.000 OA
ATOM     32  C   UNL     1      47.718   6.629  13.366  0.00  0.00    +0.000 A 
ATOM     33  H   UNL     1      50.245   8.620  14.054  0.00  0.00    +0.000 HD
ENDBRANCH  20  23
ENDBRANCH  18  19
ENDBRANCH   4  18
TORSDOF 6
ENDMDL
MODEL 7
REMARK VINA RESULT:    -6.963      3.562      8.262
REMARK INTER + INTRA:         -10.367
REMARK INTER:                  -9.518
REMARK INTRA:                  -0.849
REMARK UNBOUND:                -0.961
REMARK  Name = 
REMARK  6 active torsions:
REMARK  status: ('A' for Active; 'I' for Inactive)
REMARK    1  A    between atoms: C_2  and  C_25
REMARK    2  A    between atoms: N_3  and  C_4
REMARK    3  A    between atoms: C_4  and  C_5
REMARK    4  A    between atoms: C_8  and  C_9
REMARK    5  A    between atoms: C_9  and  N_10
REMARK    6  A    between atoms: C_11  and  C_13
REMARK                            x       y       z     vdW  Elec       q    Type
REMARK                         _______ _______ _______ _____ _____    ______ ____
ROOT
ATOM      1  C   UNL     1      49.520   7.151  15.976  0.00  0.00    +0.000 A 
ATOM      2  C   UNL     1      49.891   8.378  15.429  0.00  0.00    +0.000 A 
ATOM      3  C   UNL     1      49.462   8.703  14.140  0.00  0.00    +0.000 A 
ATOM      4  C   UNL     1      48.657   7.809  13.432  0.00  0.00    +0.000 A 
ATOM      5  C   UNL     1      48.339   6.608  14.058  0.00  0.00    +0.000 A 
ATOM      6  N   UNL     1      48.738   6.268  15.306  0.00  0.00    +0.000 NA
ENDROOT
BRANCH   1   7
ATOM      7  C   UNL     1      49.962   6.774  17.370  0.00  0.00    +0.000 C 
BRANCH   7  10
ATOM      8  O   UNL     1      48.978   4.215  18.059  0.00  0.00    +0.000 OA
ATOM      9  C   UNL     1      50.162   4.348  17.772  0.00  0.00    +0.000 C 
ATOM     10  N   UNL     1      50.723   5.543  17.384  0.00  0.00    +0.000 N 
ATOM     11  H   UNL     1      51.735   5.586  17.302  0.00  0.00    +0.000 HD
BRANCH   9  12
ATOM     12  C   UNL     1      51.092   3.185  17.808  0.00  0.00    +0.000 A 
ATOM     13  C   UNL     1      50.705   1.979  17.243  0.00  0.00    +0.000 A 
ATOM     14  N   UNL     1      51.526   0.899  17.204  0.00  0.00    +0.000 NA
ATOM     15  C   UNL     1      52.747   1.081  17.756  0.00  0.00    +0.000 A 
ATOM     16  C   UNL     1      53.132   2.286  18.329  0.00  0.00    +0.000 A 
ATOM     17  N   UNL     1      52.321   3.370  18.374  0.00  0.00    +0.000 NA
ENDBRANCH   9  12
ENDBRANCH   7  10
ENDBRANCH   1   7
BRANCH   4  18
ATOM     18  C   UNL     1      48.178   8.098  12.040  0.00  0.00    +0.000 C 
BRANCH  18  19
ATOM     19  N   UNL     1      47.501   6.964  11.470  0.00  0.00    +0.000 N 
ATOM     20  C   UNL     1      46.136   6.941  11.331  0.00  0.00    +0.000 C 
ATOM     21  O   UNL     1      45.440   7.909  11.629  0.00  0.00    +0.000 OA
ATOM     22  H   UNL     1      48.014   6.087  11.428  0.00  0.00    +0.000 HD
BRANCH  20  23
ATOM     23  C   UNL     1      45.551   5.726  10.750  0.00  0.00    +0.000 A 
ATOM     24  C   UNL     1      45.688   5.475   9.393  0.00  0.00    +0.000 A 
ATOM     25  S   UNL     1      45.000   3.996   8.896  0.00  0.00    +0.000 S 
ATOM     26  C   UNL     1      44.445   3.663  10.468  0.00  0.00    +0.000 A 
ATOM     27  N   UNL     1      43.737   2.533  10.737  0.00  0.00    +0.000 NA
ATOM     28  C   UNL     1      43.346   2.425  11.964  0.00  0.00    +0.000 A 
ATOM     29  N   UNL     1      43.604   3.345  12.948  0.00  0.00    +0.000 N 
ATOM     30  C   UNL     1      44.345   4.483  12.731  0.00  0.00    +0.000 A 
ATOM     31  O   UNL     1      44.603   5.260  13.644  0.00  0.00    +0.000 OA
ATOM     32  C   UNL     1      44.795   4.658  11.363  0.00  0.00    +0.000 A 
ATOM     33  H   UNL     1      43.277   3.197  13.891  0.00  0.00    +0.000 HD
ENDBRANCH  20  23
ENDBRANCH  18  19
ENDBRANCH   4  18
TORSDOF 6
ENDMDL
MODEL 8
REMARK VINA RESULT:    -6.872      4.030      8.666
REMARK INTER + INTRA:         -10.243
REMARK INTER:                  -9.182
REMARK INTRA:                  -1.061
REMARK UNBOUND:                -0.961
REMARK  Name = 
REMARK  6 active torsions:
REMARK  status: ('A' for Active; 'I' for Inactive)
REMARK    1  A    between atoms: C_2  and  C_25
REMARK    2  A    between atoms: N_3  and  C_4
REMARK    3  A    between atoms: C_4  and  C_5
REMARK    4  A    between atoms: C_8  and  C_9
REMARK    5  A    between atoms: C_9  and  N_10
REMARK    6  A    between atoms: C_11  and  C_13
REMARK                            x       y       z     vdW  Elec       q    Type
REMARK                         _______ _______ _______ _____ _____    ______ ____
ROOT
ATOM      1  C   UNL     1      49.709   4.644  17.489  0.00  0.00    +0.000 A 
ATOM      2  C   UNL     1      50.455   5.786  17.200  0.00  0.00    +0.000 A 
ATOM      3  C   UNL     1      50.014   6.647  16.194  0.00  0.00    +0.000 A 
ATOM      4  C   UNL     1      48.829   6.365  15.511  0.00  0.00    +0.000 A 
ATOM      5  C   UNL     1      48.153   5.202  15.866  0.00  0.00    +0.000 A 
ATOM      6  N   UNL     1      48.556   4.351  16.838  0.00  0.00    +0.000 NA
ENDROOT
BRANCH   1   7
ATOM      7  C   UNL     1      50.157   3.697  18.577  0.00  0.00    +0.000 C 
BRANCH   7  10
ATOM      8  O   UNL     1      50.891   1.404  17.097  0.00  0.00    +0.000 OA
ATOM      9  C   UNL     1      51.760   2.066  17.652  0.00  0.00    +0.000 C 
ATOM     10  N   UNL     1      51.505   3.219  18.359  0.00  0.00    +0.000 N 
ATOM     11  H   UNL     1      52.266   3.620  18.900  0.00  0.00    +0.000 HD
BRANCH   9  12
ATOM     12  C   UNL     1      53.192   1.662  17.579  0.00  0.00    +0.000 A 
ATOM     13  C   UNL     1      53.522   0.320  17.456  0.00  0.00    +0.000 A 
ATOM     14  N   UNL     1      54.805  -0.104  17.339  0.00  0.00    +0.000 NA
ATOM     15  C   UNL     1      55.740   0.873  17.351  0.00  0.00    +0.000 A 
ATOM     16  C   UNL     1      55.411   2.216  17.481  0.00  0.00    +0.000 A 
ATOM     17  N   UNL     1      54.134   2.651  17.599  0.00  0.00    +0.000 NA
ENDBRANCH   9  12
ENDBRANCH   7  10
ENDBRANCH   1   7
BRANCH   4  18
ATOM     18  C   UNL     1      48.313   7.246  14.412  0.00  0.00    +0.000 C 
BRANCH  18  19
ATOM     19  N   UNL     1      47.079   6.745  13.870  0.00  0.00    +0.000 N 
ATOM     20  C   UNL     1      46.808   6.813  12.526  0.00  0.00    +0.000 C 
ATOM     21  O   UNL     1      47.630   7.247  11.722  0.00  0.00    +0.000 OA
ATOM     22  H   UNL     1      46.310   6.596  14.519  0.00  0.00    +0.000 HD
BRANCH  20  23
ATOM     23  C   UNL     1      45.510   6.286  12.086  0.00  0.00    +0.000 A 
ATOM     24  C   UNL     1      44.565   7.145  11.544  0.00  0.00    +0.000 A 
ATOM     25  S   UNL     1      43.138   6.362  11.034  0.00  0.00    +0.000 S 
ATOM     26  C   UNL     1      43.710   4.853  11.572  0.00  0.00    +0.000 A 
ATOM     27  N   UNL     1      42.947   3.732  11.455  0.00  0.00    +0.000 NA
ATOM     28  C   UNL     1      43.489   2.663  11.937  0.00  0.00    +0.000 A 
ATOM     29  N   UNL     1      44.728   2.614  12.522  0.00  0.00    +0.000 N 
ATOM     30  C   UNL     1      45.548   3.712  12.630  0.00  0.00    +0.000 A 
ATOM     31  O   UNL     1      46.673   3.624  13.111  0.00  0.00    +0.000 OA
ATOM     32  C   UNL     1      44.978   4.943  12.116  0.00  0.00    +0.000 A 
ATOM     33  H   UNL     1      45.099   1.743  12.872  0.00  0.00    +0.000 HD
ENDBRANCH  20  23
ENDBRANCH  18  19
ENDBRANCH   4  18
TORSDOF 6
ENDMDL
MODEL 9
REMARK VINA RESULT:    -6.623      3.537      4.621
REMARK INTER + INTRA:          -9.906
REMARK INTER:                  -8.855
REMARK INTRA:                  -1.051
REMARK UNBOUND:                -0.961
REMARK  Name = 
REMARK  6 active torsions:
REMARK  status: ('A' for Active; 'I' for Inactive)
REMARK    1  A    between atoms: C_2  and  C_25
REMARK    2  A    between atoms: N_3  and  C_4
REMARK    3  A    between atoms: C_4  and  C_5
REMARK    4  A    between atoms: C_8  and  C_9
REMARK    5  A    between atoms: C_9  and  N_10
REMARK    6  A    between atoms: C_11  and  C_13
REMARK                            x       y       z     vdW  Elec       q    Type
REMARK                         _______ _______ _______ _____ _____    ______ ____
ROOT
ATOM      1  C   UNL     1      44.740   6.037  11.341  0.00  0.00    +0.000 A 
ATOM      2  C   UNL     1      45.768   5.464  12.088  0.00  0.00    +0.000 A 
ATOM      3  C   UNL     1      46.574   6.290  12.875  0.00  0.00    +0.000 A 
ATOM      4  C   UNL     1      46.328   7.663  12.915  0.00  0.00    +0.000 A 
ATOM      5  C   UNL     1      45.282   8.144  12.134  0.00  0.00    +0.000 A 
ATOM      6  N   UNL     1      44.483   7.368  11.365  0.00  0.00    +0.000 NA
ENDROOT
BRANCH   1   7
ATOM      7  C   UNL     1      43.846   5.170  10.487  0.00  0.00    +0.000 C 
BRANCH   7  10
ATOM      8  O   UNL     1      44.294   2.386  10.281  0.00  0.00    +0.000 OA
ATOM      9  C   UNL     1      44.778   3.138   9.443  0.00  0.00    +0.000 C 
ATOM     10  N   UNL     1      44.582   4.500   9.436  0.00  0.00    +0.000 N 
ATOM     11  H   UNL     1      45.134   5.054   8.788  0.00  0.00    +0.000 HD
BRANCH   9  12
ATOM     12  C   UNL     1      45.621   2.606   8.336  0.00  0.00    +0.000 A 
ATOM     13  C   UNL     1      45.947   3.427   7.266  0.00  0.00    +0.000 A 
ATOM     14  N   UNL     1      46.748   3.014   6.252  0.00  0.00    +0.000 NA
ATOM     15  C   UNL     1      47.205   1.745   6.357  0.00  0.00    +0.000 A 
ATOM     16  C   UNL     1      46.872   0.920   7.423  0.00  0.00    +0.000 A 
ATOM     17  N   UNL     1      46.073   1.321   8.441  0.00  0.00    +0.000 NA
ENDBRANCH   9  12
ENDBRANCH   7  10
ENDBRANCH   1   7
BRANCH   4  18
ATOM     18  C   UNL     1      47.170   8.600  13.731  0.00  0.00    +0.000 C 
BRANCH  18  19
ATOM     19  N   UNL     1      48.573   8.390  13.492  0.00  0.00    +0.000 N 
ATOM     20  C   UNL     1      49.225   9.019  12.462  0.00  0.00    +0.000 C 
ATOM     21  O   UNL     1      48.656   9.833  11.738  0.00  0.00    +0.000 OA
ATOM     22  H   UNL     1      49.002   7.573  13.919  0.00  0.00    +0.000 HD
BRANCH  20  23
ATOM     23  C   UNL     1      50.653   8.718  12.302  0.00  0.00    +0.000 A 
ATOM     24  C   UNL     1      51.125   8.240  11.088  0.00  0.00    +0.000 A 
ATOM     25  S   UNL     1      52.813   7.996  11.056  0.00  0.00    +0.000 S 
ATOM     26  C   UNL     1      52.966   8.469  12.682  0.00  0.00    +0.000 A 
ATOM     27  N   UNL     1      54.177   8.465  13.302  0.00  0.00    +0.000 NA
ATOM     28  C   UNL     1      54.143   8.810  14.546  0.00  0.00    +0.000 A 
ATOM     29  N   UNL     1      53.006   9.166  15.226  0.00  0.00    +0.000 N 
ATOM     30  C   UNL     1      51.767   9.220  14.632  0.00  0.00    +0.000 A 
ATOM     31  O   UNL     1      50.778   9.592  15.253  0.00  0.00    +0.000 OA
ATOM     32  C   UNL     1      51.750   8.825  13.236  0.00  0.00    +0.000 A 
ATOM     33  H   UNL     1      53.049   9.436  16.197  0.00  0.00    +0.000 HD
ENDBRANCH  20  23
ENDBRANCH  18  19
ENDBRANCH   4  18
TORSDOF 6
ENDMDL
