MODEL 1
REMARK VINA RESULT:    -7.460      0.000      0.000
REMARK INTER + INTRA:         -12.730
REMARK INTER:                 -11.385
REMARK INTRA:                  -1.345
REMARK UNBOUND:                -1.345
REMARK  Name = 
REMARK  10 active torsions:
REMARK  status: ('A' for Active; 'I' for Inactive)
REMARK    1  A    between atoms: C_1  and  C_2
REMARK    2  A    between atoms: C_2  and  C_3
REMARK    3  A    between atoms: C_3  and  N_4
REMARK    4  A    between atoms: C_3  and  C_20
REMARK    5  A    between atoms: N_4  and  C_5
REMARK    6  A    between atoms: C_5  and  C_6
REMARK    7  A    between atoms: C_9  and  C_10
REMARK    8  A    between atoms: C_10  and  N_11
REMARK    9  A    between atoms: N_11  and  C_12
REMARK   10  A    between atoms: C_12  and  C_13
REMARK                            x       y       z     vdW  Elec       q    Type
REMARK                         _______ _______ _______ _____ _____    ______ ____
ROOT
ATOM      1  C   UNL     1      46.591   8.295  12.942  0.00  0.00    +0.000 C 
ENDROOT
BRANCH   1   2
ATOM      2  C   UNL     1      45.890   7.111  12.331  0.00  0.00    +0.000 A 
ATOM      3  C   UNL     1      46.355   6.507  11.162  0.00  0.00    +0.000 A 
ATOM      4  C   UNL     1      45.659   5.433  10.614  0.00  0.00    +0.000 A 
ATOM      5  C   UNL     1      44.507   4.983  11.252  0.00  0.00    +0.000 A 
ATOM      6  N   UNL     1      44.033   5.550  12.391  0.00  0.00    +0.000 NA
ATOM      7  C   UNL     1      44.732   6.590  12.901  0.00  0.00    +0.000 A 
BRANCH   5   8
ATOM      8  C   UNL     1      43.687   3.857  10.655  0.00  0.00    +0.000 C 
BRANCH   8   9
ATOM      9  N   UNL     1      44.102   3.489   9.289  0.00  0.00    +0.000 NA
ATOM     10  H   UNL     1      44.922   4.075   9.090  0.00  0.00    +0.000 HD
BRANCH   9  11
ATOM     11  C   UNL     1      44.559   2.092   9.227  0.00  0.00    +0.000 C 
BRANCH  11  12
ATOM     12  C   UNL     1      45.736   1.966   8.312  0.00  0.00    +0.000 A 
ATOM     13  N   UNL     1      46.435   0.883   8.042  0.00  0.00    +0.000 NA
ATOM     14  C   UNL     1      47.430   1.289   7.189  0.00  0.00    +0.000 A 
ATOM     15  C   UNL     1      47.328   2.633   6.922  0.00  0.00    +0.000 A 
ATOM     16  N   UNL     1      46.238   3.049   7.629  0.00  0.00    +0.000 N 
ATOM     17  H   UNL     1      45.866   3.986   7.708  0.00  0.00    +0.000 HD
ENDBRANCH  11  12
ENDBRANCH   9  11
ENDBRANCH   8   9
ENDBRANCH   5   8
ENDBRANCH   1   2
BRANCH   1  18
ATOM     18  N   UNL     1      47.206   7.936  14.218  0.00  0.00    +0.000 NA
ATOM     19  H   UNL     1      46.536   7.359  14.729  0.00  0.00    +0.000 HD
BRANCH  18  20
ATOM     20  C   UNL     1      48.437   7.144  14.073  0.00  0.00    +0.000 C 
BRANCH  20  21
ATOM     21  C   UNL     1      48.752   6.656  15.476  0.00  0.00    +0.000 A 
ATOM     22  C   UNL     1      49.551   7.316  16.398  0.00  0.00    +0.000 A 
ATOM     23  S   UNL     1      49.684   6.493  17.890  0.00  0.00    +0.000 S 
ATOM     24  C   UNL     1      48.639   5.254  17.368  0.00  0.00    +0.000 A 
ATOM     25  N   UNL     1      48.297   4.226  18.187  0.00  0.00    +0.000 NA
ATOM     26  C   UNL     1      47.478   3.374  17.658  0.00  0.00    +0.000 A 
ATOM     27  N   UNL     1      46.978   3.456  16.383  0.00  0.00    +0.000 N 
ATOM     28  C   UNL     1      47.287   4.482  15.520  0.00  0.00    +0.000 A 
ATOM     29  O   UNL     1      46.794   4.543  14.398  0.00  0.00    +0.000 OA
ATOM     30  C   UNL     1      48.211   5.457  16.071  0.00  0.00    +0.000 A 
ATOM     31  H   UNL     1      46.333   2.764  16.035  0.00  0.00    +0.000 HD
ENDBRANCH  20  21
BRANCH  20  33
ATOM     32  C   UNL     1      49.777   7.547  11.937  0.00  0.00    +0.000 C 
ATOM     33  C   UNL     1      49.601   7.910  13.408  0.00  0.00    +0.000 C 
ENDBRANCH  20  33
ENDBRANCH  18  20
ENDBRANCH   1  18
TORSDOF 9
ENDMDL
MODEL 2
REMARK VINA RESULT:    -7.195      2.304      3.239
REMARK INTER + INTRA:         -12.325
REMARK INTER:                 -11.686
REMARK INTRA:                  -0.639
REMARK UNBOUND:                -1.345
REMARK  Name = 
REMARK  10 active torsions:
REMARK  status: ('A' for Active; 'I' for Inactive)
REMARK    1  A    between atoms: C_1  and  C_2
REMARK    2  A    between atoms: C_2  and  C_3
REMARK    3  A    between atoms: C_3  and  N_4
REMARK    4  A    between atoms: C_3  and  C_20
REMARK    5  A    between atoms: N_4  and  C_5
REMARK    6  A    between atoms: C_5  and  C_6
REMARK    7  A    between atoms: C_9  and  C_10
REMARK    8  A    between atoms: C_10  and  N_11
REMARK    9  A    between atoms: N_11  and  C_12
REMARK   10  A    between atoms: C_12  and  C_13
REMARK                            x       y       z     vdW  Elec       q    Type
REMARK                         _______ _______ _______ _____ _____    ______ ____
ROOT
ATOM      1  C   UNL     1      47.905   5.761  14.625  0.00  0.00    +0.000 C 
ENDROOT
BRANCH   1   2
ATOM      2  C   UNL     1      46.922   5.182  13.641  0.00  0.00    +0.000 A 
ATOM      3  C   UNL     1      46.335   5.966  12.647  0.00  0.00    +0.000 A 
ATOM      4  C   UNL     1      45.409   5.397  11.776  0.00  0.00    +0.000 A 
ATOM      5  C   UNL     1      45.091   4.050  11.919  0.00  0.00    +0.000 A 
ATOM      6  N   UNL     1      45.649   3.264  12.875  0.00  0.00    +0.000 NA
ATOM      7  C   UNL     1      46.547   3.844  13.705  0.00  0.00    +0.000 A 
BRANCH   5   8
ATOM      8  C   UNL     1      44.043   3.408  11.031  0.00  0.00    +0.000 C 
BRANCH   8   9
ATOM      9  N   UNL     1      44.602   2.443  10.067  0.00  0.00    +0.000 NA
ATOM     10  H   UNL     1      43.860   1.749   9.919  0.00  0.00    +0.000 HD
BRANCH   9  11
ATOM     11  C   UNL     1      44.853   3.074   8.762  0.00  0.00    +0.000 C 
BRANCH  11  12
ATOM     12  C   UNL     1      45.981   2.390   8.057  0.00  0.00    +0.000 A 
ATOM     13  N   UNL     1      46.311   1.116   8.110  0.00  0.00    +0.000 NA
ATOM     14  C   UNL     1      47.435   0.994   7.332  0.00  0.00    +0.000 A 
ATOM     15  C   UNL     1      47.785   2.204   6.784  0.00  0.00    +0.000 A 
ATOM     16  N   UNL     1      46.845   3.081   7.239  0.00  0.00    +0.000 N 
ATOM     17  H   UNL     1      46.789   4.077   7.075  0.00  0.00    +0.000 HD
ENDBRANCH  11  12
ENDBRANCH   9  11
ENDBRANCH   8   9
ENDBRANCH   5   8
ENDBRANCH   1   2
BRANCH   1  18
ATOM     18  N   UNL     1      48.254   4.781  15.651  0.00  0.00    +0.000 NA
ATOM     19  H   UNL     1      49.138   4.351  15.375  0.00  0.00    +0.000 HD
BRANCH  18  20
ATOM     20  C   UNL     1      48.459   5.374  16.982  0.00  0.00    +0.000 C 
BRANCH  20  21
ATOM     21  C   UNL     1      49.900   5.046  17.335  0.00  0.00    +0.000 A 
ATOM     22  C   UNL     1      50.869   5.969  17.698  0.00  0.00    +0.000 A 
ATOM     23  S   UNL     1      52.384   5.256  18.044  0.00  0.00    +0.000 S 
ATOM     24  C   UNL     1      51.778   3.690  17.768  0.00  0.00    +0.000 A 
ATOM     25  N   UNL     1      52.562   2.591  17.924  0.00  0.00    +0.000 NA
ATOM     26  C   UNL     1      51.955   1.469  17.700  0.00  0.00    +0.000 A 
ATOM     27  N   UNL     1      50.640   1.350  17.328  0.00  0.00    +0.000 N 
ATOM     28  C   UNL     1      49.804   2.431  17.167  0.00  0.00    +0.000 A 
ATOM     29  O   UNL     1      48.624   2.287  16.867  0.00  0.00    +0.000 OA
ATOM     30  C   UNL     1      50.447   3.712  17.401  0.00  0.00    +0.000 A 
ATOM     31  H   UNL     1      50.224   0.444  17.180  0.00  0.00    +0.000 HD
ENDBRANCH  20  21
BRANCH  20  33
ATOM     32  C   UNL     1      47.342   5.862  19.225  0.00  0.00    +0.000 C 
ATOM     33  C   UNL     1      47.440   4.904  18.042  0.00  0.00    +0.000 C 
ENDBRANCH  20  33
ENDBRANCH  18  20
ENDBRANCH   1  18
TORSDOF 9
ENDMDL
MODEL 3
REMARK VINA RESULT:    -6.787      1.712      2.161
REMARK INTER + INTRA:         -11.702
REMARK INTER:                 -10.739
REMARK INTRA:                  -0.963
REMARK UNBOUND:                -1.345
REMARK  Name = 
REMARK  10 active torsions:
REMARK  status: ('A' for Active; 'I' for Inactive)
REMARK    1  A    between atoms: C_1  and  C_2
REMARK    2  A    between atoms: C_2  and  C_3
REMARK    3  A    between atoms: C_3  and  N_4
REMARK    4  A    between atoms: C_3  and  C_20
REMARK    5  A    between atoms: N_4  and  C_5
REMARK    6  A    between atoms: C_5  and  C_6
REMARK    7  A    between atoms: C_9  and  C_10
REMARK    8  A    between atoms: C_10  and  N_11
REMARK    9  A    between atoms: N_11  and  C_12
REMARK   10  A    between atoms: C_12  and  C_13
REMARK                            x       y       z     vdW  Elec       q    Type
REMARK                         _______ _______ _______ _____ _____    ______ ____
ROOT
ATOM      1  C   UNL     1      48.194   6.544  13.499  0.00  0.00    +0.000 C 
ENDROOT
BRANCH   1   2
ATOM      2  C   UNL     1      47.013   5.925  12.800  0.00  0.00    +0.000 A 
ATOM      3  C   UNL     1      46.364   4.802  13.314  0.00  0.00    +0.000 A 
ATOM      4  C   UNL     1      45.294   4.243  12.620  0.00  0.00    +0.000 A 
ATOM      5  C   UNL     1      44.894   4.825  11.421  0.00  0.00    +0.000 A 
ATOM      6  N   UNL     1      45.505   5.920  10.899  0.00  0.00    +0.000 NA
ATOM      7  C   UNL     1      46.540   6.441  11.597  0.00  0.00    +0.000 A 
BRANCH   5   8
ATOM      8  C   UNL     1      43.774   4.212  10.604  0.00  0.00    +0.000 C 
BRANCH   8   9
ATOM      9  N   UNL     1      44.199   3.770   9.264  0.00  0.00    +0.000 NA
ATOM     10  H   UNL     1      45.065   4.288   9.072  0.00  0.00    +0.000 HD
BRANCH   9  11
ATOM     11  C   UNL     1      44.555   2.342   9.259  0.00  0.00    +0.000 C 
BRANCH  11  12
ATOM     12  C   UNL     1      45.721   2.095   8.355  0.00  0.00    +0.000 A 
ATOM     13  N   UNL     1      46.359   0.961   8.153  0.00  0.00    +0.000 NA
ATOM     14  C   UNL     1      47.373   1.258   7.278  0.00  0.00    +0.000 A 
ATOM     15  C   UNL     1      47.344   2.587   6.928  0.00  0.00    +0.000 A 
ATOM     16  N   UNL     1      46.280   3.105   7.607  0.00  0.00    +0.000 N 
ATOM     17  H   UNL     1      45.961   4.064   7.628  0.00  0.00    +0.000 HD
ENDBRANCH  11  12
ENDBRANCH   9  11
ENDBRANCH   8   9
ENDBRANCH   5   8
ENDBRANCH   1   2
BRANCH   1  18
ATOM     18  N   UNL     1      48.066   6.422  14.949  0.00  0.00    +0.000 NA
ATOM     19  H   UNL     1      47.855   5.444  15.156  0.00  0.00    +0.000 HD
BRANCH  18  20
ATOM     20  C   UNL     1      49.298   6.763  15.677  0.00  0.00    +0.000 C 
BRANCH  20  21
ATOM     21  C   UNL     1      48.858   6.946  17.120  0.00  0.00    +0.000 A 
ATOM     22  C   UNL     1      48.312   8.103  17.654  0.00  0.00    +0.000 A 
ATOM     23  S   UNL     1      47.915   7.961  19.310  0.00  0.00    +0.000 S 
ATOM     24  C   UNL     1      48.414   6.335  19.352  0.00  0.00    +0.000 A 
ATOM     25  N   UNL     1      48.312   5.593  20.486  0.00  0.00    +0.000 NA
ATOM     26  C   UNL     1      48.711   4.367  20.357  0.00  0.00    +0.000 A 
ATOM     27  N   UNL     1      49.207   3.823  19.201  0.00  0.00    +0.000 N 
ATOM     28  C   UNL     1      49.321   4.530  18.026  0.00  0.00    +0.000 A 
ATOM     29  O   UNL     1      49.737   4.001  17.000  0.00  0.00    +0.000 OA
ATOM     30  C   UNL     1      48.892   5.913  18.127  0.00  0.00    +0.000 A 
ATOM     31  H   UNL     1      49.491   2.856  19.164  0.00  0.00    +0.000 HD
ENDBRANCH  20  21
BRANCH  20  33
ATOM     32  C   UNL     1      51.564   7.792  15.110  0.00  0.00    +0.000 C 
ATOM     33  C   UNL     1      50.051   7.981  15.101  0.00  0.00    +0.000 C 
ENDBRANCH  20  33
ENDBRANCH  18  20
ENDBRANCH   1  18
TORSDOF 9
ENDMDL
MODEL 4
REMARK VINA RESULT:    -6.593      1.790      2.527
REMARK INTER + INTRA:         -11.407
REMARK INTER:                 -10.166
REMARK INTRA:                  -1.241
REMARK UNBOUND:                -1.345
REMARK  Name = 
REMARK  10 active torsions:
REMARK  status: ('A' for Active; 'I' for Inactive)
REMARK    1  A    between atoms: C_1  and  C_2
REMARK    2  A    between atoms: C_2  and  C_3
REMARK    3  A    between atoms: C_3  and  N_4
REMARK    4  A    between atoms: C_3  and  C_20
REMARK    5  A    between atoms: N_4  and  C_5
REMARK    6  A    between atoms: C_5  and  C_6
REMARK    7  A    between atoms: C_9  and  C_10
REMARK    8  A    between atoms: C_10  and  N_11
REMARK    9  A    between atoms: N_11  and  C_12
REMARK   10  A    between atoms: C_12  and  C_13
REMARK                            x       y       z     vdW  Elec       q    Type
REMARK                         _______ _______ _______ _____ _____    ______ ____
ROOT
ATOM      1  C   UNL     1      48.330   6.746  13.700  0.00  0.00    +0.000 C 
ENDROOT
BRANCH   1   2
ATOM      2  C   UNL     1      46.964   6.172  13.434  0.00  0.00    +0.000 A 
ATOM      3  C   UNL     1      46.008   6.870  12.693  0.00  0.00    +0.000 A 
ATOM      4  C   UNL     1      44.747   6.316  12.496  0.00  0.00    +0.000 A 
ATOM      5  C   UNL     1      44.467   5.068  13.046  0.00  0.00    +0.000 A 
ATOM      6  N   UNL     1      45.378   4.366  13.768  0.00  0.00    +0.000 NA
ATOM      7  C   UNL     1      46.596   4.930  13.941  0.00  0.00    +0.000 A 
BRANCH   5   8
ATOM      8  C   UNL     1      43.087   4.457  12.906  0.00  0.00    +0.000 C 
BRANCH   8   9
ATOM      9  N   UNL     1      42.780   4.009  11.536  0.00  0.00    +0.000 NA
ATOM     10  H   UNL     1      43.138   4.751  10.923  0.00  0.00    +0.000 HD
BRANCH   9  11
ATOM     11  C   UNL     1      43.525   2.787  11.193  0.00  0.00    +0.000 C 
BRANCH  11  12
ATOM     12  C   UNL     1      44.322   2.991   9.943  0.00  0.00    +0.000 A 
ATOM     13  N   UNL     1      44.370   4.067   9.185  0.00  0.00    +0.000 NA
ATOM     14  C   UNL     1      45.201   3.746   8.142  0.00  0.00    +0.000 A 
ATOM     15  C   UNL     1      45.679   2.465   8.274  0.00  0.00    +0.000 A 
ATOM     16  N   UNL     1      45.126   2.001   9.431  0.00  0.00    +0.000 N 
ATOM     17  H   UNL     1      45.220   1.083   9.843  0.00  0.00    +0.000 HD
ENDBRANCH  11  12
ENDBRANCH   9  11
ENDBRANCH   8   9
ENDBRANCH   5   8
ENDBRANCH   1   2
BRANCH   1  18
ATOM     18  N   UNL     1      48.466   7.146  15.099  0.00  0.00    +0.000 NA
ATOM     19  H   UNL     1      47.961   6.461  15.663  0.00  0.00    +0.000 HD
BRANCH  18  20
ATOM     20  C   UNL     1      49.858   7.156  15.573  0.00  0.00    +0.000 C 
BRANCH  20  21
ATOM     21  C   UNL     1      49.751   7.234  17.087  0.00  0.00    +0.000 A 
ATOM     22  C   UNL     1      49.916   8.382  17.847  0.00  0.00    +0.000 A 
ATOM     23  S   UNL     1      49.714   8.117  19.523  0.00  0.00    +0.000 S 
ATOM     24  C   UNL     1      49.352   6.472  19.280  0.00  0.00    +0.000 A 
ATOM     25  N   UNL     1      49.044   5.654  20.322  0.00  0.00    +0.000 NA
ATOM     26  C   UNL     1      48.771   4.436  19.978  0.00  0.00    +0.000 A 
ATOM     27  N   UNL     1      48.785   3.963  18.691  0.00  0.00    +0.000 N 
ATOM     28  C   UNL     1      49.081   4.753  17.604  0.00  0.00    +0.000 A 
ATOM     29  O   UNL     1      49.050   4.306  16.462  0.00  0.00    +0.000 OA
ATOM     30  C   UNL     1      49.402   6.127  17.944  0.00  0.00    +0.000 A 
ATOM     31  H   UNL     1      48.551   3.003  18.490  0.00  0.00    +0.000 HD
ENDBRANCH  20  21
BRANCH  20  33
ATOM     32  C   UNL     1      52.203   7.912  14.907  0.00  0.00    +0.000 C 
ATOM     33  C   UNL     1      50.723   8.276  14.956  0.00  0.00    +0.000 C 
ENDBRANCH  20  33
ENDBRANCH  18  20
ENDBRANCH   1  18
TORSDOF 9
ENDMDL
MODEL 5
REMARK VINA RESULT:    -6.499      2.504      3.953
REMARK INTER + INTRA:         -11.264
REMARK INTER:                 -10.816
REMARK INTRA:                  -0.448
REMARK UNBOUND:                -1.345
REMARK  Name = 
REMARK  10 active torsions:
REMARK  status: ('A' for Active; 'I' for Inactive)
REMARK    1  A    between atoms: C_1  and  C_2
REMARK    2  A    between atoms: C_2  and  C_3
REMARK    3  A    between atoms: C_3  and  N_4
REMARK    4  A    between atoms: C_3  and  C_20
REMARK    5  A    between atoms: N_4  and  C_5
REMARK    6  A    between atoms: C_5  and  C_6
REMARK    7  A    between atoms: C_9  and  C_10
REMARK    8  A    between atoms: C_10  and  N_11
REMARK    9  A    between atoms: N_11  and  C_12
REMARK   10  A    between atoms: C_12  and  C_13
REMARK                            x       y       z     vdW  Elec       q    Type
REMARK                         _______ _______ _______ _____ _____    ______ ____
ROOT
ATOM      1  C   UNL     1      48.929   6.717  15.498  0.00  0.00    +0.000 C 
ENDROOT
BRANCH   1   2
ATOM      2  C   UNL     1      48.052   6.522  14.289  0.00  0.00    +0.000 A 
ATOM      3  C   UNL     1      47.293   5.365  14.114  0.00  0.00    +0.000 A 
ATOM      4  C   UNL     1      46.518   5.213  12.968  0.00  0.00    +0.000 A 
ATOM      5  C   UNL     1      46.519   6.229  12.016  0.00  0.00    +0.000 A 
ATOM      6  N   UNL     1      47.246   7.367  12.162  0.00  0.00    +0.000 NA
ATOM      7  C   UNL     1      47.987   7.486  13.288  0.00  0.00    +0.000 A 
BRANCH   5   8
ATOM      8  C   UNL     1      45.738   6.076  10.726  0.00  0.00    +0.000 C 
BRANCH   8   9
ATOM      9  N   UNL     1      44.301   6.369  10.873  0.00  0.00    +0.000 NA
ATOM     10  H   UNL     1      44.035   6.855  10.008  0.00  0.00    +0.000 HD
BRANCH   9  11
ATOM     11  C   UNL     1      43.505   5.133  10.920  0.00  0.00    +0.000 C 
BRANCH  11  12
ATOM     12  C   UNL     1      44.077   4.105   9.996  0.00  0.00    +0.000 A 
ATOM     13  N   UNL     1      44.546   2.913  10.307  0.00  0.00    +0.000 NA
ATOM     14  C   UNL     1      44.994   2.375   9.127  0.00  0.00    +0.000 A 
ATOM     15  C   UNL     1      44.781   3.240   8.082  0.00  0.00    +0.000 A 
ATOM     16  N   UNL     1      44.183   4.330   8.644  0.00  0.00    +0.000 N 
ATOM     17  H   UNL     1      43.905   5.191   8.194  0.00  0.00    +0.000 HD
ENDBRANCH  11  12
ENDBRANCH   9  11
ENDBRANCH   8   9
ENDBRANCH   5   8
ENDBRANCH   1   2
BRANCH   1  18
ATOM     18  N   UNL     1      49.179   5.445  16.173  0.00  0.00    +0.000 NA
ATOM     19  H   UNL     1      50.105   5.124  15.888  0.00  0.00    +0.000 HD
BRANCH  18  20
ATOM     20  C   UNL     1      49.190   5.552  17.640  0.00  0.00    +0.000 C 
BRANCH  20  21
ATOM     21  C   UNL     1      50.487   4.888  18.068  0.00  0.00    +0.000 A 
ATOM     22  C   UNL     1      51.470   5.473  18.851  0.00  0.00    +0.000 A 
ATOM     23  S   UNL     1      52.796   4.439  19.156  0.00  0.00    +0.000 S 
ATOM     24  C   UNL     1      52.075   3.162  18.292  0.00  0.00    +0.000 A 
ATOM     25  N   UNL     1      52.681   1.950  18.185  0.00  0.00    +0.000 NA
ATOM     26  C   UNL     1      52.002   1.073  17.516  0.00  0.00    +0.000 A 
ATOM     27  N   UNL     1      50.778   1.303  16.941  0.00  0.00    +0.000 N 
ATOM     28  C   UNL     1      50.121   2.509  17.029  0.00  0.00    +0.000 A 
ATOM     29  O   UNL     1      49.011   2.670  16.532  0.00  0.00    +0.000 OA
ATOM     30  C   UNL     1      50.852   3.525  17.765  0.00  0.00    +0.000 A 
ATOM     31  H   UNL     1      50.296   0.572  16.442  0.00  0.00    +0.000 HD
ENDBRANCH  20  21
BRANCH  20  33
ATOM     32  C   UNL     1      47.412   5.843  19.449  0.00  0.00    +0.000 C 
ATOM     33  C   UNL     1      47.938   4.960  18.321  0.00  0.00    +0.000 C 
ENDBRANCH  20  33
ENDBRANCH  18  20
ENDBRANCH   1  18
TORSDOF 9
ENDMDL
MODEL 6
REMARK VINA RESULT:    -6.371      2.270      2.879
REMARK INTER + INTRA:         -11.067
REMARK INTER:                  -9.967
REMARK INTRA:                  -1.101
REMARK UNBOUND:                -1.345
REMARK  Name = 
REMARK  10 active torsions:
REMARK  status: ('A' for Active; 'I' for Inactive)
REMARK    1  A    between atoms: C_1  and  C_2
REMARK    2  A    between atoms: C_2  and  C_3
REMARK    3  A    between atoms: C_3  and  N_4
REMARK    4  A    between atoms: C_3  and  C_20
REMARK    5  A    between atoms: N_4  and  C_5
REMARK    6  A    between atoms: C_5  and  C_6
REMARK    7  A    between atoms: C_9  and  C_10
REMARK    8  A    between atoms: C_10  and  N_11
REMARK    9  A    between atoms: N_11  and  C_12
REMARK   10  A    between atoms: C_12  and  C_13
REMARK                            x       y       z     vdW  Elec       q    Type
REMARK                         _______ _______ _______ _____ _____    ______ ____
ROOT
ATOM      1  C   UNL     1      47.401   6.972  13.632  0.00  0.00    +0.000 C 
ENDROOT
BRANCH   1   2
ATOM      2  C   UNL     1      46.388   5.933  13.232  0.00  0.00    +0.000 A 
ATOM      3  C   UNL     1      46.679   4.569  13.279  0.00  0.00    +0.000 A 
ATOM      4  C   UNL     1      45.723   3.643  12.872  0.00  0.00    +0.000 A 
ATOM      5  C   UNL     1      44.488   4.104  12.425  0.00  0.00    +0.000 A 
ATOM      6  N   UNL     1      44.176   5.424  12.370  0.00  0.00    +0.000 NA
ATOM      7  C   UNL     1      45.126   6.300  12.775  0.00  0.00    +0.000 A 
BRANCH   5   8
ATOM      8  C   UNL     1      43.442   3.132  11.915  0.00  0.00    +0.000 C 
BRANCH   8   9
ATOM      9  N   UNL     1      43.856   2.411  10.698  0.00  0.00    +0.000 NA
ATOM     10  H   UNL     1      43.015   1.915  10.380  0.00  0.00    +0.000 HD
BRANCH   9  11
ATOM     11  C   UNL     1      44.226   3.344   9.622  0.00  0.00    +0.000 C 
BRANCH  11  12
ATOM     12  C   UNL     1      45.258   2.732   8.729  0.00  0.00    +0.000 A 
ATOM     13  N   UNL     1      45.686   1.486   8.727  0.00  0.00    +0.000 NA
ATOM     14  C   UNL     1      46.659   1.432   7.761  0.00  0.00    +0.000 A 
ATOM     15  C   UNL     1      46.814   2.655   7.154  0.00  0.00    +0.000 A 
ATOM     16  N   UNL     1      45.908   3.470   7.767  0.00  0.00    +0.000 N 
ATOM     17  H   UNL     1      45.749   4.456   7.612  0.00  0.00    +0.000 HD
ENDBRANCH  11  12
ENDBRANCH   9  11
ENDBRANCH   8   9
ENDBRANCH   5   8
ENDBRANCH   1   2
BRANCH   1  18
ATOM     18  N   UNL     1      48.633   6.346  14.104  0.00  0.00    +0.000 NA
ATOM     19  H   UNL     1      49.302   6.365  13.332  0.00  0.00    +0.000 HD
BRANCH  18  20
ATOM     20  C   UNL     1      49.256   7.054  15.233  0.00  0.00    +0.000 C 
BRANCH  20  21
ATOM     21  C   UNL     1      49.341   6.019  16.342  0.00  0.00    +0.000 A 
ATOM     22  C   UNL     1      48.281   5.267  16.824  0.00  0.00    +0.000 A 
ATOM     23  S   UNL     1      48.730   4.183  18.067  0.00  0.00    +0.000 S 
ATOM     24  C   UNL     1      50.364   4.650  17.965  0.00  0.00    +0.000 A 
ATOM     25  N   UNL     1      51.314   4.076  18.749  0.00  0.00    +0.000 NA
ATOM     26  C   UNL     1      52.513   4.519  18.542  0.00  0.00    +0.000 A 
ATOM     27  N   UNL     1      52.844   5.487  17.629  0.00  0.00    +0.000 N 
ATOM     28  C   UNL     1      51.921   6.091  16.806  0.00  0.00    +0.000 A 
ATOM     29  O   UNL     1      52.256   6.929  15.976  0.00  0.00    +0.000 OA
ATOM     30  C   UNL     1      50.559   5.629  17.011  0.00  0.00    +0.000 A 
ATOM     31  H   UNL     1      53.801   5.780  17.509  0.00  0.00    +0.000 HD
ENDBRANCH  20  21
BRANCH  20  33
ATOM     32  C   UNL     1      49.093   8.968  16.915  0.00  0.00    +0.000 C 
ATOM     33  C   UNL     1      48.517   8.345  15.647  0.00  0.00    +0.000 C 
ENDBRANCH  20  33
ENDBRANCH  18  20
ENDBRANCH   1  18
TORSDOF 9
ENDMDL
MODEL 7
REMARK VINA RESULT:    -6.174      2.372      3.729
REMARK INTER + INTRA:         -10.767
REMARK INTER:                  -9.707
REMARK INTRA:                  -1.061
REMARK UNBOUND:                -1.345
REMARK  Name = 
REMARK  10 active torsions:
REMARK  status: ('A' for Active; 'I' for Inactive)
REMARK    1  A    between atoms: C_1  and  C_2
REMARK    2  A    between atoms: C_2  and  C_3
REMARK    3  A    between atoms: C_3  and  N_4
REMARK    4  A    between atoms: C_3  and  C_20
REMARK    5  A    between atoms: N_4  and  C_5
REMARK    6  A    between atoms: C_5  and  C_6
REMARK    7  A    between atoms: C_9  and  C_10
REMARK    8  A    between atoms: C_10  and  N_11
REMARK    9  A    between atoms: N_11  and  C_12
REMARK   10  A    between atoms: C_12  and  C_13
REMARK                            x       y       z     vdW  Elec       q    Type
REMARK                         _______ _______ _______ _____ _____    ______ ____
ROOT
ATOM      1  C   UNL     1      48.034   6.192  14.473  0.00  0.00    +0.000 C 
ENDROOT
BRANCH   1   2
ATOM      2  C   UNL     1      46.836   5.860  13.623  0.00  0.00    +0.000 A 
ATOM      3  C   UNL     1      46.255   4.590  13.640  0.00  0.00    +0.000 A 
ATOM      4  C   UNL     1      45.167   4.317  12.816  0.00  0.00    +0.000 A 
ATOM      5  C   UNL     1      44.679   5.326  11.990  0.00  0.00    +0.000 A 
ATOM      6  N   UNL     1      45.222   6.569  11.955  0.00  0.00    +0.000 NA
ATOM      7  C   UNL     1      46.278   6.806  12.769  0.00  0.00    +0.000 A 
BRANCH   5   8
ATOM      8  C   UNL     1      43.535   5.051  11.034  0.00  0.00    +0.000 C 
BRANCH   8   9
ATOM      9  N   UNL     1      43.978   4.755   9.659  0.00  0.00    +0.000 NA
ATOM     10  H   UNL     1      44.874   5.246   9.553  0.00  0.00    +0.000 HD
BRANCH   9  11
ATOM     11  C   UNL     1      44.263   3.322   9.487  0.00  0.00    +0.000 C 
BRANCH  11  12
ATOM     12  C   UNL     1      45.364   3.122   8.492  0.00  0.00    +0.000 A 
ATOM     13  N   UNL     1      45.847   4.001   7.639  0.00  0.00    +0.000 NA
ATOM     14  C   UNL     1      46.805   3.329   6.921  0.00  0.00    +0.000 A 
ATOM     15  C   UNL     1      46.919   2.030   7.354  0.00  0.00    +0.000 A 
ATOM     16  N   UNL     1      46.009   1.915   8.363  0.00  0.00    +0.000 N 
ATOM     17  H   UNL     1      45.779   1.093   8.906  0.00  0.00    +0.000 HD
ENDBRANCH  11  12
ENDBRANCH   9  11
ENDBRANCH   8   9
ENDBRANCH   5   8
ENDBRANCH   1   2
BRANCH   1  18
ATOM     18  N   UNL     1      48.313   5.119  15.425  0.00  0.00    +0.000 NA
ATOM     19  H   UNL     1      49.226   4.728  15.186  0.00  0.00    +0.000 HD
BRANCH  18  20
ATOM     20  C   UNL     1      48.390   5.579  16.820  0.00  0.00    +0.000 C 
BRANCH  20  21
ATOM     21  C   UNL     1      49.871   5.544  17.159  0.00  0.00    +0.000 A 
ATOM     22  C   UNL     1      50.610   4.400  17.416  0.00  0.00    +0.000 A 
ATOM     23  S   UNL     1      52.256   4.719  17.749  0.00  0.00    +0.000 S 
ATOM     24  C   UNL     1      52.041   6.391  17.512  0.00  0.00    +0.000 A 
ATOM     25  N   UNL     1      53.081   7.260  17.617  0.00  0.00    +0.000 NA
ATOM     26  C   UNL     1      52.767   8.495  17.388  0.00  0.00    +0.000 A 
ATOM     27  N   UNL     1      51.509   8.938  17.071  0.00  0.00    +0.000 N 
ATOM     28  C   UNL     1      50.427   8.097  16.944  0.00  0.00    +0.000 A 
ATOM     29  O   UNL     1      49.321   8.522  16.625  0.00  0.00    +0.000 OA
ATOM     30  C   UNL     1      50.732   6.701  17.201  0.00  0.00    +0.000 A 
ATOM     31  H   UNL     1      51.333   9.915  16.893  0.00  0.00    +0.000 HD
ENDBRANCH  20  21
BRANCH  20  33
ATOM     32  C   UNL     1      47.162   3.384  17.259  0.00  0.00    +0.000 C 
ATOM     33  C   UNL     1      47.513   4.768  17.797  0.00  0.00    +0.000 C 
ENDBRANCH  20  33
ENDBRANCH  18  20
ENDBRANCH   1  18
TORSDOF 9
ENDMDL
MODEL 8
REMARK VINA RESULT:    -6.137      3.381      7.616
REMARK INTER + INTRA:         -10.711
REMARK INTER:                  -9.092
REMARK INTRA:                  -1.620
REMARK UNBOUND:                -1.345
REMARK  Name = 
REMARK  10 active torsions:
REMARK  status: ('A' for Active; 'I' for Inactive)
REMARK    1  A    between atoms: C_1  and  C_2
REMARK    2  A    between atoms: C_2  and  C_3
REMARK    3  A    between atoms: C_3  and  N_4
REMARK    4  A    between atoms: C_3  and  C_20
REMARK    5  A    between atoms: N_4  and  C_5
REMARK    6  A    between atoms: C_5  and  C_6
REMARK    7  A    between atoms: C_9  and  C_10
REMARK    8  A    between atoms: C_10  and  N_11
REMARK    9  A    between atoms: N_11  and  C_12
REMARK   10  A    between atoms: C_12  and  C_13
REMARK                            x       y       z     vdW  Elec       q    Type
REMARK                         _______ _______ _______ _____ _____    ______ ____
ROOT
ATOM      1  C   UNL     1      48.284   9.369  15.078  0.00  0.00    +0.000 C 
ENDROOT
BRANCH   1   2
ATOM      2  C   UNL     1      48.453   8.714  16.423  0.00  0.00    +0.000 A 
ATOM      3  C   UNL     1      47.888   9.257  17.578  0.00  0.00    +0.000 A 
ATOM      4  C   UNL     1      48.093   8.635  18.806  0.00  0.00    +0.000 A 
ATOM      5  C   UNL     1      48.862   7.476  18.853  0.00  0.00    +0.000 A 
ATOM      6  N   UNL     1      49.421   6.924  17.745  0.00  0.00    +0.000 NA
ATOM      7  C   UNL     1      49.202   7.550  16.565  0.00  0.00    +0.000 A 
BRANCH   5   8
ATOM      8  C   UNL     1      49.160   6.803  20.178  0.00  0.00    +0.000 C 
BRANCH   8   9
ATOM      9  N   UNL     1      49.775   5.471  20.033  0.00  0.00    +0.000 NA
ATOM     10  H   UNL     1      50.400   5.373  20.843  0.00  0.00    +0.000 HD
BRANCH   9  11
ATOM     11  C   UNL     1      48.769   4.402  20.149  0.00  0.00    +0.000 C 
BRANCH  11  12
ATOM     12  C   UNL     1      48.391   3.889  18.795  0.00  0.00    +0.000 A 
ATOM     13  N   UNL     1      49.041   3.016  18.054  0.00  0.00    +0.000 NA
ATOM     14  C   UNL     1      48.320   2.911  16.891  0.00  0.00    +0.000 A 
ATOM     15  C   UNL     1      47.208   3.716  16.931  0.00  0.00    +0.000 A 
ATOM     16  N   UNL     1      47.255   4.321  18.152  0.00  0.00    +0.000 N 
ATOM     17  H   UNL     1      46.621   5.011  18.532  0.00  0.00    +0.000 HD
ENDBRANCH  11  12
ENDBRANCH   9  11
ENDBRANCH   8   9
ENDBRANCH   5   8
ENDBRANCH   1   2
BRANCH   1  18
ATOM     18  N   UNL     1      47.149   8.799  14.357  0.00  0.00    +0.000 NA
ATOM     19  H   UNL     1      46.496   9.560  14.163  0.00  0.00    +0.000 HD
BRANCH  18  20
ATOM     20  C   UNL     1      47.515   8.202  13.064  0.00  0.00    +0.000 C 
BRANCH  20  21
ATOM     21  C   UNL     1      46.750   6.891  13.011  0.00  0.00    +0.000 A 
ATOM     22  C   UNL     1      47.140   5.706  13.617  0.00  0.00    +0.000 A 
ATOM     23  S   UNL     1      46.037   4.424  13.369  0.00  0.00    +0.000 S 
ATOM     24  C   UNL     1      44.981   5.425  12.486  0.00  0.00    +0.000 A 
ATOM     25  N   UNL     1      43.804   4.953  11.996  0.00  0.00    +0.000 NA
ATOM     26  C   UNL     1      43.098   5.837  11.365  0.00  0.00    +0.000 A 
ATOM     27  N   UNL     1      43.467   7.144  11.176  0.00  0.00    +0.000 N 
ATOM     28  C   UNL     1      44.642   7.670  11.660  0.00  0.00    +0.000 A 
ATOM     29  O   UNL     1      44.926   8.854  11.502  0.00  0.00    +0.000 OA
ATOM     30  C   UNL     1      45.471   6.711  12.368  0.00  0.00    +0.000 A 
ATOM     31  H   UNL     1      42.864   7.785  10.684  0.00  0.00    +0.000 HD
ENDBRANCH  20  21
BRANCH  20  33
ATOM     32  C   UNL     1      49.402   7.768  11.400  0.00  0.00    +0.000 C 
ATOM     33  C   UNL     1      49.036   8.040  12.856  0.00  0.00    +0.000 C 
ENDBRANCH  20  33
ENDBRANCH  18  20
ENDBRANCH   1  18
TORSDOF 9
ENDMDL
MODEL 9
REMARK VINA RESULT:    -5.900      2.355      3.874
REMARK INTER + INTRA:         -10.348
REMARK INTER:                  -9.613
REMARK INTRA:                  -0.735
REMARK UNBOUND:                -1.345
REMARK  Name = 
REMARK  10 active torsions:
REMARK  status: ('A' for Active; 'I' for Inactive)
REMARK    1  A    between atoms: C_1  and  C_2
REMARK    2  A    between atoms: C_2  and  C_3
REMARK    3  A    between atoms: C_3  and  N_4
REMARK    4  A    between atoms: C_3  and  C_20
REMARK    5  A    between atoms: N_4  and  C_5
REMARK    6  A    between atoms: C_5  and  C_6
REMARK    7  A    between atoms: C_9  and  C_10
REMARK    8  A    between atoms: C_10  and  N_11
REMARK    9  A    between atoms: N_11  and  C_12
REMARK   10  A    between atoms: C_12  and  C_13
REMARK                            x       y       z     vdW  Elec       q    Type
REMARK                         _______ _______ _______ _____ _____    ______ ____
ROOT
ATOM      1  C   UNL     1      48.751   8.141  15.538  0.00  0.00    +0.000 C 
ENDROOT
BRANCH   1   2
ATOM      2  C   UNL     1      47.996   7.647  14.332  0.00  0.00    +0.000 A 
ATOM      3  C   UNL     1      47.119   8.473  13.628  0.00  0.00    +0.000 A 
ATOM      4  C   UNL     1      46.419   7.967  12.537  0.00  0.00    +0.000 A 
ATOM      5  C   UNL     1      46.613   6.638  12.171  0.00  0.00    +0.000 A 
ATOM      6  N   UNL     1      47.462   5.813  12.836  0.00  0.00    +0.000 NA
ATOM      7  C   UNL     1      48.130   6.334  13.891  0.00  0.00    +0.000 A 
BRANCH   5   8
ATOM      8  C   UNL     1      45.825   6.032  11.027  0.00  0.00    +0.000 C 
BRANCH   8   9
ATOM      9  N   UNL     1      44.407   6.435  11.014  0.00  0.00    +0.000 NA
ATOM     10  H   UNL     1      44.267   6.899  10.108  0.00  0.00    +0.000 HD
BRANCH   9  11
ATOM     11  C   UNL     1      43.517   5.262  11.026  0.00  0.00    +0.000 C 
BRANCH  11  12
ATOM     12  C   UNL     1      44.043   4.195  10.119  0.00  0.00    +0.000 A 
ATOM     13  N   UNL     1      44.467   2.993  10.450  0.00  0.00    +0.000 NA
ATOM     14  C   UNL     1      44.886   2.414   9.279  0.00  0.00    +0.000 A 
ATOM     15  C   UNL     1      44.701   3.268   8.218  0.00  0.00    +0.000 A 
ATOM     16  N   UNL     1      44.150   4.391   8.762  0.00  0.00    +0.000 N 
ATOM     17  H   UNL     1      43.903   5.253   8.297  0.00  0.00    +0.000 HD
ENDBRANCH  11  12
ENDBRANCH   9  11
ENDBRANCH   8   9
ENDBRANCH   5   8
ENDBRANCH   1   2
BRANCH   1  18
ATOM     18  N   UNL     1      48.135   7.662  16.773  0.00  0.00    +0.000 NA
ATOM     19  H   UNL     1      47.434   6.965  16.515  0.00  0.00    +0.000 HD
BRANCH  18  20
ATOM     20  C   UNL     1      49.083   7.006  17.686  0.00  0.00    +0.000 C 
BRANCH  20  21
ATOM     21  C   UNL     1      48.779   5.523  17.561  0.00  0.00    +0.000 A 
ATOM     22  C   UNL     1      47.517   4.971  17.402  0.00  0.00    +0.000 A 
ATOM     23  S   UNL     1      47.536   3.266  17.280  0.00  0.00    +0.000 S 
ATOM     24  C   UNL     1      49.234   3.217  17.386  0.00  0.00    +0.000 A 
ATOM     25  N   UNL     1      49.914   2.042  17.315  0.00  0.00    +0.000 NA
ATOM     26  C   UNL     1      51.201   2.167  17.389  0.00  0.00    +0.000 A 
ATOM     27  N   UNL     1      51.865   3.358  17.534  0.00  0.00    +0.000 N 
ATOM     28  C   UNL     1      51.223   4.573  17.601  0.00  0.00    +0.000 A 
ATOM     29  O   UNL     1      51.850   5.623  17.695  0.00  0.00    +0.000 OA
ATOM     30  C   UNL     1      49.776   4.479  17.530  0.00  0.00    +0.000 A 
ATOM     31  H   UNL     1      52.872   3.387  17.573  0.00  0.00    +0.000 HD
ENDBRANCH  20  21
BRANCH  20  33
ATOM     32  C   UNL     1      48.940   6.405  20.163  0.00  0.00    +0.000 C 
ATOM     33  C   UNL     1      49.022   7.530  19.137  0.00  0.00    +0.000 C 
ENDBRANCH  20  33
ENDBRANCH  18  20
ENDBRANCH   1  18
TORSDOF 9
ENDMDL
