MODEL 1
REMARK VINA RESULT:    -8.495      0.000      0.000
REMARK INTER + INTRA:         -14.500
REMARK INTER:                 -13.213
REMARK INTRA:                  -1.287
REMARK UNBOUND:                -1.287
REMARK  Name = 
REMARK  11 active torsions:
REMARK  status: ('A' for Active; 'I' for Inactive)
REMARK    1  A    between atoms: C_1  and  O_2
REMARK    2  A    between atoms: O_2  and  C_3
REMARK    3  A    between atoms: C_10  and  C_11
REMARK    4  A    between atoms: N_13  and  C_14
REMARK    5  A    between atoms: C_14  and  C_15
REMARK    6  A    between atoms: C_18  and  C_19
REMARK    7  A    between atoms: C_19  and  N_20
REMARK    8  A    between atoms: N_20  and  CA_21
REMARK    9  A    between atoms: CA_21  and  C_22
REMARK   10  A    between atoms: CA_21  and  C_24
REMARK   11  A    between atoms: C_22  and  O_23
REMARK                            x       y       z     vdW  Elec       q    Type
REMARK                         _______ _______ _______ _____ _____    ______ ____
ROOT
ATOM      1  C   UNL     1      46.548   7.597  12.690  0.00  0.00    +0.000 A 
ATOM      2  C   UNL     1      45.242   8.064  12.493  0.00  0.00    +0.000 A 
ATOM      3  C   UNL     1      44.342   7.354  11.693  0.00  0.00    +0.000 A 
ATOM      4  C   UNL     1      44.732   6.167  11.060  0.00  0.00    +0.000 A 
ATOM      5  C   UNL     1      46.036   5.693  11.275  0.00  0.00    +0.000 A 
ATOM      6  C   UNL     1      46.934   6.397  12.079  0.00  0.00    +0.000 A 
ENDROOT
BRANCH   1   7
ATOM      7  C   UNL     1      47.497   8.331  13.599  0.00  0.00    +0.000 C 
BRANCH   7  10
ATOM      8  C   UNL     1      49.004   6.963  14.972  0.00  0.00    +0.000 C 
ATOM      9  O   UNL     1      49.900   7.076  14.137  0.00  0.00    +0.000 OA
ATOM     10  N   UNL     1      47.784   7.549  14.778  0.00  0.00    +0.000 N 
ATOM     11  H   UNL     1      47.039   7.418  15.450  0.00  0.00    +0.000 HD
BRANCH   8  19
ATOM     12  C   UNL     1      47.390   4.256  16.375  0.00  0.00    +0.000 A 
ATOM     13  N   UNL     1      46.969   3.222  17.130  0.00  0.00    +0.000 NA
ATOM     14  C   UNL     1      47.617   2.967  18.270  0.00  0.00    +0.000 A 
ATOM     15  N   UNL     1      48.656   3.634  18.764  0.00  0.00    +0.000 NA
ATOM     16  C   UNL     1      49.050   4.650  17.978  0.00  0.00    +0.000 A 
ATOM     17  S   UNL     1      50.362   5.614  18.457  0.00  0.00    +0.000 S 
ATOM     18  C   UNL     1      50.229   6.573  17.063  0.00  0.00    +0.000 A 
ATOM     19  C   UNL     1      49.203   6.188  16.207  0.00  0.00    +0.000 A 
ATOM     20  C   UNL     1      48.492   5.039  16.762  0.00  0.00    +0.000 A 
BRANCH  12  22
ATOM     21  C   UNL     1      47.070   3.548  14.174  0.00  0.00    +0.000 C 
ATOM     22  O   UNL     1      46.735   4.497  15.185  0.00  0.00    +0.000 OA
ENDBRANCH  12  22
ENDBRANCH   8  19
ENDBRANCH   7  10
ENDBRANCH   1   7
BRANCH   4  23
ATOM     23  C   UNL     1      43.775   5.340  10.226  0.00  0.00    +0.000 C 
BRANCH  23  24
ATOM     24  N   UNL     1      44.406   4.717   9.061  0.00  0.00    +0.000 NA
ATOM     25  H   UNL     1      45.346   5.095   8.945  0.00  0.00    +0.000 HD
BRANCH  24  26
ATOM     26  CA  UNL     1      44.445   3.239   9.130  0.00  0.00    +0.000 C 
BRANCH  26  27
ATOM     27  C   UNL     1      45.526   2.713   8.173  0.00  0.00    +0.000 A 
ATOM     28  C   UNL     1      46.113   1.442   8.289  0.00  0.00    +0.000 A 
ATOM     29  C   UNL     1      47.079   1.001   7.379  0.00  0.00    +0.000 A 
ATOM     30  C   UNL     1      47.475   1.824   6.327  0.00  0.00    +0.000 A 
ATOM     31  C   UNL     1      46.907   3.084   6.188  0.00  0.00    +0.000 A 
ATOM     32  C   UNL     1      45.941   3.524   7.099  0.00  0.00    +0.000 A 
ENDBRANCH  26  27
BRANCH  26  33
ATOM     33  C   UNL     1      44.553   2.690  10.584  0.00  0.00    +0.000 C 
BRANCH  33  34
ATOM     34  O   UNL     1      43.323   2.160  11.083  0.00  0.00    +0.000 OA
ATOM     35  H   UNL     1      42.602   2.736  10.778  0.00  0.00    +0.000 HD
ENDBRANCH  33  34
ENDBRANCH  26  33
ENDBRANCH  24  26
ENDBRANCH  23  24
ENDBRANCH   4  23
TORSDOF 10
ENDMDL
MODEL 2
REMARK VINA RESULT:    -8.118      1.369      1.782
REMARK INTER + INTRA:         -13.913
REMARK INTER:                 -12.673
REMARK INTRA:                  -1.241
REMARK UNBOUND:                -1.287
REMARK  Name = 
REMARK  11 active torsions:
REMARK  status: ('A' for Active; 'I' for Inactive)
REMARK    1  A    between atoms: C_1  and  O_2
REMARK    2  A    between atoms: O_2  and  C_3
REMARK    3  A    between atoms: C_10  and  C_11
REMARK    4  A    between atoms: N_13  and  C_14
REMARK    5  A    between atoms: C_14  and  C_15
REMARK    6  A    between atoms: C_18  and  C_19
REMARK    7  A    between atoms: C_19  and  N_20
REMARK    8  A    between atoms: N_20  and  CA_21
REMARK    9  A    between atoms: CA_21  and  C_22
REMARK   10  A    between atoms: CA_21  and  C_24
REMARK   11  A    between atoms: C_22  and  O_23
REMARK                            x       y       z     vdW  Elec       q    Type
REMARK                         _______ _______ _______ _____ _____    ______ ____
ROOT
ATOM      1  C   UNL     1      47.034   7.589  12.940  0.00  0.00    +0.000 A 
ATOM      2  C   UNL     1      45.905   8.322  12.552  0.00  0.00    +0.000 A 
ATOM      3  C   UNL     1      44.783   7.680  12.020  0.00  0.00    +0.000 A 
ATOM      4  C   UNL     1      44.771   6.289  11.850  0.00  0.00    +0.000 A 
ATOM      5  C   UNL     1      45.898   5.557  12.257  0.00  0.00    +0.000 A 
ATOM      6  C   UNL     1      47.016   6.197  12.796  0.00  0.00    +0.000 A 
ENDROOT
BRANCH   1   7
ATOM      7  C   UNL     1      48.217   8.277  13.569  0.00  0.00    +0.000 C 
BRANCH   7  10
ATOM      8  C   UNL     1      49.094   7.325  15.654  0.00  0.00    +0.000 C 
ATOM      9  O   UNL     1      49.952   6.701  15.033  0.00  0.00    +0.000 OA
ATOM     10  N   UNL     1      48.195   8.124  15.004  0.00  0.00    +0.000 N 
ATOM     11  H   UNL     1      47.467   8.602  15.518  0.00  0.00    +0.000 HD
BRANCH   8  19
ATOM     12  C   UNL     1      48.769   4.697  17.865  0.00  0.00    +0.000 A 
ATOM     13  N   UNL     1      48.658   3.882  18.933  0.00  0.00    +0.000 NA
ATOM     14  C   UNL     1      48.621   4.436  20.148  0.00  0.00    +0.000 A 
ATOM     15  N   UNL     1      48.679   5.733  20.436  0.00  0.00    +0.000 NA
ATOM     16  C   UNL     1      48.799   6.509  19.347  0.00  0.00    +0.000 A 
ATOM     17  S   UNL     1      48.882   8.195  19.529  0.00  0.00    +0.000 S 
ATOM     18  C   UNL     1      49.008   8.419  17.851  0.00  0.00    +0.000 A 
ATOM     19  C   UNL     1      48.996   7.235  17.120  0.00  0.00    +0.000 A 
ATOM     20  C   UNL     1      48.862   6.091  18.019  0.00  0.00    +0.000 A 
BRANCH  12  22
ATOM     21  C   UNL     1      47.548   3.924  16.031  0.00  0.00    +0.000 C 
ATOM     22  O   UNL     1      48.836   4.118  16.614  0.00  0.00    +0.000 OA
ENDBRANCH  12  22
ENDBRANCH   8  19
ENDBRANCH   7  10
ENDBRANCH   1   7
BRANCH   4  23
ATOM     23  C   UNL     1      43.560   5.547  11.323  0.00  0.00    +0.000 C 
BRANCH  23  24
ATOM     24  N   UNL     1      43.741   5.023   9.968  0.00  0.00    +0.000 NA
ATOM     25  H   UNL     1      44.564   5.454   9.548  0.00  0.00    +0.000 HD
BRANCH  24  26
ATOM     26  CA  UNL     1      43.843   3.547   9.915  0.00  0.00    +0.000 C 
BRANCH  26  27
ATOM     27  C   UNL     1      44.962   3.150   8.940  0.00  0.00    +0.000 A 
ATOM     28  C   UNL     1      45.641   4.068   8.122  0.00  0.00    +0.000 A 
ATOM     29  C   UNL     1      46.668   3.659   7.265  0.00  0.00    +0.000 A 
ATOM     30  C   UNL     1      47.042   2.318   7.214  0.00  0.00    +0.000 A 
ATOM     31  C   UNL     1      46.390   1.391   8.016  0.00  0.00    +0.000 A 
ATOM     32  C   UNL     1      45.362   1.802   8.871  0.00  0.00    +0.000 A 
ENDBRANCH  26  27
BRANCH  26  33
ATOM     33  C   UNL     1      43.950   2.882  11.319  0.00  0.00    +0.000 C 
BRANCH  33  34
ATOM     34  O   UNL     1      43.004   1.829  11.522  0.00  0.00    +0.000 OA
ATOM     35  H   UNL     1      42.796   1.792  12.472  0.00  0.00    +0.000 HD
ENDBRANCH  33  34
ENDBRANCH  26  33
ENDBRANCH  24  26
ENDBRANCH  23  24
ENDBRANCH   4  23
TORSDOF 10
ENDMDL
MODEL 3
REMARK VINA RESULT:    -7.616      2.257      2.960
REMARK INTER + INTRA:         -13.134
REMARK INTER:                 -11.896
REMARK INTRA:                  -1.238
REMARK UNBOUND:                -1.287
REMARK  Name = 
REMARK  11 active torsions:
REMARK  status: ('A' for Active; 'I' for Inactive)
REMARK    1  A    between atoms: C_1  and  O_2
REMARK    2  A    between atoms: O_2  and  C_3
REMARK    3  A    between atoms: C_10  and  C_11
REMARK    4  A    between atoms: N_13  and  C_14
REMARK    5  A    between atoms: C_14  and  C_15
REMARK    6  A    between atoms: C_18  and  C_19
REMARK    7  A    between atoms: C_19  and  N_20
REMARK    8  A    between atoms: N_20  and  CA_21
REMARK    9  A    between atoms: CA_21  and  C_22
REMARK   10  A    between atoms: CA_21  and  C_24
REMARK   11  A    between atoms: C_22  and  O_23
REMARK                            x       y       z     vdW  Elec       q    Type
REMARK                         _______ _______ _______ _____ _____    ______ ____
ROOT
ATOM      1  C   UNL     1      47.044   7.726  13.282  0.00  0.00    +0.000 A 
ATOM      2  C   UNL     1      45.931   8.429  12.805  0.00  0.00    +0.000 A 
ATOM      3  C   UNL     1      44.920   7.771  12.097  0.00  0.00    +0.000 A 
ATOM      4  C   UNL     1      45.007   6.396  11.841  0.00  0.00    +0.000 A 
ATOM      5  C   UNL     1      46.116   5.693  12.337  0.00  0.00    +0.000 A 
ATOM      6  C   UNL     1      47.123   6.348  13.050  0.00  0.00    +0.000 A 
ENDROOT
BRANCH   1   7
ATOM      7  C   UNL     1      48.102   8.425  14.095  0.00  0.00    +0.000 C 
BRANCH   7  10
ATOM      8  C   UNL     1      48.936   7.047  15.947  0.00  0.00    +0.000 C 
ATOM      9  O   UNL     1      49.780   6.535  15.213  0.00  0.00    +0.000 OA
ATOM     10  N   UNL     1      48.065   7.986  15.469  0.00  0.00    +0.000 N 
ATOM     11  H   UNL     1      47.347   8.373  16.069  0.00  0.00    +0.000 HD
BRANCH   8  19
ATOM     12  C   UNL     1      48.744   8.838  18.889  0.00  0.00    +0.000 A 
ATOM     13  N   UNL     1      48.642   9.271  20.161  0.00  0.00    +0.000 NA
ATOM     14  C   UNL     1      48.554   8.359  21.133  0.00  0.00    +0.000 A 
ATOM     15  N   UNL     1      48.559   7.036  20.990  0.00  0.00    +0.000 NA
ATOM     16  C   UNL     1      48.653   6.646  19.708  0.00  0.00    +0.000 A 
ATOM     17  S   UNL     1      48.678   4.990  19.340  0.00  0.00    +0.000 S 
ATOM     18  C   UNL     1      48.804   5.311  17.678  0.00  0.00    +0.000 A 
ATOM     19  C   UNL     1      48.824   6.666  17.364  0.00  0.00    +0.000 A 
ATOM     20  C   UNL     1      48.741   7.466  18.584  0.00  0.00    +0.000 A 
BRANCH  12  22
ATOM     21  C   UNL     1      47.764  10.755  17.985  0.00  0.00    +0.000 C 
ATOM     22  O   UNL     1      48.806   9.784  17.887  0.00  0.00    +0.000 OA
ENDBRANCH  12  22
ENDBRANCH   8  19
ENDBRANCH   7  10
ENDBRANCH   1   7
BRANCH   4  23
ATOM     23  C   UNL     1      43.912   5.635  11.122  0.00  0.00    +0.000 C 
BRANCH  23  24
ATOM     24  N   UNL     1      44.332   5.092   9.829  0.00  0.00    +0.000 NA
ATOM     25  H   UNL     1      45.300   5.357   9.651  0.00  0.00    +0.000 HD
BRANCH  24  26
ATOM     26  CA  UNL     1      44.167   3.624   9.724  0.00  0.00    +0.000 C 
BRANCH  26  27
ATOM     27  C   UNL     1      45.221   3.063   8.757  0.00  0.00    +0.000 A 
ATOM     28  C   UNL     1      45.625   1.717   8.746  0.00  0.00    +0.000 A 
ATOM     29  C   UNL     1      46.574   1.250   7.830  0.00  0.00    +0.000 A 
ATOM     30  C   UNL     1      47.136   2.121   6.900  0.00  0.00    +0.000 A 
ATOM     31  C   UNL     1      46.750   3.456   6.888  0.00  0.00    +0.000 A 
ATOM     32  C   UNL     1      45.802   3.922   7.804  0.00  0.00    +0.000 A 
ENDBRANCH  26  27
BRANCH  26  33
ATOM     33  C   UNL     1      44.117   2.905  11.105  0.00  0.00    +0.000 C 
BRANCH  33  34
ATOM     34  O   UNL     1      42.807   2.462  11.466  0.00  0.00    +0.000 OA
ATOM     35  H   UNL     1      42.329   3.217  11.849  0.00  0.00    +0.000 HD
ENDBRANCH  33  34
ENDBRANCH  26  33
ENDBRANCH  24  26
ENDBRANCH  23  24
ENDBRANCH   4  23
TORSDOF 10
ENDMDL
MODEL 4
REMARK VINA RESULT:    -7.429      2.226      3.002
REMARK INTER + INTRA:         -12.843
REMARK INTER:                 -11.669
REMARK INTRA:                  -1.174
REMARK UNBOUND:                -1.287
REMARK  Name = 
REMARK  11 active torsions:
REMARK  status: ('A' for Active; 'I' for Inactive)
REMARK    1  A    between atoms: C_1  and  O_2
REMARK    2  A    between atoms: O_2  and  C_3
REMARK    3  A    between atoms: C_10  and  C_11
REMARK    4  A    between atoms: N_13  and  C_14
REMARK    5  A    between atoms: C_14  and  C_15
REMARK    6  A    between atoms: C_18  and  C_19
REMARK    7  A    between atoms: C_19  and  N_20
REMARK    8  A    between atoms: N_20  and  CA_21
REMARK    9  A    between atoms: CA_21  and  C_22
REMARK   10  A    between atoms: CA_21  and  C_24
REMARK   11  A    between atoms: C_22  and  O_23
REMARK                            x       y       z     vdW  Elec       q    Type
REMARK                         _______ _______ _______ _____ _____    ______ ____
ROOT
ATOM      1  C   UNL     1      48.278   7.332  14.698  0.00  0.00    +0.000 A 
ATOM      2  C   UNL     1      47.977   5.965  14.643  0.00  0.00    +0.000 A 
ATOM      3  C   UNL     1      47.100   5.465  13.676  0.00  0.00    +0.000 A 
ATOM      4  C   UNL     1      46.494   6.323  12.750  0.00  0.00    +0.000 A 
ATOM      5  C   UNL     1      46.812   7.689  12.798  0.00  0.00    +0.000 A 
ATOM      6  C   UNL     1      47.693   8.190  13.759  0.00  0.00    +0.000 A 
ENDROOT
BRANCH   1   7
ATOM      7  C   UNL     1      49.268   7.861  15.702  0.00  0.00    +0.000 C 
BRANCH   7  10
ATOM      8  C   UNL     1      50.204   6.265  17.316  0.00  0.00    +0.000 C 
ATOM      9  O   UNL     1      49.383   6.611  18.164  0.00  0.00    +0.000 OA
ATOM     10  N   UNL     1      50.216   6.838  16.074  0.00  0.00    +0.000 N 
ATOM     11  H   UNL     1      50.919   6.577  15.395  0.00  0.00    +0.000 HD
BRANCH   8  19
ATOM     12  C   UNL     1      50.203   2.823  17.098  0.00  0.00    +0.000 A 
ATOM     13  N   UNL     1      50.484   1.504  17.099  0.00  0.00    +0.000 NA
ATOM     14  C   UNL     1      51.698   1.118  17.499  0.00  0.00    +0.000 A 
ATOM     15  N   UNL     1      52.690   1.902  17.911  0.00  0.00    +0.000 NA
ATOM     16  C   UNL     1      52.373   3.207  17.887  0.00  0.00    +0.000 A 
ATOM     17  S   UNL     1      53.521   4.353  18.387  0.00  0.00    +0.000 S 
ATOM     18  C   UNL     1      52.446   5.632  18.088  0.00  0.00    +0.000 A 
ATOM     19  C   UNL     1      51.208   5.228  17.602  0.00  0.00    +0.000 A 
ATOM     20  C   UNL     1      51.163   3.772  17.489  0.00  0.00    +0.000 A 
BRANCH  12  22
ATOM     21  C   UNL     1      47.989   3.249  17.704  0.00  0.00    +0.000 C 
ATOM     22  O   UNL     1      48.957   3.218  16.657  0.00  0.00    +0.000 OA
ENDBRANCH  12  22
ENDBRANCH   8  19
ENDBRANCH   7  10
ENDBRANCH   1   7
BRANCH   4  23
ATOM     23  C   UNL     1      45.577   5.818  11.655  0.00  0.00    +0.000 C 
BRANCH  23  24
ATOM     24  N   UNL     1      45.434   4.361  11.640  0.00  0.00    +0.000 NA
ATOM     25  H   UNL     1      45.184   4.038  12.574  0.00  0.00    +0.000 HD
BRANCH  24  26
ATOM     26  CA  UNL     1      44.456   3.874  10.642  0.00  0.00    +0.000 C 
BRANCH  26  27
ATOM     27  C   UNL     1      45.203   3.405   9.384  0.00  0.00    +0.000 A 
ATOM     28  C   UNL     1      45.715   4.282   8.413  0.00  0.00    +0.000 A 
ATOM     29  C   UNL     1      46.408   3.806   7.295  0.00  0.00    +0.000 A 
ATOM     30  C   UNL     1      46.606   2.438   7.127  0.00  0.00    +0.000 A 
ATOM     31  C   UNL     1      46.113   1.550   8.074  0.00  0.00    +0.000 A 
ATOM     32  C   UNL     1      45.421   2.027   9.192  0.00  0.00    +0.000 A 
ENDBRANCH  26  27
BRANCH  26  33
ATOM     33  C   UNL     1      43.451   2.831  11.217  0.00  0.00    +0.000 C 
BRANCH  33  34
ATOM     34  O   UNL     1      43.821   2.338  12.506  0.00  0.00    +0.000 OA
ATOM     35  H   UNL     1      43.418   1.460  12.619  0.00  0.00    +0.000 HD
ENDBRANCH  33  34
ENDBRANCH  26  33
ENDBRANCH  24  26
ENDBRANCH  23  24
ENDBRANCH   4  23
TORSDOF 10
ENDMDL
MODEL 5
REMARK VINA RESULT:    -7.293      2.508      2.922
REMARK INTER + INTRA:         -12.630
REMARK INTER:                 -11.677
REMARK INTRA:                  -0.953
REMARK UNBOUND:                -1.287
REMARK  Name = 
REMARK  11 active torsions:
REMARK  status: ('A' for Active; 'I' for Inactive)
REMARK    1  A    between atoms: C_1  and  O_2
REMARK    2  A    between atoms: O_2  and  C_3
REMARK    3  A    between atoms: C_10  and  C_11
REMARK    4  A    between atoms: N_13  and  C_14
REMARK    5  A    between atoms: C_14  and  C_15
REMARK    6  A    between atoms: C_18  and  C_19
REMARK    7  A    between atoms: C_19  and  N_20
REMARK    8  A    between atoms: N_20  and  CA_21
REMARK    9  A    between atoms: CA_21  and  C_22
REMARK   10  A    between atoms: CA_21  and  C_24
REMARK   11  A    between atoms: C_22  and  O_23
REMARK                            x       y       z     vdW  Elec       q    Type
REMARK                         _______ _______ _______ _____ _____    ______ ____
ROOT
ATOM      1  C   UNL     1      46.992   8.008  13.102  0.00  0.00    +0.000 A 
ATOM      2  C   UNL     1      47.344   6.736  12.633  0.00  0.00    +0.000 A 
ATOM      3  C   UNL     1      46.453   5.988  11.857  0.00  0.00    +0.000 A 
ATOM      4  C   UNL     1      45.183   6.491  11.544  0.00  0.00    +0.000 A 
ATOM      5  C   UNL     1      44.842   7.773  12.001  0.00  0.00    +0.000 A 
ATOM      6  C   UNL     1      45.734   8.524  12.770  0.00  0.00    +0.000 A 
ENDROOT
BRANCH   1   7
ATOM      7  C   UNL     1      47.974   8.836  13.887  0.00  0.00    +0.000 C 
BRANCH   7  10
ATOM      8  C   UNL     1      48.447   9.427  16.221  0.00  0.00    +0.000 C 
ATOM      9  O   UNL     1      49.492   9.986  15.890  0.00  0.00    +0.000 OA
ATOM     10  N   UNL     1      47.642   8.831  15.291  0.00  0.00    +0.000 N 
ATOM     11  H   UNL     1      46.806   8.338  15.576  0.00  0.00    +0.000 HD
BRANCH   8  19
ATOM     12  C   UNL     1      48.564   6.983  18.653  0.00  0.00    +0.000 A 
ATOM     13  N   UNL     1      48.494   6.239  19.775  0.00  0.00    +0.000 NA
ATOM     14  C   UNL     1      47.953   6.789  20.865  0.00  0.00    +0.000 A 
ATOM     15  N   UNL     1      47.458   8.019  20.977  0.00  0.00    +0.000 NA
ATOM     16  C   UNL     1      47.555   8.730  19.841  0.00  0.00    +0.000 A 
ATOM     17  S   UNL     1      46.966  10.321  19.802  0.00  0.00    +0.000 S 
ATOM     18  C   UNL     1      47.418  10.500  18.175  0.00  0.00    +0.000 A 
ATOM     19  C   UNL     1      48.024   9.373  17.630  0.00  0.00    +0.000 A 
ATOM     20  C   UNL     1      48.098   8.309  18.629  0.00  0.00    +0.000 A 
BRANCH  12  22
ATOM     21  C   UNL     1      48.242   5.608  16.794  0.00  0.00    +0.000 C 
ATOM     22  O   UNL     1      49.150   6.419  17.538  0.00  0.00    +0.000 OA
ENDBRANCH  12  22
ENDBRANCH   8  19
ENDBRANCH   7  10
ENDBRANCH   1   7
BRANCH   4  23
ATOM     23  C   UNL     1      44.206   5.736  10.666  0.00  0.00    +0.000 C 
BRANCH  23  24
ATOM     24  N   UNL     1      44.833   5.110   9.500  0.00  0.00    +0.000 NA
ATOM     25  H   UNL     1      45.846   5.185   9.583  0.00  0.00    +0.000 HD
BRANCH  24  26
ATOM     26  CA  UNL     1      44.430   3.700   9.300  0.00  0.00    +0.000 C 
BRANCH  26  27
ATOM     27  C   UNL     1      45.510   2.973   8.485  0.00  0.00    +0.000 A 
ATOM     28  C   UNL     1      45.732   1.587   8.552  0.00  0.00    +0.000 A 
ATOM     29  C   UNL     1      46.716   0.969   7.774  0.00  0.00    +0.000 A 
ATOM     30  C   UNL     1      47.498   1.727   6.905  0.00  0.00    +0.000 A 
ATOM     31  C   UNL     1      47.297   3.099   6.818  0.00  0.00    +0.000 A 
ATOM     32  C   UNL     1      46.312   3.716   7.597  0.00  0.00    +0.000 A 
ENDBRANCH  26  27
BRANCH  26  33
ATOM     33  C   UNL     1      44.027   2.977  10.619  0.00  0.00    +0.000 C 
BRANCH  33  34
ATOM     34  O   UNL     1      45.129   2.747  11.500  0.00  0.00    +0.000 OA
ATOM     35  H   UNL     1      45.319   3.579  11.967  0.00  0.00    +0.000 HD
ENDBRANCH  33  34
ENDBRANCH  26  33
ENDBRANCH  24  26
ENDBRANCH  23  24
ENDBRANCH   4  23
TORSDOF 10
ENDMDL
MODEL 6
REMARK VINA RESULT:    -6.680      2.757      4.387
REMARK INTER + INTRA:         -11.677
REMARK INTER:                 -10.517
REMARK INTRA:                  -1.160
REMARK UNBOUND:                -1.287
REMARK  Name = 
REMARK  11 active torsions:
REMARK  status: ('A' for Active; 'I' for Inactive)
REMARK    1  A    between atoms: C_1  and  O_2
REMARK    2  A    between atoms: O_2  and  C_3
REMARK    3  A    between atoms: C_10  and  C_11
REMARK    4  A    between atoms: N_13  and  C_14
REMARK    5  A    between atoms: C_14  and  C_15
REMARK    6  A    between atoms: C_18  and  C_19
REMARK    7  A    between atoms: C_19  and  N_20
REMARK    8  A    between atoms: N_20  and  CA_21
REMARK    9  A    between atoms: CA_21  and  C_22
REMARK   10  A    between atoms: CA_21  and  C_24
REMARK   11  A    between atoms: C_22  and  O_23
REMARK                            x       y       z     vdW  Elec       q    Type
REMARK                         _______ _______ _______ _____ _____    ______ ____
ROOT
ATOM      1  C   UNL     1      47.237   4.159  15.515  0.00  0.00    +0.000 A 
ATOM      2  C   UNL     1      47.460   5.519  15.263  0.00  0.00    +0.000 A 
ATOM      3  C   UNL     1      47.202   6.063  14.001  0.00  0.00    +0.000 A 
ATOM      4  C   UNL     1      46.728   5.257  12.959  0.00  0.00    +0.000 A 
ATOM      5  C   UNL     1      46.489   3.898  13.222  0.00  0.00    +0.000 A 
ATOM      6  C   UNL     1      46.740   3.354  14.483  0.00  0.00    +0.000 A 
ENDROOT
BRANCH   1   7
ATOM      7  C   UNL     1      47.459   3.587  16.890  0.00  0.00    +0.000 C 
BRANCH   7  10
ATOM      8  C   UNL     1      49.733   2.663  16.898  0.00  0.00    +0.000 C 
ATOM      9  O   UNL     1      49.358   1.680  16.261  0.00  0.00    +0.000 OA
ATOM     10  N   UNL     1      48.855   3.649  17.252  0.00  0.00    +0.000 N 
ATOM     11  H   UNL     1      49.162   4.434  17.811  0.00  0.00    +0.000 HD
BRANCH   8  19
ATOM     12  C   UNL     1      51.826   5.380  17.266  0.00  0.00    +0.000 A 
ATOM     13  N   UNL     1      52.838   6.239  17.503  0.00  0.00    +0.000 NA
ATOM     14  C   UNL     1      54.008   5.739  17.909  0.00  0.00    +0.000 A 
ATOM     15  N   UNL     1      54.303   4.458  18.109  0.00  0.00    +0.000 NA
ATOM     16  C   UNL     1      53.268   3.636  17.871  0.00  0.00    +0.000 A 
ATOM     17  S   UNL     1      53.467   1.963  18.071  0.00  0.00    +0.000 S 
ATOM     18  C   UNL     1      51.859   1.667  17.616  0.00  0.00    +0.000 A 
ATOM     19  C   UNL     1      51.138   2.816  17.310  0.00  0.00    +0.000 A 
ATOM     20  C   UNL     1      51.987   3.996  17.456  0.00  0.00    +0.000 A 
BRANCH  12  22
ATOM     21  C   UNL     1      50.749   6.945  15.909  0.00  0.00    +0.000 C 
ATOM     22  O   UNL     1      50.611   5.903  16.875  0.00  0.00    +0.000 OA
ENDBRANCH  12  22
ENDBRANCH   8  19
ENDBRANCH   7  10
ENDBRANCH   1   7
BRANCH   4  23
ATOM     23  C   UNL     1      46.388   5.814  11.592  0.00  0.00    +0.000 C 
BRANCH  23  24
ATOM     24  N   UNL     1      45.078   6.465  11.537  0.00  0.00    +0.000 NA
ATOM     25  H   UNL     1      45.140   7.296  10.950  0.00  0.00    +0.000 HD
BRANCH  24  26
ATOM     26  CA  UNL     1      43.996   5.573  11.063  0.00  0.00    +0.000 C 
BRANCH  26  27
ATOM     27  C   UNL     1      44.577   4.545  10.081  0.00  0.00    +0.000 A 
ATOM     28  C   UNL     1      45.374   4.892   8.976  0.00  0.00    +0.000 A 
ATOM     29  C   UNL     1      45.898   3.915   8.122  0.00  0.00    +0.000 A 
ATOM     30  C   UNL     1      45.637   2.568   8.358  0.00  0.00    +0.000 A 
ATOM     31  C   UNL     1      44.855   2.199   9.445  0.00  0.00    +0.000 A 
ATOM     32  C   UNL     1      44.332   3.176  10.299  0.00  0.00    +0.000 A 
ENDBRANCH  26  27
BRANCH  26  33
ATOM     33  C   UNL     1      43.155   4.952  12.218  0.00  0.00    +0.000 C 
BRANCH  33  34
ATOM     34  O   UNL     1      43.001   5.823  13.341  0.00  0.00    +0.000 OA
ATOM     35  H   UNL     1      42.385   6.532  13.089  0.00  0.00    +0.000 HD
ENDBRANCH  33  34
ENDBRANCH  26  33
ENDBRANCH  24  26
ENDBRANCH  23  24
ENDBRANCH   4  23
TORSDOF 10
ENDMDL
MODEL 7
REMARK VINA RESULT:    -6.669      3.302      8.063
REMARK INTER + INTRA:         -11.660
REMARK INTER:                  -9.638
REMARK INTRA:                  -2.023
REMARK UNBOUND:                -1.287
REMARK  Name = 
REMARK  11 active torsions:
REMARK  status: ('A' for Active; 'I' for Inactive)
REMARK    1  A    between atoms: C_1  and  O_2
REMARK    2  A    between atoms: O_2  and  C_3
REMARK    3  A    between atoms: C_10  and  C_11
REMARK    4  A    between atoms: N_13  and  C_14
REMARK    5  A    between atoms: C_14  and  C_15
REMARK    6  A    between atoms: C_18  and  C_19
REMARK    7  A    between atoms: C_19  and  N_20
REMARK    8  A    between atoms: N_20  and  CA_21
REMARK    9  A    between atoms: CA_21  and  C_22
REMARK   10  A    between atoms: CA_21  and  C_24
REMARK   11  A    between atoms: C_22  and  O_23
REMARK                            x       y       z     vdW  Elec       q    Type
REMARK                         _______ _______ _______ _____ _____    ______ ____
ROOT
ATOM      1  C   UNL     1      48.395   7.908  13.409  0.00  0.00    +0.000 A 
ATOM      2  C   UNL     1      47.906   8.954  14.202  0.00  0.00    +0.000 A 
ATOM      3  C   UNL     1      48.029   8.914  15.594  0.00  0.00    +0.000 A 
ATOM      4  C   UNL     1      48.632   7.818  16.226  0.00  0.00    +0.000 A 
ATOM      5  C   UNL     1      49.136   6.781  15.425  0.00  0.00    +0.000 A 
ATOM      6  C   UNL     1      49.021   6.824  14.034  0.00  0.00    +0.000 A 
ENDROOT
BRANCH   1   7
ATOM      7  C   UNL     1      48.315   7.982  11.907  0.00  0.00    +0.000 C 
BRANCH   7  10
ATOM      8  C   UNL     1      46.247   6.884  11.172  0.00  0.00    +0.000 C 
ATOM      9  O   UNL     1      45.593   7.889  11.443  0.00  0.00    +0.000 OA
ATOM     10  N   UNL     1      47.598   6.847  11.376  0.00  0.00    +0.000 N 
ATOM     11  H   UNL     1      48.124   6.003  11.188  0.00  0.00    +0.000 HD
BRANCH   8  19
ATOM     12  C   UNL     1      44.505   4.260  12.580  0.00  0.00    +0.000 A 
ATOM     13  N   UNL     1      43.794   3.147  12.849  0.00  0.00    +0.000 NA
ATOM     14  C   UNL     1      43.455   2.352  11.831  0.00  0.00    +0.000 A 
ATOM     15  N   UNL     1      43.748   2.532  10.546  0.00  0.00    +0.000 NA
ATOM     16  C   UNL     1      44.449   3.655  10.319  0.00  0.00    +0.000 A 
ATOM     17  S   UNL     1      44.914   4.040   8.733  0.00  0.00    +0.000 S 
ATOM     18  C   UNL     1      45.684   5.461   9.252  0.00  0.00    +0.000 A 
ATOM     19  C   UNL     1      45.604   5.679  10.623  0.00  0.00    +0.000 A 
ATOM     20  C   UNL     1      44.869   4.590  11.263  0.00  0.00    +0.000 A 
BRANCH  12  22
ATOM     21  C   UNL     1      46.084   4.766  14.223  0.00  0.00    +0.000 C 
ATOM     22  O   UNL     1      44.827   5.092  13.632  0.00  0.00    +0.000 OA
ENDBRANCH  12  22
ENDBRANCH   8  19
ENDBRANCH   7  10
ENDBRANCH   1   7
BRANCH   4  23
ATOM     23  C   UNL     1      48.830   7.755  17.726  0.00  0.00    +0.000 C 
BRANCH  23  24
ATOM     24  N   UNL     1      47.877   6.874  18.403  0.00  0.00    +0.000 NA
ATOM     25  H   UNL     1      47.249   6.465  17.713  0.00  0.00    +0.000 HD
BRANCH  24  26
ATOM     26  CA  UNL     1      48.524   5.815  19.211  0.00  0.00    +0.000 C 
BRANCH  26  27
ATOM     27  C   UNL     1      48.775   4.584  18.327  0.00  0.00    +0.000 A 
ATOM     28  C   UNL     1      50.037   3.986  18.169  0.00  0.00    +0.000 A 
ATOM     29  C   UNL     1      50.209   2.852  17.368  0.00  0.00    +0.000 A 
ATOM     30  C   UNL     1      49.118   2.287  16.712  0.00  0.00    +0.000 A 
ATOM     31  C   UNL     1      47.859   2.857  16.856  0.00  0.00    +0.000 A 
ATOM     32  C   UNL     1      47.688   3.991  17.656  0.00  0.00    +0.000 A 
ENDBRANCH  26  27
BRANCH  26  33
ATOM     33  C   UNL     1      49.778   6.310  19.992  0.00  0.00    +0.000 C 
BRANCH  33  34
ATOM     34  O   UNL     1      49.457   7.105  21.136  0.00  0.00    +0.000 OA
ATOM     35  H   UNL     1      49.394   8.032  20.849  0.00  0.00    +0.000 HD
ENDBRANCH  33  34
ENDBRANCH  26  33
ENDBRANCH  24  26
ENDBRANCH  23  24
ENDBRANCH   4  23
TORSDOF 10
ENDMDL
MODEL 8
REMARK VINA RESULT:    -6.398      3.009      8.207
REMARK INTER + INTRA:         -11.239
REMARK INTER:                  -9.452
REMARK INTRA:                  -1.787
REMARK UNBOUND:                -1.287
REMARK  Name = 
REMARK  11 active torsions:
REMARK  status: ('A' for Active; 'I' for Inactive)
REMARK    1  A    between atoms: C_1  and  O_2
REMARK    2  A    between atoms: O_2  and  C_3
REMARK    3  A    between atoms: C_10  and  C_11
REMARK    4  A    between atoms: N_13  and  C_14
REMARK    5  A    between atoms: C_14  and  C_15
REMARK    6  A    between atoms: C_18  and  C_19
REMARK    7  A    between atoms: C_19  and  N_20
REMARK    8  A    between atoms: N_20  and  CA_21
REMARK    9  A    between atoms: CA_21  and  C_22
REMARK   10  A    between atoms: CA_21  and  C_24
REMARK   11  A    between atoms: C_22  and  O_23
REMARK                            x       y       z     vdW  Elec       q    Type
REMARK                         _______ _______ _______ _____ _____    ______ ____
ROOT
ATOM      1  C   UNL     1      48.403   7.970  13.262  0.00  0.00    +0.000 A 
ATOM      2  C   UNL     1      49.559   7.301  13.684  0.00  0.00    +0.000 A 
ATOM      3  C   UNL     1      50.041   7.458  14.987  0.00  0.00    +0.000 A 
ATOM      4  C   UNL     1      49.384   8.300  15.894  0.00  0.00    +0.000 A 
ATOM      5  C   UNL     1      48.216   8.955  15.472  0.00  0.00    +0.000 A 
ATOM      6  C   UNL     1      47.730   8.793  14.173  0.00  0.00    +0.000 A 
ENDROOT
BRANCH   1   7
ATOM      7  C   UNL     1      47.852   7.753  11.878  0.00  0.00    +0.000 C 
BRANCH   7  10
ATOM      8  C   UNL     1      45.729   6.552  11.604  0.00  0.00    +0.000 C 
ATOM      9  O   UNL     1      45.124   7.613  11.459  0.00  0.00    +0.000 OA
ATOM     10  N   UNL     1      47.079   6.535  11.820  0.00  0.00    +0.000 N 
ATOM     11  H   UNL     1      47.563   5.661  11.978  0.00  0.00    +0.000 HD
BRANCH   8  19
ATOM     12  C   UNL     1      45.343   4.136   9.173  0.00  0.00    +0.000 A 
ATOM     13  N   UNL     1      45.044   3.048   8.434  0.00  0.00    +0.000 NA
ATOM     14  C   UNL     1      44.293   2.094   8.991  0.00  0.00    +0.000 A 
ATOM     15  N   UNL     1      43.787   2.092  10.221  0.00  0.00    +0.000 NA
ATOM     16  C   UNL     1      44.114   3.188  10.926  0.00  0.00    +0.000 A 
ATOM     17  S   UNL     1      43.548   3.355  12.517  0.00  0.00    +0.000 S 
ATOM     18  C   UNL     1      44.323   4.855  12.687  0.00  0.00    +0.000 A 
ATOM     19  C   UNL     1      45.026   5.260  11.557  0.00  0.00    +0.000 A 
ATOM     20  C   UNL     1      44.893   4.261  10.499  0.00  0.00    +0.000 A 
BRANCH  12  22
ATOM     21  C   UNL     1      46.959   4.591   7.551  0.00  0.00    +0.000 C 
ATOM     22  O   UNL     1      46.143   5.104   8.603  0.00  0.00    +0.000 OA
ENDBRANCH  12  22
ENDBRANCH   8  19
ENDBRANCH   7  10
ENDBRANCH   1   7
BRANCH   4  23
ATOM     23  C   UNL     1      49.843   8.462  17.329  0.00  0.00    +0.000 C 
BRANCH  23  24
ATOM     24  N   UNL     1      49.965   7.193  18.048  0.00  0.00    +0.000 NA
ATOM     25  H   UNL     1      50.504   7.341  18.901  0.00  0.00    +0.000 HD
BRANCH  24  26
ATOM     26  CA  UNL     1      48.663   6.562  18.359  0.00  0.00    +0.000 C 
BRANCH  26  27
ATOM     27  C   UNL     1      48.618   5.157  17.739  0.00  0.00    +0.000 A 
ATOM     28  C   UNL     1      49.417   4.088  18.180  0.00  0.00    +0.000 A 
ATOM     29  C   UNL     1      49.324   2.821  17.596  0.00  0.00    +0.000 A 
ATOM     30  C   UNL     1      48.422   2.594  16.559  0.00  0.00    +0.000 A 
ATOM     31  C   UNL     1      47.618   3.632  16.108  0.00  0.00    +0.000 A 
ATOM     32  C   UNL     1      47.712   4.899  16.692  0.00  0.00    +0.000 A 
ENDBRANCH  26  27
BRANCH  26  33
ATOM     33  C   UNL     1      48.297   6.607  19.872  0.00  0.00    +0.000 C 
BRANCH  33  34
ATOM     34  O   UNL     1      47.101   5.891  20.189  0.00  0.00    +0.000 OA
ATOM     35  H   UNL     1      47.329   5.192  20.825  0.00  0.00    +0.000 HD
ENDBRANCH  33  34
ENDBRANCH  26  33
ENDBRANCH  24  26
ENDBRANCH  23  24
ENDBRANCH   4  23
TORSDOF 10
ENDMDL
MODEL 9
REMARK VINA RESULT:    -5.875      3.174      8.586
REMARK INTER + INTRA:         -10.426
REMARK INTER:                  -8.961
REMARK INTRA:                  -1.464
REMARK UNBOUND:                -1.287
REMARK  Name = 
REMARK  11 active torsions:
REMARK  status: ('A' for Active; 'I' for Inactive)
REMARK    1  A    between atoms: C_1  and  O_2
REMARK    2  A    between atoms: O_2  and  C_3
REMARK    3  A    between atoms: C_10  and  C_11
REMARK    4  A    between atoms: N_13  and  C_14
REMARK    5  A    between atoms: C_14  and  C_15
REMARK    6  A    between atoms: C_18  and  C_19
REMARK    7  A    between atoms: C_19  and  N_20
REMARK    8  A    between atoms: N_20  and  CA_21
REMARK    9  A    between atoms: CA_21  and  C_22
REMARK   10  A    between atoms: CA_21  and  C_24
REMARK   11  A    between atoms: C_22  and  O_23
REMARK                            x       y       z     vdW  Elec       q    Type
REMARK                         _______ _______ _______ _____ _____    ______ ____
ROOT
ATOM      1  C   UNL     1      48.911   7.867  12.670  0.00  0.00    +0.000 A 
ATOM      2  C   UNL     1      50.122   8.564  12.576  0.00  0.00    +0.000 A 
ATOM      3  C   UNL     1      51.057   8.516  13.614  0.00  0.00    +0.000 A 
ATOM      4  C   UNL     1      50.797   7.779  14.776  0.00  0.00    +0.000 A 
ATOM      5  C   UNL     1      49.590   7.067  14.858  0.00  0.00    +0.000 A 
ATOM      6  C   UNL     1      48.657   7.108  13.819  0.00  0.00    +0.000 A 
ENDROOT
BRANCH   1   7
ATOM      7  C   UNL     1      47.931   7.871  11.527  0.00  0.00    +0.000 C 
BRANCH   7  10
ATOM      8  C   UNL     1      45.747   6.752  11.595  0.00  0.00    +0.000 C 
ATOM      9  O   UNL     1      45.169   7.837  11.626  0.00  0.00    +0.000 OA
ATOM     10  N   UNL     1      47.112   6.683  11.550  0.00  0.00    +0.000 N 
ATOM     11  H   UNL     1      47.582   5.787  11.565  0.00  0.00    +0.000 HD
BRANCH   8  19
ATOM     12  C   UNL     1      45.327   4.201   9.312  0.00  0.00    +0.000 A 
ATOM     13  N   UNL     1      45.005   3.080   8.636  0.00  0.00    +0.000 NA
ATOM     14  C   UNL     1      44.205   2.192   9.231  0.00  0.00    +0.000 A 
ATOM     15  N   UNL     1      43.670   2.287  10.445  0.00  0.00    +0.000 NA
ATOM     16  C   UNL     1      44.021   3.413  11.088  0.00  0.00    +0.000 A 
ATOM     17  S   UNL     1      43.425   3.702  12.650  0.00  0.00    +0.000 S 
ATOM     18  C   UNL     1      44.252   5.181  12.745  0.00  0.00    +0.000 A 
ATOM     19  C   UNL     1      44.997   5.486  11.611  0.00  0.00    +0.000 A 
ATOM     20  C   UNL     1      44.851   4.427  10.615  0.00  0.00    +0.000 A 
BRANCH  12  22
ATOM     21  C   UNL     1      46.844   4.545   7.570  0.00  0.00    +0.000 C 
ATOM     22  O   UNL     1      46.177   5.101   8.703  0.00  0.00    +0.000 OA
ENDBRANCH  12  22
ENDBRANCH   8  19
ENDBRANCH   7  10
ENDBRANCH   1   7
BRANCH   4  23
ATOM     23  C   UNL     1      51.802   7.659  15.903  0.00  0.00    +0.000 C 
BRANCH  23  24
ATOM     24  N   UNL     1      52.194   6.278  16.190  0.00  0.00    +0.000 NA
ATOM     25  H   UNL     1      53.184   6.159  15.980  0.00  0.00    +0.000 HD
BRANCH  24  26
ATOM     26  CA  UNL     1      51.903   5.858  17.580  0.00  0.00    +0.000 C 
BRANCH  26  27
ATOM     27  C   UNL     1      50.768   4.823  17.571  0.00  0.00    +0.000 A 
ATOM     28  C   UNL     1      49.407   5.162  17.663  0.00  0.00    +0.000 A 
ATOM     29  C   UNL     1      48.410   4.182  17.630  0.00  0.00    +0.000 A 
ATOM     30  C   UNL     1      48.754   2.839  17.499  0.00  0.00    +0.000 A 
ATOM     31  C   UNL     1      50.092   2.478  17.402  0.00  0.00    +0.000 A 
ATOM     32  C   UNL     1      51.088   3.458  17.436  0.00  0.00    +0.000 A 
ENDBRANCH  26  27
BRANCH  26  33
ATOM     33  C   UNL     1      53.169   5.415  18.371  0.00  0.00    +0.000 C 
BRANCH  33  34
ATOM     34  O   UNL     1      54.299   5.155  17.535  0.00  0.00    +0.000 OA
ATOM     35  H   UNL     1      53.988   4.668  16.753  0.00  0.00    +0.000 HD
ENDBRANCH  33  34
ENDBRANCH  26  33
ENDBRANCH  24  26
ENDBRANCH  23  24
ENDBRANCH   4  23
TORSDOF 10
ENDMDL
