MODEL 1
REMARK VINA RESULT:    -7.821      0.000      0.000
REMARK INTER + INTRA:         -11.131
REMARK INTER:                 -10.336
REMARK INTRA:                  -0.795
REMARK UNBOUND:                -0.795
REMARK  Name = 
REMARK  7 active torsions:
REMARK  status: ('A' for Active; 'I' for Inactive)
REMARK    1  A    between atoms: C_1  and  S_2
REMARK    2  A    between atoms: S_2  and  C_5
REMARK    3  A    between atoms: N_7  and  C_8
REMARK    4  A    between atoms: C_8  and  C_9
REMARK    5  A    between atoms: C_12  and  C_13
REMARK    6  A    between atoms: C_13  and  C_14
REMARK    7  A    between atoms: C_14  and  N_15
REMARK                            x       y       z     vdW  Elec       q    Type
REMARK                         _______ _______ _______ _____ _____    ______ ____
ROOT
ATOM      1  C   UNL     1      45.916   7.132  12.193  0.00  0.00    +0.000 A 
ATOM      2  C   UNL     1      44.866   6.849  11.345  0.00  0.00    +0.000 A 
ATOM      3  N   UNL     1      44.647   5.493  11.378  0.00  0.00    +0.000 N 
ATOM      4  C   UNL     1      45.505   4.902  12.290  0.00  0.00    +0.000 A 
ATOM      5  C   UNL     1      45.636   3.564  12.702  0.00  0.00    +0.000 A 
ATOM      6  C   UNL     1      46.637   3.247  13.626  0.00  0.00    +0.000 A 
ATOM      7  C   UNL     1      47.476   4.228  14.132  0.00  0.00    +0.000 A 
ATOM      8  C   UNL     1      47.330   5.561  13.734  0.00  0.00    +0.000 A 
ATOM      9  C   UNL     1      46.333   5.912  12.798  0.00  0.00    +0.000 A 
ENDROOT
BRANCH   1  11
ATOM     10  C   UNL     1      45.458   9.833  11.744  0.00  0.00    +0.000 C 
ATOM     11  S   UNL     1      46.603   8.691  12.473  0.00  0.00    +0.000 S 
ATOM     12  O   UNL     1      47.835   8.698  11.713  0.00  0.00    +0.000 OA
ATOM     13  O   UNL     1      46.581   8.862  13.914  0.00  0.00    +0.000 OA
ENDBRANCH   1  11
BRANCH   3  14
ATOM     14  C   UNL     1      43.679   4.796  10.527  0.00  0.00    +0.000 C 
BRANCH  14  15
ATOM     15  C   UNL     1      44.404   3.931   9.523  0.00  0.00    +0.000 A 
ATOM     16  C   UNL     1      44.310   2.535   9.587  0.00  0.00    +0.000 A 
ATOM     17  C   UNL     1      45.160   1.732   8.825  0.00  0.00    +0.000 A 
ATOM     18  C   UNL     1      46.116   2.310   7.984  0.00  0.00    +0.000 A 
ATOM     19  C   UNL     1      46.133   3.702   7.831  0.00  0.00    +0.000 A 
ATOM     20  C   UNL     1      45.286   4.506   8.597  0.00  0.00    +0.000 A 
BRANCH  18  21
ATOM     21  C   UNL     1      47.170   1.451   7.330  0.00  0.00    +0.000 C 
BRANCH  21  22
ATOM     22  C   UNL     1      48.300   2.246   6.677  0.00  0.00    +0.000 C 
BRANCH  22  23
ATOM     23  N   UNL     1      48.345   1.968   5.240  0.00  0.00    +0.000 NA
ATOM     24  H   UNL     1      49.108   2.492   4.812  0.00  0.00    +0.000 HD
ATOM     25  H   UNL     1      47.488   2.303   4.804  0.00  0.00    +0.000 HD
ENDBRANCH  22  23
ENDBRANCH  21  22
ENDBRANCH  18  21
ENDBRANCH  14  15
ENDBRANCH   3  14
TORSDOF 6
ENDMDL
MODEL 2
REMARK VINA RESULT:    -7.751      2.507      3.397
REMARK INTER + INTRA:         -11.038
REMARK INTER:                 -10.859
REMARK INTRA:                  -0.179
REMARK UNBOUND:                -0.795
REMARK  Name = 
REMARK  7 active torsions:
REMARK  status: ('A' for Active; 'I' for Inactive)
REMARK    1  A    between atoms: C_1  and  S_2
REMARK    2  A    between atoms: S_2  and  C_5
REMARK    3  A    between atoms: N_7  and  C_8
REMARK    4  A    between atoms: C_8  and  C_9
REMARK    5  A    between atoms: C_12  and  C_13
REMARK    6  A    between atoms: C_13  and  C_14
REMARK    7  A    between atoms: C_14  and  N_15
REMARK                            x       y       z     vdW  Elec       q    Type
REMARK                         _______ _______ _______ _____ _____    ______ ____
ROOT
ATOM      1  C   UNL     1      46.901   4.739  14.312  0.00  0.00    +0.000 A 
ATOM      2  C   UNL     1      45.764   4.391  13.612  0.00  0.00    +0.000 A 
ATOM      3  N   UNL     1      45.657   5.230  12.531  0.00  0.00    +0.000 N 
ATOM      4  C   UNL     1      46.749   6.080  12.487  0.00  0.00    +0.000 A 
ATOM      5  C   UNL     1      47.108   7.077  11.563  0.00  0.00    +0.000 A 
ATOM      6  C   UNL     1      48.269   7.818  11.800  0.00  0.00    +0.000 A 
ATOM      7  C   UNL     1      49.055   7.574  12.916  0.00  0.00    +0.000 A 
ATOM      8  C   UNL     1      48.705   6.568  13.824  0.00  0.00    +0.000 A 
ATOM      9  C   UNL     1      47.535   5.806  13.615  0.00  0.00    +0.000 A 
ENDROOT
BRANCH   1  11
ATOM     10  C   UNL     1      48.542   5.209  16.501  0.00  0.00    +0.000 C 
ATOM     11  S   UNL     1      47.457   4.008  15.774  0.00  0.00    +0.000 S 
ATOM     12  O   UNL     1      48.229   2.861  15.348  0.00  0.00    +0.000 OA
ATOM     13  O   UNL     1      46.275   3.881  16.607  0.00  0.00    +0.000 OA
ENDBRANCH   1  11
BRANCH   3  14
ATOM     14  C   UNL     1      44.519   5.239  11.607  0.00  0.00    +0.000 C 
BRANCH  14  15
ATOM     15  C   UNL     1      44.840   4.410  10.386  0.00  0.00    +0.000 A 
ATOM     16  C   UNL     1      44.598   3.030  10.378  0.00  0.00    +0.000 A 
ATOM     17  C   UNL     1      45.110   2.226   9.359  0.00  0.00    +0.000 A 
ATOM     18  C   UNL     1      45.871   2.787   8.328  0.00  0.00    +0.000 A 
ATOM     19  C   UNL     1      46.014   4.179   8.270  0.00  0.00    +0.000 A 
ATOM     20  C   UNL     1      45.507   4.984   9.293  0.00  0.00    +0.000 A 
BRANCH  18  21
ATOM     21  C   UNL     1      46.600   1.897   7.352  0.00  0.00    +0.000 C 
BRANCH  21  22
ATOM     22  C   UNL     1      47.929   2.471   6.864  0.00  0.00    +0.000 C 
BRANCH  22  23
ATOM     23  N   UNL     1      48.351   1.789   5.638  0.00  0.00    +0.000 NA
ATOM     24  H   UNL     1      48.952   2.405   5.092  0.00  0.00    +0.000 HD
ATOM     25  H   UNL     1      47.535   1.598   5.059  0.00  0.00    +0.000 HD
ENDBRANCH  22  23
ENDBRANCH  21  22
ENDBRANCH  18  21
ENDBRANCH  14  15
ENDBRANCH   3  14
TORSDOF 6
ENDMDL
MODEL 3
REMARK VINA RESULT:    -7.663      2.020      3.086
REMARK INTER + INTRA:         -10.922
REMARK INTER:                 -10.703
REMARK INTRA:                  -0.219
REMARK UNBOUND:                -0.795
REMARK  Name = 
REMARK  7 active torsions:
REMARK  status: ('A' for Active; 'I' for Inactive)
REMARK    1  A    between atoms: C_1  and  S_2
REMARK    2  A    between atoms: S_2  and  C_5
REMARK    3  A    between atoms: N_7  and  C_8
REMARK    4  A    between atoms: C_8  and  C_9
REMARK    5  A    between atoms: C_12  and  C_13
REMARK    6  A    between atoms: C_13  and  C_14
REMARK    7  A    between atoms: C_14  and  N_15
REMARK                            x       y       z     vdW  Elec       q    Type
REMARK                         _______ _______ _______ _____ _____    ______ ____
ROOT
ATOM      1  C   UNL     1      46.073   5.051  13.276  0.00  0.00    +0.000 A 
ATOM      2  C   UNL     1      45.344   4.274  12.400  0.00  0.00    +0.000 A 
ATOM      3  N   UNL     1      44.664   5.113  11.552  0.00  0.00    +0.000 N 
ATOM      4  C   UNL     1      44.995   6.429  11.830  0.00  0.00    +0.000 A 
ATOM      5  C   UNL     1      44.595   7.631  11.220  0.00  0.00    +0.000 A 
ATOM      6  C   UNL     1      45.067   8.836  11.749  0.00  0.00    +0.000 A 
ATOM      7  C   UNL     1      45.916   8.848  12.846  0.00  0.00    +0.000 A 
ATOM      8  C   UNL     1      46.327   7.650  13.438  0.00  0.00    +0.000 A 
ATOM      9  C   UNL     1      45.863   6.417  12.931  0.00  0.00    +0.000 A 
ENDROOT
BRANCH   1  11
ATOM     10  C   UNL     1      48.217   5.784  14.881  0.00  0.00    +0.000 C 
ATOM     11  S   UNL     1      47.066   4.471  14.564  0.00  0.00    +0.000 S 
ATOM     12  O   UNL     1      47.775   3.338  14.008  0.00  0.00    +0.000 OA
ATOM     13  O   UNL     1      46.176   4.345  15.703  0.00  0.00    +0.000 OA
ENDBRANCH   1  11
BRANCH   3  14
ATOM     14  C   UNL     1      43.699   4.660  10.547  0.00  0.00    +0.000 C 
BRANCH  14  15
ATOM     15  C   UNL     1      44.393   3.804   9.514  0.00  0.00    +0.000 A 
ATOM     16  C   UNL     1      44.326   2.407   9.587  0.00  0.00    +0.000 A 
ATOM     17  C   UNL     1      45.154   1.614   8.790  0.00  0.00    +0.000 A 
ATOM     18  C   UNL     1      46.061   2.206   7.905  0.00  0.00    +0.000 A 
ATOM     19  C   UNL     1      46.047   3.597   7.747  0.00  0.00    +0.000 A 
ATOM     20  C   UNL     1      45.222   4.390   8.548  0.00  0.00    +0.000 A 
BRANCH  18  21
ATOM     21  C   UNL     1      47.099   1.362   7.207  0.00  0.00    +0.000 C 
BRANCH  21  22
ATOM     22  C   UNL     1      48.301   2.156   6.695  0.00  0.00    +0.000 C 
BRANCH  22  23
ATOM     23  N   UNL     1      48.388   2.051   5.237  0.00  0.00    +0.000 NA
ATOM     24  H   UNL     1      47.776   1.305   4.908  0.00  0.00    +0.000 HD
ATOM     25  H   UNL     1      49.335   1.781   4.974  0.00  0.00    +0.000 HD
ENDBRANCH  22  23
ENDBRANCH  21  22
ENDBRANCH  18  21
ENDBRANCH  14  15
ENDBRANCH   3  14
TORSDOF 6
ENDMDL
MODEL 4
REMARK VINA RESULT:    -6.886      2.062      2.799
REMARK INTER + INTRA:          -9.895
REMARK INTER:                  -9.429
REMARK INTRA:                  -0.466
REMARK UNBOUND:                -0.795
REMARK  Name = 
REMARK  7 active torsions:
REMARK  status: ('A' for Active; 'I' for Inactive)
REMARK    1  A    between atoms: C_1  and  S_2
REMARK    2  A    between atoms: S_2  and  C_5
REMARK    3  A    between atoms: N_7  and  C_8
REMARK    4  A    between atoms: C_8  and  C_9
REMARK    5  A    between atoms: C_12  and  C_13
REMARK    6  A    between atoms: C_13  and  C_14
REMARK    7  A    between atoms: C_14  and  N_15
REMARK                            x       y       z     vdW  Elec       q    Type
REMARK                         _______ _______ _______ _____ _____    ______ ____
ROOT
ATOM      1  C   UNL     1      44.391   8.490  11.364  0.00  0.00    +0.000 A 
ATOM      2  C   UNL     1      43.875   7.210  11.354  0.00  0.00    +0.000 A 
ATOM      3  N   UNL     1      44.896   6.339  11.645  0.00  0.00    +0.000 N 
ATOM      4  C   UNL     1      46.057   7.047  11.906  0.00  0.00    +0.000 A 
ATOM      5  C   UNL     1      47.339   6.612  12.283  0.00  0.00    +0.000 A 
ATOM      6  C   UNL     1      48.347   7.567  12.441  0.00  0.00    +0.000 A 
ATOM      7  C   UNL     1      48.089   8.915  12.240  0.00  0.00    +0.000 A 
ATOM      8  C   UNL     1      46.807   9.346  11.884  0.00  0.00    +0.000 A 
ATOM      9  C   UNL     1      45.769   8.405  11.710  0.00  0.00    +0.000 A 
ENDROOT
BRANCH   1  11
ATOM     10  C   UNL     1      44.250  10.570   9.531  0.00  0.00    +0.000 C 
ATOM     11  S   UNL     1      43.518   9.939  11.019  0.00  0.00    +0.000 S 
ATOM     12  O   UNL     1      43.824  10.830  12.118  0.00  0.00    +0.000 OA
ATOM     13  O   UNL     1      42.164   9.506  10.726  0.00  0.00    +0.000 OA
ENDBRANCH   1  11
BRANCH   3  14
ATOM     14  C   UNL     1      44.762   4.880  11.624  0.00  0.00    +0.000 C 
BRANCH  14  15
ATOM     15  C   UNL     1      44.973   4.363  10.220  0.00  0.00    +0.000 A 
ATOM     16  C   UNL     1      44.528   3.086   9.857  0.00  0.00    +0.000 A 
ATOM     17  C   UNL     1      44.929   2.511   8.650  0.00  0.00    +0.000 A 
ATOM     18  C   UNL     1      45.779   3.205   7.783  0.00  0.00    +0.000 A 
ATOM     19  C   UNL     1      46.130   4.526   8.089  0.00  0.00    +0.000 A 
ATOM     20  C   UNL     1      45.733   5.099   9.300  0.00  0.00    +0.000 A 
BRANCH  18  21
ATOM     21  C   UNL     1      46.382   2.506   6.589  0.00  0.00    +0.000 C 
BRANCH  21  22
ATOM     22  C   UNL     1      47.722   1.831   6.878  0.00  0.00    +0.000 C 
BRANCH  22  23
ATOM     23  N   UNL     1      48.588   1.911   5.700  0.00  0.00    +0.000 NA
ATOM     24  H   UNL     1      49.076   2.806   5.691  0.00  0.00    +0.000 HD
ATOM     25  H   UNL     1      48.016   1.889   4.857  0.00  0.00    +0.000 HD
ENDBRANCH  22  23
ENDBRANCH  21  22
ENDBRANCH  18  21
ENDBRANCH  14  15
ENDBRANCH   3  14
TORSDOF 6
ENDMDL
MODEL 5
REMARK VINA RESULT:    -6.645      1.643      3.343
REMARK INTER + INTRA:          -9.577
REMARK INTER:                  -9.085
REMARK INTRA:                  -0.492
REMARK UNBOUND:                -0.795
REMARK  Name = 
REMARK  7 active torsions:
REMARK  status: ('A' for Active; 'I' for Inactive)
REMARK    1  A    between atoms: C_1  and  S_2
REMARK    2  A    between atoms: S_2  and  C_5
REMARK    3  A    between atoms: N_7  and  C_8
REMARK    4  A    between atoms: C_8  and  C_9
REMARK    5  A    between atoms: C_12  and  C_13
REMARK    6  A    between atoms: C_13  and  C_14
REMARK    7  A    between atoms: C_14  and  N_15
REMARK                            x       y       z     vdW  Elec       q    Type
REMARK                         _______ _______ _______ _____ _____    ______ ____
ROOT
ATOM      1  C   UNL     1      46.952   7.424  12.741  0.00  0.00    +0.000 A 
ATOM      2  C   UNL     1      46.427   6.211  12.348  0.00  0.00    +0.000 A 
ATOM      3  N   UNL     1      45.247   6.453  11.687  0.00  0.00    +0.000 N 
ATOM      4  C   UNL     1      45.033   7.818  11.594  0.00  0.00    +0.000 A 
ATOM      5  C   UNL     1      44.001   8.552  10.984  0.00  0.00    +0.000 A 
ATOM      6  C   UNL     1      44.025   9.946  11.085  0.00  0.00    +0.000 A 
ATOM      7  C   UNL     1      45.047  10.593  11.764  0.00  0.00    +0.000 A 
ATOM      8  C   UNL     1      46.082   9.861  12.354  0.00  0.00    +0.000 A 
ATOM      9  C   UNL     1      46.083   8.451  12.274  0.00  0.00    +0.000 A 
ENDROOT
BRANCH   1  11
ATOM     10  C   UNL     1      47.940   8.687  15.008  0.00  0.00    +0.000 C 
ATOM     11  S   UNL     1      48.407   7.657  13.641  0.00  0.00    +0.000 S 
ATOM     12  O   UNL     1      49.278   8.402  12.756  0.00  0.00    +0.000 OA
ATOM     13  O   UNL     1      48.756   6.342  14.145  0.00  0.00    +0.000 OA
ENDBRANCH   1  11
BRANCH   3  14
ATOM     14  C   UNL     1      44.343   5.403  11.210  0.00  0.00    +0.000 C 
BRANCH  14  15
ATOM     15  C   UNL     1      45.029   4.573  10.151  0.00  0.00    +0.000 A 
ATOM     16  C   UNL     1      45.773   5.189   9.136  0.00  0.00    +0.000 A 
ATOM     17  C   UNL     1      46.203   4.457   8.028  0.00  0.00    +0.000 A 
ATOM     18  C   UNL     1      45.897   3.096   7.917  0.00  0.00    +0.000 A 
ATOM     19  C   UNL     1      45.256   2.454   8.983  0.00  0.00    +0.000 A 
ATOM     20  C   UNL     1      44.821   3.188  10.090  0.00  0.00    +0.000 A 
BRANCH  18  21
ATOM     21  C   UNL     1      46.172   2.360   6.628  0.00  0.00    +0.000 C 
BRANCH  21  22
ATOM     22  C   UNL     1      47.393   1.445   6.687  0.00  0.00    +0.000 C 
BRANCH  22  23
ATOM     23  N   UNL     1      48.363   1.834   5.660  0.00  0.00    +0.000 NA
ATOM     24  H   UNL     1      48.244   1.247   4.835  0.00  0.00    +0.000 HD
ATOM     25  H   UNL     1      49.307   1.657   6.003  0.00  0.00    +0.000 HD
ENDBRANCH  22  23
ENDBRANCH  21  22
ENDBRANCH  18  21
ENDBRANCH  14  15
ENDBRANCH   3  14
TORSDOF 6
ENDMDL
MODEL 6
REMARK VINA RESULT:    -5.690      4.001      7.690
REMARK INTER + INTRA:          -8.315
REMARK INTER:                  -7.632
REMARK INTRA:                  -0.683
REMARK UNBOUND:                -0.795
REMARK  Name = 
REMARK  7 active torsions:
REMARK  status: ('A' for Active; 'I' for Inactive)
REMARK    1  A    between atoms: C_1  and  S_2
REMARK    2  A    between atoms: S_2  and  C_5
REMARK    3  A    between atoms: N_7  and  C_8
REMARK    4  A    between atoms: C_8  and  C_9
REMARK    5  A    between atoms: C_12  and  C_13
REMARK    6  A    between atoms: C_13  and  C_14
REMARK    7  A    between atoms: C_14  and  N_15
REMARK                            x       y       z     vdW  Elec       q    Type
REMARK                         _______ _______ _______ _____ _____    ______ ____
ROOT
ATOM      1  C   UNL     1      44.703   5.634  11.811  0.00  0.00    +0.000 A 
ATOM      2  C   UNL     1      45.804   5.038  12.390  0.00  0.00    +0.000 A 
ATOM      3  N   UNL     1      46.708   6.025  12.701  0.00  0.00    +0.000 N 
ATOM      4  C   UNL     1      46.176   7.264  12.386  0.00  0.00    +0.000 A 
ATOM      5  C   UNL     1      46.693   8.561  12.551  0.00  0.00    +0.000 A 
ATOM      6  C   UNL     1      45.935   9.643  12.094  0.00  0.00    +0.000 A 
ATOM      7  C   UNL     1      44.698   9.446  11.499  0.00  0.00    +0.000 A 
ATOM      8  C   UNL     1      44.178   8.156  11.354  0.00  0.00    +0.000 A 
ATOM      9  C   UNL     1      44.922   7.041  11.799  0.00  0.00    +0.000 A 
ENDROOT
BRANCH   1  11
ATOM     10  C   UNL     1      43.399   3.185  11.895  0.00  0.00    +0.000 C 
ATOM     11  S   UNL     1      43.306   4.819  11.208  0.00  0.00    +0.000 S 
ATOM     12  O   UNL     1      43.504   4.749   9.776  0.00  0.00    +0.000 OA
ATOM     13  O   UNL     1      42.177   5.512  11.802  0.00  0.00    +0.000 OA
ENDBRANCH   1  11
BRANCH   3  14
ATOM     14  C   UNL     1      48.048   5.773  13.236  0.00  0.00    +0.000 C 
BRANCH  14  15
ATOM     15  C   UNL     1      48.026   5.855  14.744  0.00  0.00    +0.000 A 
ATOM     16  C   UNL     1      48.671   6.905  15.409  0.00  0.00    +0.000 A 
ATOM     17  C   UNL     1      48.862   6.860  16.791  0.00  0.00    +0.000 A 
ATOM     18  C   UNL     1      48.407   5.764  17.532  0.00  0.00    +0.000 A 
ATOM     19  C   UNL     1      47.660   4.771  16.888  0.00  0.00    +0.000 A 
ATOM     20  C   UNL     1      47.474   4.814  15.504  0.00  0.00    +0.000 A 
BRANCH  18  21
ATOM     21  C   UNL     1      48.800   5.613  18.982  0.00  0.00    +0.000 C 
BRANCH  21  22
ATOM     22  C   UNL     1      49.213   4.194  19.367  0.00  0.00    +0.000 C 
BRANCH  22  23
ATOM     23  N   UNL     1      48.425   3.733  20.512  0.00  0.00    +0.000 NA
ATOM     24  H   UNL     1      47.531   4.225  20.534  0.00  0.00    +0.000 HD
ATOM     25  H   UNL     1      48.907   3.978  21.375  0.00  0.00    +0.000 HD
ENDBRANCH  22  23
ENDBRANCH  21  22
ENDBRANCH  18  21
ENDBRANCH  14  15
ENDBRANCH   3  14
TORSDOF 6
ENDMDL
MODEL 7
REMARK VINA RESULT:    -5.464      4.388      8.113
REMARK INTER + INTRA:          -8.016
REMARK INTER:                  -7.290
REMARK INTRA:                  -0.726
REMARK UNBOUND:                -0.795
REMARK  Name = 
REMARK  7 active torsions:
REMARK  status: ('A' for Active; 'I' for Inactive)
REMARK    1  A    between atoms: C_1  and  S_2
REMARK    2  A    between atoms: S_2  and  C_5
REMARK    3  A    between atoms: N_7  and  C_8
REMARK    4  A    between atoms: C_8  and  C_9
REMARK    5  A    between atoms: C_12  and  C_13
REMARK    6  A    between atoms: C_13  and  C_14
REMARK    7  A    between atoms: C_14  and  N_15
REMARK                            x       y       z     vdW  Elec       q    Type
REMARK                         _______ _______ _______ _____ _____    ______ ____
ROOT
ATOM      1  C   UNL     1      46.167   5.619  12.591  0.00  0.00    +0.000 A 
ATOM      2  C   UNL     1      47.387   5.684  13.232  0.00  0.00    +0.000 A 
ATOM      3  N   UNL     1      47.784   6.998  13.256  0.00  0.00    +0.000 N 
ATOM      4  C   UNL     1      46.802   7.796  12.692  0.00  0.00    +0.000 A 
ATOM      5  C   UNL     1      46.726   9.189  12.524  0.00  0.00    +0.000 A 
ATOM      6  C   UNL     1      45.611   9.722  11.871  0.00  0.00    +0.000 A 
ATOM      7  C   UNL     1      44.597   8.898  11.406  0.00  0.00    +0.000 A 
ATOM      8  C   UNL     1      44.666   7.514  11.592  0.00  0.00    +0.000 A 
ATOM      9  C   UNL     1      45.783   6.945  12.242  0.00  0.00    +0.000 A 
ENDROOT
BRANCH   1  11
ATOM     10  C   UNL     1      43.687   4.453  13.037  0.00  0.00    +0.000 C 
ATOM     11  S   UNL     1      45.264   4.182  12.270  0.00  0.00    +0.000 S 
ATOM     12  O   UNL     1      45.967   3.133  12.978  0.00  0.00    +0.000 OA
ATOM     13  O   UNL     1      45.086   4.160  10.830  0.00  0.00    +0.000 OA
ENDBRANCH   1  11
BRANCH   3  14
ATOM     14  C   UNL     1      49.081   7.456  13.761  0.00  0.00    +0.000 C 
BRANCH  14  15
ATOM     15  C   UNL     1      49.051   7.528  15.270  0.00  0.00    +0.000 A 
ATOM     16  C   UNL     1      49.553   6.474  16.043  0.00  0.00    +0.000 A 
ATOM     17  C   UNL     1      49.311   6.423  17.417  0.00  0.00    +0.000 A 
ATOM     18  C   UNL     1      48.565   7.429  18.041  0.00  0.00    +0.000 A 
ATOM     19  C   UNL     1      48.163   8.541  17.292  0.00  0.00    +0.000 A 
ATOM     20  C   UNL     1      48.401   8.589  15.916  0.00  0.00    +0.000 A 
BRANCH  18  21
ATOM     21  C   UNL     1      48.123   7.266  19.475  0.00  0.00    +0.000 C 
BRANCH  21  22
ATOM     22  C   UNL     1      47.560   5.882  19.796  0.00  0.00    +0.000 C 
BRANCH  22  23
ATOM     23  N   UNL     1      46.408   5.597  18.937  0.00  0.00    +0.000 NA
ATOM     24  H   UNL     1      46.690   5.638  17.958  0.00  0.00    +0.000 HD
ATOM     25  H   UNL     1      45.705   6.324  19.062  0.00  0.00    +0.000 HD
ENDBRANCH  22  23
ENDBRANCH  21  22
ENDBRANCH  18  21
ENDBRANCH  14  15
ENDBRANCH   3  14
TORSDOF 6
ENDMDL
MODEL 8
REMARK VINA RESULT:    -5.361      4.749      6.749
REMARK INTER + INTRA:          -7.880
REMARK INTER:                  -7.050
REMARK INTRA:                  -0.830
REMARK UNBOUND:                -0.795
REMARK  Name = 
REMARK  7 active torsions:
REMARK  status: ('A' for Active; 'I' for Inactive)
REMARK    1  A    between atoms: C_1  and  S_2
REMARK    2  A    between atoms: S_2  and  C_5
REMARK    3  A    between atoms: N_7  and  C_8
REMARK    4  A    between atoms: C_8  and  C_9
REMARK    5  A    between atoms: C_12  and  C_13
REMARK    6  A    between atoms: C_13  and  C_14
REMARK    7  A    between atoms: C_14  and  N_15
REMARK                            x       y       z     vdW  Elec       q    Type
REMARK                         _______ _______ _______ _____ _____    ______ ____
ROOT
ATOM      1  C   UNL     1      47.599   4.971  15.069  0.00  0.00    +0.000 A 
ATOM      2  C   UNL     1      48.209   6.208  15.109  0.00  0.00    +0.000 A 
ATOM      3  N   UNL     1      47.833   6.905  13.988  0.00  0.00    +0.000 N 
ATOM      4  C   UNL     1      46.932   6.155  13.249  0.00  0.00    +0.000 A 
ATOM      5  C   UNL     1      46.243   6.447  12.060  0.00  0.00    +0.000 A 
ATOM      6  C   UNL     1      45.413   5.465  11.512  0.00  0.00    +0.000 A 
ATOM      7  C   UNL     1      45.266   4.231  12.130  0.00  0.00    +0.000 A 
ATOM      8  C   UNL     1      45.938   3.951  13.324  0.00  0.00    +0.000 A 
ATOM      9  C   UNL     1      46.788   4.921  13.899  0.00  0.00    +0.000 A 
ENDROOT
BRANCH   1  11
ATOM     10  C   UNL     1      48.980   4.323  17.387  0.00  0.00    +0.000 C 
ATOM     11  S   UNL     1      47.783   3.709  16.231  0.00  0.00    +0.000 S 
ATOM     12  O   UNL     1      48.353   2.602  15.494  0.00  0.00    +0.000 OA
ATOM     13  O   UNL     1      46.496   3.615  16.897  0.00  0.00    +0.000 OA
ENDBRANCH   1  11
BRANCH   3  14
ATOM     14  C   UNL     1      48.362   8.222  13.623  0.00  0.00    +0.000 C 
BRANCH  14  15
ATOM     15  C   UNL     1      49.710   8.070  12.958  0.00  0.00    +0.000 A 
ATOM     16  C   UNL     1      50.879   8.459  13.623  0.00  0.00    +0.000 A 
ATOM     17  C   UNL     1      52.090   8.549  12.936  0.00  0.00    +0.000 A 
ATOM     18  C   UNL     1      52.153   8.250  11.571  0.00  0.00    +0.000 A 
ATOM     19  C   UNL     1      51.013   7.749  10.931  0.00  0.00    +0.000 A 
ATOM     20  C   UNL     1      49.799   7.664  11.619  0.00  0.00    +0.000 A 
BRANCH  18  21
ATOM     21  C   UNL     1      53.406   8.553  10.785  0.00  0.00    +0.000 C 
BRANCH  21  22
ATOM     22  C   UNL     1      54.082   7.315  10.196  0.00  0.00    +0.000 C 
BRANCH  22  23
ATOM     23  N   UNL     1      54.313   6.321  11.247  0.00  0.00    +0.000 NA
ATOM     24  H   UNL     1      53.445   6.147  11.752  0.00  0.00    +0.000 HD
ATOM     25  H   UNL     1      54.970   6.698  11.930  0.00  0.00    +0.000 HD
ENDBRANCH  22  23
ENDBRANCH  21  22
ENDBRANCH  18  21
ENDBRANCH  14  15
ENDBRANCH   3  14
TORSDOF 6
ENDMDL
MODEL 9
REMARK VINA RESULT:    -5.269      3.926      5.803
REMARK INTER + INTRA:          -7.758
REMARK INTER:                  -7.346
REMARK INTRA:                  -0.412
REMARK UNBOUND:                -0.795
REMARK  Name = 
REMARK  7 active torsions:
REMARK  status: ('A' for Active; 'I' for Inactive)
REMARK    1  A    between atoms: C_1  and  S_2
REMARK    2  A    between atoms: S_2  and  C_5
REMARK    3  A    between atoms: N_7  and  C_8
REMARK    4  A    between atoms: C_8  and  C_9
REMARK    5  A    between atoms: C_12  and  C_13
REMARK    6  A    between atoms: C_13  and  C_14
REMARK    7  A    between atoms: C_14  and  N_15
REMARK                            x       y       z     vdW  Elec       q    Type
REMARK                         _______ _______ _______ _____ _____    ______ ____
ROOT
ATOM      1  C   UNL     1      48.222   5.821  15.594  0.00  0.00    +0.000 A 
ATOM      2  C   UNL     1      47.844   5.875  14.268  0.00  0.00    +0.000 A 
ATOM      3  N   UNL     1      48.073   7.149  13.812  0.00  0.00    +0.000 N 
ATOM      4  C   UNL     1      48.656   7.908  14.814  0.00  0.00    +0.000 A 
ATOM      5  C   UNL     1      49.107   9.239  14.821  0.00  0.00    +0.000 A 
ATOM      6  C   UNL     1      49.625   9.761  16.010  0.00  0.00    +0.000 A 
ATOM      7  C   UNL     1      49.702   8.982  17.155  0.00  0.00    +0.000 A 
ATOM      8  C   UNL     1      49.271   7.652  17.139  0.00  0.00    +0.000 A 
ATOM      9  C   UNL     1      48.737   7.098  15.955  0.00  0.00    +0.000 A 
ENDROOT
BRANCH   1  11
ATOM     10  C   UNL     1      47.255   5.042  18.077  0.00  0.00    +0.000 C 
ATOM     11  S   UNL     1      48.094   4.447  16.631  0.00  0.00    +0.000 S 
ATOM     12  O   UNL     1      49.459   4.110  16.975  0.00  0.00    +0.000 OA
ATOM     13  O   UNL     1      47.221   3.523  15.931  0.00  0.00    +0.000 OA
ENDBRANCH   1  11
BRANCH   3  14
ATOM     14  C   UNL     1      47.699   7.625  12.478  0.00  0.00    +0.000 C 
BRANCH  14  15
ATOM     15  C   UNL     1      46.404   6.978  12.045  0.00  0.00    +0.000 A 
ATOM     16  C   UNL     1      45.248   7.106  12.826  0.00  0.00    +0.000 A 
ATOM     17  C   UNL     1      44.125   6.320  12.564  0.00  0.00    +0.000 A 
ATOM     18  C   UNL     1      44.137   5.395  11.515  0.00  0.00    +0.000 A 
ATOM     19  C   UNL     1      45.246   5.349  10.662  0.00  0.00    +0.000 A 
ATOM     20  C   UNL     1      46.373   6.132  10.927  0.00  0.00    +0.000 A 
BRANCH  18  21
ATOM     21  C   UNL     1      43.011   4.401  11.367  0.00  0.00    +0.000 C 
BRANCH  21  22
ATOM     22  C   UNL     1      43.477   2.952  11.242  0.00  0.00    +0.000 C 
BRANCH  22  23
ATOM     23  N   UNL     1      43.776   2.404  12.567  0.00  0.00    +0.000 NA
ATOM     24  H   UNL     1      43.792   3.156  13.255  0.00  0.00    +0.000 HD
ATOM     25  H   UNL     1      44.713   2.001  12.562  0.00  0.00    +0.000 HD
ENDBRANCH  22  23
ENDBRANCH  21  22
ENDBRANCH  18  21
ENDBRANCH  14  15
ENDBRANCH   3  14
TORSDOF 6
ENDMDL
