MODEL 1
REMARK VINA RESULT:    -8.311      0.000      0.000
REMARK INTER + INTRA:         -11.797
REMARK INTER:                 -10.983
REMARK INTRA:                  -0.814
REMARK UNBOUND:                -0.814
REMARK  Name = 
REMARK  6 active torsions:
REMARK  status: ('A' for Active; 'I' for Inactive)
REMARK    1  A    between atoms: N_1  and  C_2
REMARK    2  A    between atoms: C_2  and  C_3
REMARK    3  A    between atoms: C_3  and  C_4
REMARK    4  A    between atoms: C_8  and  C_9
REMARK    5  A    between atoms: C_9  and  N_10
REMARK    6  A    between atoms: C_15  and  C_16
REMARK                            x       y       z     vdW  Elec       q    Type
REMARK                         _______ _______ _______ _____ _____    ______ ____
ROOT
ATOM      1  N   UNL     1      43.810   4.768  10.696  0.00  0.00    +0.000 N 
ATOM      2  C   UNL     1      43.116   3.803  11.390  0.00  0.00    +0.000 A 
ATOM      3  N   UNL     1      43.397   2.595  10.961  0.00  0.00    +0.000 NA
ATOM      4  C   UNL     1      44.284   2.774   9.930  0.00  0.00    +0.000 A 
ATOM      5  C   UNL     1      45.039   1.826   9.226  0.00  0.00    +0.000 A 
ATOM      6  C   UNL     1      45.929   2.260   8.233  0.00  0.00    +0.000 A 
ATOM      7  C   UNL     1      45.966   3.616   7.873  0.00  0.00    +0.000 A 
ATOM      8  C   UNL     1      45.231   4.581   8.581  0.00  0.00    +0.000 A 
ATOM      9  C   UNL     1      44.449   4.127   9.649  0.00  0.00    +0.000 A 
ENDROOT
BRANCH   6  10
ATOM     10  C   UNL     1      46.866   1.241   7.672  0.00  0.00    +0.000 C 
ATOM     11  N   UNL     1      47.935   1.658   6.928  0.00  0.00    +0.000 N 
ATOM     12  O   UNL     1      46.723   0.045   7.899  0.00  0.00    +0.000 OA
ATOM     13  H   UNL     1      48.147   2.610   6.684  0.00  0.00    +0.000 HD
ATOM     14  H   UNL     1      48.579   0.937   6.629  0.00  0.00    +0.000 HD
ENDBRANCH   6  10
BRANCH   1  15
ATOM     15  C   UNL     1      44.323   5.969  11.355  0.00  0.00    +0.000 C 
BRANCH  15  20
ATOM     16  C   UNL     1      47.876   7.020  12.139  0.00  0.00    +0.000 A 
ATOM     17  C   UNL     1      48.156   6.293  13.296  0.00  0.00    +0.000 A 
ATOM     18  C   UNL     1      47.216   5.393  13.810  0.00  0.00    +0.000 A 
ATOM     19  C   UNL     1      45.977   5.212  13.181  0.00  0.00    +0.000 A 
ATOM     20  C   UNL     1      45.677   5.921  12.017  0.00  0.00    +0.000 A 
ATOM     21  C   UNL     1      46.648   6.808  11.501  0.00  0.00    +0.000 A 
BRANCH  16  22
ATOM     22  C   UNL     1      48.833   8.061  11.605  0.00  0.00    +0.000 C 
BRANCH  22  23
ATOM     23  C   UNL     1      50.248   7.941  12.179  0.00  0.00    +0.000 C 
BRANCH  23  24
ATOM     24  N   UNL     1      51.132   7.261  11.230  0.00  0.00    +0.000 NA
ATOM     25  H   UNL     1      52.094   7.319  11.560  0.00  0.00    +0.000 HD
ATOM     26  H   UNL     1      51.111   7.743  10.332  0.00  0.00    +0.000 HD
ENDBRANCH  23  24
ENDBRANCH  22  23
ENDBRANCH  16  22
ENDBRANCH  15  20
ENDBRANCH   1  15
TORSDOF 6
ENDMDL
MODEL 2
REMARK VINA RESULT:    -8.236      1.795      2.736
REMARK INTER + INTRA:         -11.697
REMARK INTER:                 -11.061
REMARK INTRA:                  -0.636
REMARK UNBOUND:                -0.814
REMARK  Name = 
REMARK  6 active torsions:
REMARK  status: ('A' for Active; 'I' for Inactive)
REMARK    1  A    between atoms: N_1  and  C_2
REMARK    2  A    between atoms: C_2  and  C_3
REMARK    3  A    between atoms: C_3  and  C_4
REMARK    4  A    between atoms: C_8  and  C_9
REMARK    5  A    between atoms: C_9  and  N_10
REMARK    6  A    between atoms: C_15  and  C_16
REMARK                            x       y       z     vdW  Elec       q    Type
REMARK                         _______ _______ _______ _____ _____    ______ ____
ROOT
ATOM      1  N   UNL     1      43.668   4.706  10.719  0.00  0.00    +0.000 N 
ATOM      2  C   UNL     1      43.070   3.711  11.459  0.00  0.00    +0.000 A 
ATOM      3  N   UNL     1      43.426   2.516  11.051  0.00  0.00    +0.000 NA
ATOM      4  C   UNL     1      44.266   2.732   9.987  0.00  0.00    +0.000 A 
ATOM      5  C   UNL     1      45.067   1.824   9.282  0.00  0.00    +0.000 A 
ATOM      6  C   UNL     1      45.892   2.296   8.250  0.00  0.00    +0.000 A 
ATOM      7  C   UNL     1      45.816   3.640   7.857  0.00  0.00    +0.000 A 
ATOM      8  C   UNL     1      45.034   4.567   8.564  0.00  0.00    +0.000 A 
ATOM      9  C   UNL     1      44.321   4.086   9.667  0.00  0.00    +0.000 A 
ENDROOT
BRANCH   6  10
ATOM     10  C   UNL     1      46.885   1.334   7.684  0.00  0.00    +0.000 C 
ATOM     11  N   UNL     1      47.964   1.818   6.999  0.00  0.00    +0.000 N 
ATOM     12  O   UNL     1      46.777   0.125   7.858  0.00  0.00    +0.000 OA
ATOM     13  H   UNL     1      48.151   2.786   6.802  0.00  0.00    +0.000 HD
ATOM     14  H   UNL     1      48.644   1.132   6.696  0.00  0.00    +0.000 HD
ENDBRANCH   6  10
BRANCH   1  15
ATOM     15  C   UNL     1      44.111   5.958  11.331  0.00  0.00    +0.000 C 
BRANCH  15  20
ATOM     16  C   UNL     1      46.865   4.846  13.680  0.00  0.00    +0.000 A 
ATOM     17  C   UNL     1      47.947   5.622  13.264  0.00  0.00    +0.000 A 
ATOM     18  C   UNL     1      47.785   6.573  12.250  0.00  0.00    +0.000 A 
ATOM     19  C   UNL     1      46.542   6.758  11.630  0.00  0.00    +0.000 A 
ATOM     20  C   UNL     1      45.442   6.000  12.036  0.00  0.00    +0.000 A 
ATOM     21  C   UNL     1      45.621   5.061  13.076  0.00  0.00    +0.000 A 
BRANCH  16  22
ATOM     22  C   UNL     1      47.023   3.752  14.711  0.00  0.00    +0.000 C 
BRANCH  22  23
ATOM     23  C   UNL     1      47.182   4.279  16.141  0.00  0.00    +0.000 C 
BRANCH  23  24
ATOM     24  N   UNL     1      46.715   3.287  17.110  0.00  0.00    +0.000 NA
ATOM     25  H   UNL     1      45.969   3.689  17.676  0.00  0.00    +0.000 HD
ATOM     26  H   UNL     1      47.467   3.054  17.757  0.00  0.00    +0.000 HD
ENDBRANCH  23  24
ENDBRANCH  22  23
ENDBRANCH  16  22
ENDBRANCH  15  20
ENDBRANCH   1  15
TORSDOF 6
ENDMDL
MODEL 3
REMARK VINA RESULT:    -7.259      2.415      3.944
REMARK INTER + INTRA:         -10.407
REMARK INTER:                  -9.788
REMARK INTRA:                  -0.618
REMARK UNBOUND:                -0.814
REMARK  Name = 
REMARK  6 active torsions:
REMARK  status: ('A' for Active; 'I' for Inactive)
REMARK    1  A    between atoms: N_1  and  C_2
REMARK    2  A    between atoms: C_2  and  C_3
REMARK    3  A    between atoms: C_3  and  C_4
REMARK    4  A    between atoms: C_8  and  C_9
REMARK    5  A    between atoms: C_9  and  N_10
REMARK    6  A    between atoms: C_15  and  C_16
REMARK                            x       y       z     vdW  Elec       q    Type
REMARK                         _______ _______ _______ _____ _____    ______ ____
ROOT
ATOM      1  N   UNL     1      44.188   4.976  11.343  0.00  0.00    +0.000 N 
ATOM      2  C   UNL     1      43.259   4.070  11.801  0.00  0.00    +0.000 A 
ATOM      3  N   UNL     1      43.266   2.963  11.095  0.00  0.00    +0.000 NA
ATOM      4  C   UNL     1      44.213   3.160  10.121  0.00  0.00    +0.000 A 
ATOM      5  C   UNL     1      44.752   2.250   9.202  0.00  0.00    +0.000 A 
ATOM      6  C   UNL     1      45.760   2.679   8.326  0.00  0.00    +0.000 A 
ATOM      7  C   UNL     1      46.129   4.033   8.296  0.00  0.00    +0.000 A 
ATOM      8  C   UNL     1      45.612   4.953   9.222  0.00  0.00    +0.000 A 
ATOM      9  C   UNL     1      44.702   4.463  10.164  0.00  0.00    +0.000 A 
ENDROOT
BRANCH   6  10
ATOM     10  C   UNL     1      46.454   1.625   7.526  0.00  0.00    +0.000 C 
ATOM     11  N   UNL     1      46.986   1.955   6.311  0.00  0.00    +0.000 N 
ATOM     12  O   UNL     1      46.596   0.485   7.954  0.00  0.00    +0.000 OA
ATOM     13  H   UNL     1      46.930   2.856   5.868  0.00  0.00    +0.000 HD
ATOM     14  H   UNL     1      47.507   1.227   5.840  0.00  0.00    +0.000 HD
ENDBRANCH   6  10
BRANCH   1  15
ATOM     15  C   UNL     1      44.941   5.833  12.258  0.00  0.00    +0.000 C 
BRANCH  15  20
ATOM     16  C   UNL     1      43.847   9.240  11.017  0.00  0.00    +0.000 A 
ATOM     17  C   UNL     1      44.799  10.087  11.585  0.00  0.00    +0.000 A 
ATOM     18  C   UNL     1      45.858   9.559  12.332  0.00  0.00    +0.000 A 
ATOM     19  C   UNL     1      45.977   8.177  12.531  0.00  0.00    +0.000 A 
ATOM     20  C   UNL     1      45.043   7.308  11.965  0.00  0.00    +0.000 A 
ATOM     21  C   UNL     1      43.994   7.860  11.196  0.00  0.00    +0.000 A 
BRANCH  16  22
ATOM     22  C   UNL     1      42.645   9.781  10.277  0.00  0.00    +0.000 C 
BRANCH  22  23
ATOM     23  C   UNL     1      41.579  10.381  11.199  0.00  0.00    +0.000 C 
BRANCH  23  24
ATOM     24  N   UNL     1      40.466   9.447  11.375  0.00  0.00    +0.000 NA
ATOM     25  H   UNL     1      40.811   8.580  11.784  0.00  0.00    +0.000 HD
ATOM     26  H   UNL     1      40.078   9.196  10.466  0.00  0.00    +0.000 HD
ENDBRANCH  23  24
ENDBRANCH  22  23
ENDBRANCH  16  22
ENDBRANCH  15  20
ENDBRANCH   1  15
TORSDOF 6
ENDMDL
MODEL 4
REMARK VINA RESULT:    -6.964      1.552      1.887
REMARK INTER + INTRA:         -10.017
REMARK INTER:                  -9.464
REMARK INTRA:                  -0.552
REMARK UNBOUND:                -0.814
REMARK  Name = 
REMARK  6 active torsions:
REMARK  status: ('A' for Active; 'I' for Inactive)
REMARK    1  A    between atoms: N_1  and  C_2
REMARK    2  A    between atoms: C_2  and  C_3
REMARK    3  A    between atoms: C_3  and  C_4
REMARK    4  A    between atoms: C_8  and  C_9
REMARK    5  A    between atoms: C_9  and  N_10
REMARK    6  A    between atoms: C_15  and  C_16
REMARK                            x       y       z     vdW  Elec       q    Type
REMARK                         _______ _______ _______ _____ _____    ______ ____
ROOT
ATOM      1  N   UNL     1      44.267   4.442  11.906  0.00  0.00    +0.000 N 
ATOM      2  C   UNL     1      43.407   3.382  12.080  0.00  0.00    +0.000 A 
ATOM      3  N   UNL     1      43.411   2.573  11.046  0.00  0.00    +0.000 NA
ATOM      4  C   UNL     1      44.282   3.139  10.148  0.00  0.00    +0.000 A 
ATOM      5  C   UNL     1      44.794   2.619   8.952  0.00  0.00    +0.000 A 
ATOM      6  C   UNL     1      45.723   3.373   8.221  0.00  0.00    +0.000 A 
ATOM      7  C   UNL     1      46.035   4.680   8.626  0.00  0.00    +0.000 A 
ATOM      8  C   UNL     1      45.545   5.209   9.831  0.00  0.00    +0.000 A 
ATOM      9  C   UNL     1      44.720   4.380  10.600  0.00  0.00    +0.000 A 
ENDROOT
BRANCH   6  10
ATOM     10  C   UNL     1      46.404   2.687   7.081  0.00  0.00    +0.000 C 
ATOM     11  N   UNL     1      46.979   1.465   7.289  0.00  0.00    +0.000 N 
ATOM     12  O   UNL     1      46.419   3.175   5.956  0.00  0.00    +0.000 OA
ATOM     13  H   UNL     1      47.022   0.975   8.166  0.00  0.00    +0.000 HD
ATOM     14  H   UNL     1      47.366   1.009   6.472  0.00  0.00    +0.000 HD
ENDBRANCH   6  10
BRANCH   1  15
ATOM     15  C   UNL     1      45.045   4.992  13.016  0.00  0.00    +0.000 C 
BRANCH  15  20
ATOM     16  C   UNL     1      47.865   7.448  12.420  0.00  0.00    +0.000 A 
ATOM     17  C   UNL     1      47.181   8.640  12.181  0.00  0.00    +0.000 A 
ATOM     18  C   UNL     1      45.785   8.683  12.274  0.00  0.00    +0.000 A 
ATOM     19  C   UNL     1      45.050   7.535  12.598  0.00  0.00    +0.000 A 
ATOM     20  C   UNL     1      45.713   6.333  12.851  0.00  0.00    +0.000 A 
ATOM     21  C   UNL     1      47.124   6.315  12.774  0.00  0.00    +0.000 A 
BRANCH  16  22
ATOM     22  C   UNL     1      49.363   7.345  12.246  0.00  0.00    +0.000 C 
BRANCH  22  23
ATOM     23  C   UNL     1      50.156   7.990  13.387  0.00  0.00    +0.000 C 
BRANCH  23  24
ATOM     24  N   UNL     1      50.231   7.087  14.536  0.00  0.00    +0.000 NA
ATOM     25  H   UNL     1      50.312   7.634  15.393  0.00  0.00    +0.000 HD
ATOM     26  H   UNL     1      51.078   6.523  14.479  0.00  0.00    +0.000 HD
ENDBRANCH  23  24
ENDBRANCH  22  23
ENDBRANCH  16  22
ENDBRANCH  15  20
ENDBRANCH   1  15
TORSDOF 6
ENDMDL
MODEL 5
REMARK VINA RESULT:    -6.488      3.353      6.996
REMARK INTER + INTRA:          -9.387
REMARK INTER:                  -8.883
REMARK INTRA:                  -0.504
REMARK UNBOUND:                -0.814
REMARK  Name = 
REMARK  6 active torsions:
REMARK  status: ('A' for Active; 'I' for Inactive)
REMARK    1  A    between atoms: N_1  and  C_2
REMARK    2  A    between atoms: C_2  and  C_3
REMARK    3  A    between atoms: C_3  and  C_4
REMARK    4  A    between atoms: C_8  and  C_9
REMARK    5  A    between atoms: C_9  and  N_10
REMARK    6  A    between atoms: C_15  and  C_16
REMARK                            x       y       z     vdW  Elec       q    Type
REMARK                         _______ _______ _______ _____ _____    ______ ____
ROOT
ATOM      1  N   UNL     1      46.436   5.407  12.205  0.00  0.00    +0.000 N 
ATOM      2  C   UNL     1      46.338   4.676  13.368  0.00  0.00    +0.000 A 
ATOM      3  N   UNL     1      47.022   5.220  14.347  0.00  0.00    +0.000 NA
ATOM      4  C   UNL     1      47.615   6.331  13.801  0.00  0.00    +0.000 A 
ATOM      5  C   UNL     1      48.317   7.368  14.429  0.00  0.00    +0.000 A 
ATOM      6  C   UNL     1      48.793   8.438  13.657  0.00  0.00    +0.000 A 
ATOM      7  C   UNL     1      48.670   8.399  12.259  0.00  0.00    +0.000 A 
ATOM      8  C   UNL     1      47.953   7.377  11.616  0.00  0.00    +0.000 A 
ATOM      9  C   UNL     1      47.383   6.392  12.430  0.00  0.00    +0.000 A 
ENDROOT
BRANCH   6  10
ATOM     10  C   UNL     1      49.334   9.618  14.396  0.00  0.00    +0.000 C 
ATOM     11  N   UNL     1      48.465  10.456  15.038  0.00  0.00    +0.000 N 
ATOM     12  O   UNL     1      50.539   9.827  14.477  0.00  0.00    +0.000 OA
ATOM     13  H   UNL     1      47.462  10.376  15.039  0.00  0.00    +0.000 HD
ATOM     14  H   UNL     1      48.882  11.199  15.583  0.00  0.00    +0.000 HD
ENDBRANCH   6  10
BRANCH   1  15
ATOM     15  C   UNL     1      45.304   5.555  11.292  0.00  0.00    +0.000 C 
BRANCH  15  20
ATOM     16  C   UNL     1      45.730   3.588   8.085  0.00  0.00    +0.000 A 
ATOM     17  C   UNL     1      45.001   2.427   8.345  0.00  0.00    +0.000 A 
ATOM     18  C   UNL     1      44.300   2.288   9.548  0.00  0.00    +0.000 A 
ATOM     19  C   UNL     1      44.324   3.303  10.514  0.00  0.00    +0.000 A 
ATOM     20  C   UNL     1      45.037   4.478  10.273  0.00  0.00    +0.000 A 
ATOM     21  C   UNL     1      45.719   4.608   9.043  0.00  0.00    +0.000 A 
BRANCH  16  22
ATOM     22  C   UNL     1      46.565   3.736   6.834  0.00  0.00    +0.000 C 
BRANCH  22  23
ATOM     23  C   UNL     1      47.191   2.421   6.358  0.00  0.00    +0.000 C 
BRANCH  23  24
ATOM     24  N   UNL     1      48.646   2.548   6.267  0.00  0.00    +0.000 NA
ATOM     25  H   UNL     1      49.081   1.661   6.519  0.00  0.00    +0.000 HD
ATOM     26  H   UNL     1      48.978   3.230   6.948  0.00  0.00    +0.000 HD
ENDBRANCH  23  24
ENDBRANCH  22  23
ENDBRANCH  16  22
ENDBRANCH  15  20
ENDBRANCH   1  15
TORSDOF 6
ENDMDL
MODEL 6
REMARK VINA RESULT:    -6.234      3.541      6.240
REMARK INTER + INTRA:          -9.053
REMARK INTER:                  -8.391
REMARK INTRA:                  -0.662
REMARK UNBOUND:                -0.814
REMARK  Name = 
REMARK  6 active torsions:
REMARK  status: ('A' for Active; 'I' for Inactive)
REMARK    1  A    between atoms: N_1  and  C_2
REMARK    2  A    between atoms: C_2  and  C_3
REMARK    3  A    between atoms: C_3  and  C_4
REMARK    4  A    between atoms: C_8  and  C_9
REMARK    5  A    between atoms: C_9  and  N_10
REMARK    6  A    between atoms: C_15  and  C_16
REMARK                            x       y       z     vdW  Elec       q    Type
REMARK                         _______ _______ _______ _____ _____    ______ ____
ROOT
ATOM      1  N   UNL     1      48.366   6.886  13.537  0.00  0.00    +0.000 N 
ATOM      2  C   UNL     1      48.889   7.515  12.431  0.00  0.00    +0.000 A 
ATOM      3  N   UNL     1      48.104   7.400  11.385  0.00  0.00    +0.000 NA
ATOM      4  C   UNL     1      47.042   6.643  11.812  0.00  0.00    +0.000 A 
ATOM      5  C   UNL     1      45.833   6.354  11.164  0.00  0.00    +0.000 A 
ATOM      6  C   UNL     1      44.865   5.590  11.831  0.00  0.00    +0.000 A 
ATOM      7  C   UNL     1      45.162   5.024  13.081  0.00  0.00    +0.000 A 
ATOM      8  C   UNL     1      46.360   5.318  13.751  0.00  0.00    +0.000 A 
ATOM      9  C   UNL     1      47.249   6.187  13.110  0.00  0.00    +0.000 A 
ENDROOT
BRANCH   6  10
ATOM     10  C   UNL     1      43.517   5.500  11.193  0.00  0.00    +0.000 C 
ATOM     11  N   UNL     1      42.482   6.220  11.721  0.00  0.00    +0.000 N 
ATOM     12  O   UNL     1      43.329   4.830  10.184  0.00  0.00    +0.000 OA
ATOM     13  H   UNL     1      42.526   6.801  12.541  0.00  0.00    +0.000 HD
ATOM     14  H   UNL     1      41.607   6.182  11.213  0.00  0.00    +0.000 HD
ENDBRANCH   6  10
BRANCH   1  15
ATOM     15  C   UNL     1      48.518   7.441  14.881  0.00  0.00    +0.000 C 
BRANCH  15  20
ATOM     16  C   UNL     1      49.521   4.813  17.416  0.00  0.00    +0.000 A 
ATOM     17  C   UNL     1      50.898   5.008  17.522  0.00  0.00    +0.000 A 
ATOM     18  C   UNL     1      51.521   6.044  16.818  0.00  0.00    +0.000 A 
ATOM     19  C   UNL     1      50.779   6.897  15.990  0.00  0.00    +0.000 A 
ATOM     20  C   UNL     1      49.399   6.729  15.875  0.00  0.00    +0.000 A 
ATOM     21  C   UNL     1      48.785   5.691  16.612  0.00  0.00    +0.000 A 
BRANCH  16  22
ATOM     22  C   UNL     1      48.829   3.654  18.096  0.00  0.00    +0.000 C 
BRANCH  22  23
ATOM     23  C   UNL     1      47.918   2.852  17.160  0.00  0.00    +0.000 C 
BRANCH  23  24
ATOM     24  N   UNL     1      46.529   2.916  17.617  0.00  0.00    +0.000 NA
ATOM     25  H   UNL     1      46.464   3.538  18.421  0.00  0.00    +0.000 HD
ATOM     26  H   UNL     1      46.230   1.998  17.944  0.00  0.00    +0.000 HD
ENDBRANCH  23  24
ENDBRANCH  22  23
ENDBRANCH  16  22
ENDBRANCH  15  20
ENDBRANCH   1  15
TORSDOF 6
ENDMDL
MODEL 7
REMARK VINA RESULT:    -6.022      2.786      4.785
REMARK INTER + INTRA:          -8.772
REMARK INTER:                  -8.454
REMARK INTRA:                  -0.318
REMARK UNBOUND:                -0.814
REMARK  Name = 
REMARK  6 active torsions:
REMARK  status: ('A' for Active; 'I' for Inactive)
REMARK    1  A    between atoms: N_1  and  C_2
REMARK    2  A    between atoms: C_2  and  C_3
REMARK    3  A    between atoms: C_3  and  C_4
REMARK    4  A    between atoms: C_8  and  C_9
REMARK    5  A    between atoms: C_9  and  N_10
REMARK    6  A    between atoms: C_15  and  C_16
REMARK                            x       y       z     vdW  Elec       q    Type
REMARK                         _______ _______ _______ _____ _____    ______ ____
ROOT
ATOM      1  N   UNL     1      47.674   6.269  13.323  0.00  0.00    +0.000 N 
ATOM      2  C   UNL     1      47.656   5.671  14.563  0.00  0.00    +0.000 A 
ATOM      3  N   UNL     1      46.763   4.712  14.631  0.00  0.00    +0.000 NA
ATOM      4  C   UNL     1      46.152   4.698  13.402  0.00  0.00    +0.000 A 
ATOM      5  C   UNL     1      45.246   3.773  12.865  0.00  0.00    +0.000 A 
ATOM      6  C   UNL     1      44.792   3.945  11.549  0.00  0.00    +0.000 A 
ATOM      7  C   UNL     1      45.151   5.097  10.832  0.00  0.00    +0.000 A 
ATOM      8  C   UNL     1      46.072   6.023  11.348  0.00  0.00    +0.000 A 
ATOM      9  C   UNL     1      46.601   5.754  12.615  0.00  0.00    +0.000 A 
ENDROOT
BRANCH   6  10
ATOM     10  C   UNL     1      44.011   2.821  10.951  0.00  0.00    +0.000 C 
ATOM     11  N   UNL     1      44.522   2.157   9.871  0.00  0.00    +0.000 N 
ATOM     12  O   UNL     1      42.945   2.454  11.433  0.00  0.00    +0.000 OA
ATOM     13  H   UNL     1      45.384   2.372   9.401  0.00  0.00    +0.000 HD
ATOM     14  H   UNL     1      43.991   1.359   9.546  0.00  0.00    +0.000 HD
ENDBRANCH   6  10
BRANCH   1  15
ATOM     15  C   UNL     1      48.920   6.720  12.705  0.00  0.00    +0.000 C 
BRANCH  15  20
ATOM     16  C   UNL     1      47.699  10.159  11.693  0.00  0.00    +0.000 A 
ATOM     17  C   UNL     1      48.872  10.780  11.262  0.00  0.00    +0.000 A 
ATOM     18  C   UNL     1      50.077  10.068  11.230  0.00  0.00    +0.000 A 
ATOM     19  C   UNL     1      50.131   8.729  11.638  0.00  0.00    +0.000 A 
ATOM     20  C   UNL     1      48.969   8.083  12.063  0.00  0.00    +0.000 A 
ATOM     21  C   UNL     1      47.759   8.811  12.066  0.00  0.00    +0.000 A 
BRANCH  16  22
ATOM     22  C   UNL     1      46.400  10.920  11.819  0.00  0.00    +0.000 C 
BRANCH  22  23
ATOM     23  C   UNL     1      45.164  10.079  11.483  0.00  0.00    +0.000 C 
BRANCH  23  24
ATOM     24  N   UNL     1      44.163  10.188  12.545  0.00  0.00    +0.000 NA
ATOM     25  H   UNL     1      44.593   9.968  13.442  0.00  0.00    +0.000 HD
ATOM     26  H   UNL     1      43.431   9.493  12.403  0.00  0.00    +0.000 HD
ENDBRANCH  23  24
ENDBRANCH  22  23
ENDBRANCH  16  22
ENDBRANCH  15  20
ENDBRANCH   1  15
TORSDOF 6
ENDMDL
MODEL 8
REMARK VINA RESULT:    -5.974      4.487      7.644
REMARK INTER + INTRA:          -8.708
REMARK INTER:                  -8.359
REMARK INTRA:                  -0.349
REMARK UNBOUND:                -0.814
REMARK  Name = 
REMARK  6 active torsions:
REMARK  status: ('A' for Active; 'I' for Inactive)
REMARK    1  A    between atoms: N_1  and  C_2
REMARK    2  A    between atoms: C_2  and  C_3
REMARK    3  A    between atoms: C_3  and  C_4
REMARK    4  A    between atoms: C_8  and  C_9
REMARK    5  A    between atoms: C_9  and  N_10
REMARK    6  A    between atoms: C_15  and  C_16
REMARK                            x       y       z     vdW  Elec       q    Type
REMARK                         _______ _______ _______ _____ _____    ______ ____
ROOT
ATOM      1  N   UNL     1      47.370   5.247  13.875  0.00  0.00    +0.000 N 
ATOM      2  C   UNL     1      47.046   3.918  13.724  0.00  0.00    +0.000 A 
ATOM      3  N   UNL     1      47.161   3.255  14.851  0.00  0.00    +0.000 NA
ATOM      4  C   UNL     1      47.605   4.174  15.768  0.00  0.00    +0.000 A 
ATOM      5  C   UNL     1      47.737   4.058  17.159  0.00  0.00    +0.000 A 
ATOM      6  C   UNL     1      48.169   5.166  17.901  0.00  0.00    +0.000 A 
ATOM      7  C   UNL     1      48.578   6.333  17.237  0.00  0.00    +0.000 A 
ATOM      8  C   UNL     1      48.435   6.474  15.847  0.00  0.00    +0.000 A 
ATOM      9  C   UNL     1      47.882   5.392  15.154  0.00  0.00    +0.000 A 
ENDROOT
BRANCH   6  10
ATOM     10  C   UNL     1      48.079   5.062  19.388  0.00  0.00    +0.000 C 
ATOM     11  N   UNL     1      48.600   3.962  20.010  0.00  0.00    +0.000 N 
ATOM     12  O   UNL     1      47.588   5.958  20.065  0.00  0.00    +0.000 OA
ATOM     13  H   UNL     1      49.025   3.173  19.554  0.00  0.00    +0.000 HD
ATOM     14  H   UNL     1      48.578   3.969  21.022  0.00  0.00    +0.000 HD
ENDBRANCH   6  10
BRANCH   1  15
ATOM     15  C   UNL     1      46.652   6.300  13.158  0.00  0.00    +0.000 C 
BRANCH  15  20
ATOM     16  C   UNL     1      44.720   4.926  10.205  0.00  0.00    +0.000 A 
ATOM     17  C   UNL     1      43.420   4.848  10.705  0.00  0.00    +0.000 A 
ATOM     18  C   UNL     1      43.133   5.304  11.997  0.00  0.00    +0.000 A 
ATOM     19  C   UNL     1      44.141   5.836  12.812  0.00  0.00    +0.000 A 
ATOM     20  C   UNL     1      45.447   5.934  12.330  0.00  0.00    +0.000 A 
ATOM     21  C   UNL     1      45.712   5.489  11.016  0.00  0.00    +0.000 A 
BRANCH  16  22
ATOM     22  C   UNL     1      45.082   4.367   8.848  0.00  0.00    +0.000 C 
BRANCH  22  23
ATOM     23  C   UNL     1      44.537   2.957   8.603  0.00  0.00    +0.000 C 
BRANCH  23  24
ATOM     24  N   UNL     1      45.227   1.984   9.451  0.00  0.00    +0.000 NA
ATOM     25  H   UNL     1      45.902   2.467  10.043  0.00  0.00    +0.000 HD
ATOM     26  H   UNL     1      45.766   1.341   8.872  0.00  0.00    +0.000 HD
ENDBRANCH  23  24
ENDBRANCH  22  23
ENDBRANCH  16  22
ENDBRANCH  15  20
ENDBRANCH   1  15
TORSDOF 6
ENDMDL
MODEL 9
REMARK VINA RESULT:    -5.716      2.655      4.618
REMARK INTER + INTRA:          -8.368
REMARK INTER:                  -7.912
REMARK INTRA:                  -0.456
REMARK UNBOUND:                -0.814
REMARK  Name = 
REMARK  6 active torsions:
REMARK  status: ('A' for Active; 'I' for Inactive)
REMARK    1  A    between atoms: N_1  and  C_2
REMARK    2  A    between atoms: C_2  and  C_3
REMARK    3  A    between atoms: C_3  and  C_4
REMARK    4  A    between atoms: C_8  and  C_9
REMARK    5  A    between atoms: C_9  and  N_10
REMARK    6  A    between atoms: C_15  and  C_16
REMARK                            x       y       z     vdW  Elec       q    Type
REMARK                         _______ _______ _______ _____ _____    ______ ____
ROOT
ATOM      1  N   UNL     1      47.262   7.063  12.925  0.00  0.00    +0.000 N 
ATOM      2  C   UNL     1      47.968   6.302  13.829  0.00  0.00    +0.000 A 
ATOM      3  N   UNL     1      47.492   5.082  13.919  0.00  0.00    +0.000 NA
ATOM      4  C   UNL     1      46.417   5.049  13.066  0.00  0.00    +0.000 A 
ATOM      5  C   UNL     1      45.646   3.959  12.643  0.00  0.00    +0.000 A 
ATOM      6  C   UNL     1      44.616   4.169  11.714  0.00  0.00    +0.000 A 
ATOM      7  C   UNL     1      44.291   5.474  11.315  0.00  0.00    +0.000 A 
ATOM      8  C   UNL     1      45.065   6.576  11.715  0.00  0.00    +0.000 A 
ATOM      9  C   UNL     1      46.163   6.314  12.542  0.00  0.00    +0.000 A 
ENDROOT
BRANCH   6  10
ATOM     10  C   UNL     1      43.975   2.953  11.128  0.00  0.00    +0.000 C 
ATOM     11  N   UNL     1      44.521   2.386  10.011  0.00  0.00    +0.000 N 
ATOM     12  O   UNL     1      42.999   2.427  11.652  0.00  0.00    +0.000 OA
ATOM     13  H   UNL     1      45.318   2.732   9.504  0.00  0.00    +0.000 HD
ATOM     14  H   UNL     1      44.094   1.526   9.693  0.00  0.00    +0.000 HD
ENDBRANCH   6  10
BRANCH   1  15
ATOM     15  C   UNL     1      47.922   8.045  12.065  0.00  0.00    +0.000 C 
BRANCH  15  20
ATOM     16  C   UNL     1      51.533   7.782  10.957  0.00  0.00    +0.000 A 
ATOM     17  C   UNL     1      52.185   8.633  11.849  0.00  0.00    +0.000 A 
ATOM     18  C   UNL     1      51.469   9.262  12.875  0.00  0.00    +0.000 A 
ATOM     19  C   UNL     1      50.091   9.057  13.019  0.00  0.00    +0.000 A 
ATOM     20  C   UNL     1      49.418   8.202  12.145  0.00  0.00    +0.000 A 
ATOM     21  C   UNL     1      50.162   7.559  11.130  0.00  0.00    +0.000 A 
BRANCH  16  22
ATOM     22  C   UNL     1      52.257   7.154   9.789  0.00  0.00    +0.000 C 
BRANCH  22  23
ATOM     23  C   UNL     1      53.661   6.650  10.139  0.00  0.00    +0.000 C 
BRANCH  23  24
ATOM     24  N   UNL     1      53.636   5.214  10.422  0.00  0.00    +0.000 NA
ATOM     25  H   UNL     1      53.979   4.702   9.611  0.00  0.00    +0.000 HD
ATOM     26  H   UNL     1      52.675   4.906  10.566  0.00  0.00    +0.000 HD
ENDBRANCH  23  24
ENDBRANCH  22  23
ENDBRANCH  16  22
ENDBRANCH  15  20
ENDBRANCH   1  15
TORSDOF 6
ENDMDL
