MODEL 1
REMARK VINA RESULT:    -8.564      0.000      0.000
REMARK INTER + INTRA:         -12.395
REMARK INTER:                 -12.068
REMARK INTRA:                  -0.326
REMARK UNBOUND:                -0.326
REMARK  Name = 
REMARK  8 active torsions:
REMARK  status: ('A' for Active; 'I' for Inactive)
REMARK    1  A    between atoms: C_1  and  O_2
REMARK    2  A    between atoms: O_2  and  C_3
REMARK    3  A    between atoms: C_5  and  C_6
REMARK    4  A    between atoms: C_6  and  N_7
REMARK    5  A    between atoms: C_8  and  C_10
REMARK    6  A    between atoms: C_22  and  C_23
REMARK    7  A    between atoms: C_23  and  N_24
REMARK    8  A    between atoms: N_24  and  C_25
REMARK                            x       y       z     vdW  Elec       q    Type
REMARK                         _______ _______ _______ _____ _____    ______ ____
ROOT
ATOM      1  C   UNL     1      44.285   5.626  11.980  0.00  0.00    +0.000 A 
ATOM      2  C   UNL     1      44.973   6.562  12.760  0.00  0.00    +0.000 A 
ATOM      3  C   UNL     1      46.181   7.108  12.314  0.00  0.00    +0.000 A 
ATOM      4  C   UNL     1      46.635   6.713  11.065  0.00  0.00    +0.000 A 
ATOM      5  N   UNL     1      45.997   5.818  10.277  0.00  0.00    +0.000 NA
ATOM      6  C   UNL     1      44.836   5.268  10.741  0.00  0.00    +0.000 A 
ENDROOT
BRANCH   1   8
ATOM      7  C   UNL     1      43.229   4.054  13.413  0.00  0.00    +0.000 C 
ATOM      8  O   UNL     1      43.123   5.013  12.364  0.00  0.00    +0.000 OA
ENDBRANCH   1   8
BRANCH   3   9
ATOM      9  C   UNL     1      46.944   8.097  13.146  0.00  0.00    +0.000 C 
BRANCH   9  10
ATOM     10  N   UNL     1      47.369   7.516  14.396  0.00  0.00    +0.000 N 
ATOM     11  C   UNL     1      48.525   6.779  14.482  0.00  0.00    +0.000 C 
ATOM     12  O   UNL     1      49.259   6.608  13.514  0.00  0.00    +0.000 OA
ATOM     13  H   UNL     1      46.677   7.441  15.133  0.00  0.00    +0.000 HD
BRANCH  11  14
ATOM     14  C   UNL     1      48.869   6.260  15.812  0.00  0.00    +0.000 A 
ATOM     15  C   UNL     1      49.845   6.898  16.566  0.00  0.00    +0.000 A 
ATOM     16  S   UNL     1      50.077   6.209  18.108  0.00  0.00    +0.000 S 
ATOM     17  C   UNL     1      48.921   5.000  17.803  0.00  0.00    +0.000 A 
ATOM     18  N   UNL     1      48.643   4.047  18.733  0.00  0.00    +0.000 NA
ATOM     19  C   UNL     1      47.764   3.178  18.361  0.00  0.00    +0.000 A 
ATOM     20  N   UNL     1      47.134   3.176  17.144  0.00  0.00    +0.000 N 
ATOM     21  C   UNL     1      47.368   4.128  16.180  0.00  0.00    +0.000 A 
ATOM     22  O   UNL     1      46.770   4.112  15.108  0.00  0.00    +0.000 OA
ATOM     23  C   UNL     1      48.352   5.129  16.547  0.00  0.00    +0.000 A 
ATOM     24  H   UNL     1      46.450   2.469  16.919  0.00  0.00    +0.000 HD
ENDBRANCH  11  14
ENDBRANCH   9  10
ENDBRANCH   3   9
BRANCH   6  25
ATOM     25  C   UNL     1      44.159   4.241   9.839  0.00  0.00    +0.000 C 
BRANCH  25  26
ATOM     26  N   UNL     1      44.563   4.413   8.442  0.00  0.00    +0.000 N 
ATOM     27  H   UNL     1      44.841   5.367   8.238  0.00  0.00    +0.000 HD
BRANCH  26  28
ATOM     28  C   UNL     1      45.552   3.522   7.984  0.00  0.00    +0.000 A 
ATOM     29  N   UNL     1      46.554   3.991   7.203  0.00  0.00    +0.000 NA
ATOM     30  C   UNL     1      47.504   3.120   6.787  0.00  0.00    +0.000 A 
ATOM     31  C   UNL     1      47.520   1.776   7.114  0.00  0.00    +0.000 A 
ATOM     32  C   UNL     1      46.508   1.296   7.932  0.00  0.00    +0.000 A 
ATOM     33  C   UNL     1      45.517   2.172   8.379  0.00  0.00    +0.000 A 
ATOM     34 CL   UNL     1      44.261   1.544   9.387  0.00  0.00    +0.000 Cl
ENDBRANCH  26  28
ENDBRANCH  25  26
ENDBRANCH   6  25
TORSDOF 7
ENDMDL
MODEL 2
REMARK VINA RESULT:    -8.222      2.285      3.208
REMARK INTER + INTRA:         -11.913
REMARK INTER:                 -10.735
REMARK INTRA:                  -1.178
REMARK UNBOUND:                -0.326
REMARK  Name = 
REMARK  8 active torsions:
REMARK  status: ('A' for Active; 'I' for Inactive)
REMARK    1  A    between atoms: C_1  and  O_2
REMARK    2  A    between atoms: O_2  and  C_3
REMARK    3  A    between atoms: C_5  and  C_6
REMARK    4  A    between atoms: C_6  and  N_7
REMARK    5  A    between atoms: C_8  and  C_10
REMARK    6  A    between atoms: C_22  and  C_23
REMARK    7  A    between atoms: C_23  and  N_24
REMARK    8  A    between atoms: N_24  and  C_25
REMARK                            x       y       z     vdW  Elec       q    Type
REMARK                         _______ _______ _______ _____ _____    ______ ____
ROOT
ATOM      1  C   UNL     1      46.986   6.143  12.206  0.00  0.00    +0.000 A 
ATOM      2  C   UNL     1      47.129   5.736  13.537  0.00  0.00    +0.000 A 
ATOM      3  C   UNL     1      46.299   4.745  14.071  0.00  0.00    +0.000 A 
ATOM      4  C   UNL     1      45.371   4.166  13.218  0.00  0.00    +0.000 A 
ATOM      5  N   UNL     1      45.205   4.524  11.925  0.00  0.00    +0.000 NA
ATOM      6  C   UNL     1      46.001   5.518  11.429  0.00  0.00    +0.000 A 
ENDROOT
BRANCH   1   8
ATOM      7  C   UNL     1      47.621   8.431  12.208  0.00  0.00    +0.000 C 
ATOM      8  O   UNL     1      47.726   7.136  11.624  0.00  0.00    +0.000 OA
ENDBRANCH   1   8
BRANCH   3   9
ATOM      9  C   UNL     1      46.424   4.310  15.502  0.00  0.00    +0.000 C 
BRANCH   9  10
ATOM     10  N   UNL     1      47.806   4.241  15.911  0.00  0.00    +0.000 N 
ATOM     11  C   UNL     1      48.192   4.604  17.178  0.00  0.00    +0.000 C 
ATOM     12  O   UNL     1      47.383   4.973  18.023  0.00  0.00    +0.000 OA
ATOM     13  H   UNL     1      48.504   4.172  15.179  0.00  0.00    +0.000 HD
BRANCH  11  14
ATOM     14  C   UNL     1      49.621   4.465  17.487  0.00  0.00    +0.000 A 
ATOM     15  C   UNL     1      50.346   5.576  17.897  0.00  0.00    +0.000 A 
ATOM     16  S   UNL     1      51.972   5.231  18.278  0.00  0.00    +0.000 S 
ATOM     17  C   UNL     1      51.780   3.594  17.855  0.00  0.00    +0.000 A 
ATOM     18  N   UNL     1      52.823   2.726  17.934  0.00  0.00    +0.000 NA
ATOM     19  C   UNL     1      52.546   1.521  17.561  0.00  0.00    +0.000 A 
ATOM     20  N   UNL     1      51.316   1.106  17.119  0.00  0.00    +0.000 N 
ATOM     21  C   UNL     1      50.228   1.942  17.040  0.00  0.00    +0.000 A 
ATOM     22  O   UNL     1      49.135   1.533  16.661  0.00  0.00    +0.000 OA
ATOM     23  C   UNL     1      50.488   3.311  17.445  0.00  0.00    +0.000 A 
ATOM     24  H   UNL     1      51.164   0.145  16.847  0.00  0.00    +0.000 HD
ENDBRANCH  11  14
ENDBRANCH   9  10
ENDBRANCH   3   9
BRANCH   6  25
ATOM     25  C   UNL     1      45.767   5.916   9.975  0.00  0.00    +0.000 C 
BRANCH  25  26
ATOM     26  N   UNL     1      44.944   4.926   9.278  0.00  0.00    +0.000 N 
ATOM     27  H   UNL     1      44.236   5.359   8.693  0.00  0.00    +0.000 HD
BRANCH  26  28
ATOM     28  C   UNL     1      45.654   3.967   8.531  0.00  0.00    +0.000 A 
ATOM     29  N   UNL     1      46.583   4.381   7.636  0.00  0.00    +0.000 NA
ATOM     30  C   UNL     1      47.265   3.441   6.939  0.00  0.00    +0.000 A 
ATOM     31  C   UNL     1      47.079   2.079   7.087  0.00  0.00    +0.000 A 
ATOM     32  C   UNL     1      46.144   1.650   8.019  0.00  0.00    +0.000 A 
ATOM     33  C   UNL     1      45.428   2.596   8.754  0.00  0.00    +0.000 A 
ATOM     34 CL   UNL     1      44.262   2.034   9.899  0.00  0.00    +0.000 Cl
ENDBRANCH  26  28
ENDBRANCH  25  26
ENDBRANCH   6  25
TORSDOF 7
ENDMDL
MODEL 3
REMARK VINA RESULT:    -7.982      1.945      2.346
REMARK INTER + INTRA:         -11.575
REMARK INTER:                 -11.552
REMARK INTRA:                  -0.022
REMARK UNBOUND:                -0.326
REMARK  Name = 
REMARK  8 active torsions:
REMARK  status: ('A' for Active; 'I' for Inactive)
REMARK    1  A    between atoms: C_1  and  O_2
REMARK    2  A    between atoms: O_2  and  C_3
REMARK    3  A    between atoms: C_5  and  C_6
REMARK    4  A    between atoms: C_6  and  N_7
REMARK    5  A    between atoms: C_8  and  C_10
REMARK    6  A    between atoms: C_22  and  C_23
REMARK    7  A    between atoms: C_23  and  N_24
REMARK    8  A    between atoms: N_24  and  C_25
REMARK                            x       y       z     vdW  Elec       q    Type
REMARK                         _______ _______ _______ _____ _____    ______ ____
ROOT
ATOM      1  C   UNL     1      45.431   4.416  12.275  0.00  0.00    +0.000 A 
ATOM      2  C   UNL     1      46.343   5.035  13.137  0.00  0.00    +0.000 A 
ATOM      3  C   UNL     1      47.049   6.171  12.728  0.00  0.00    +0.000 A 
ATOM      4  C   UNL     1      46.774   6.670  11.463  0.00  0.00    +0.000 A 
ATOM      5  N   UNL     1      45.895   6.107  10.604  0.00  0.00    +0.000 NA
ATOM      6  C   UNL     1      45.239   4.978  11.005  0.00  0.00    +0.000 A 
ENDROOT
BRANCH   1   8
ATOM      7  C   UNL     1      43.418   3.457  13.092  0.00  0.00    +0.000 C 
ATOM      8  O   UNL     1      44.736   3.277  12.582  0.00  0.00    +0.000 OA
ENDBRANCH   1   8
BRANCH   3   9
ATOM      9  C   UNL     1      48.047   6.836  13.631  0.00  0.00    +0.000 C 
BRANCH   9  10
ATOM     10  N   UNL     1      47.930   6.356  14.986  0.00  0.00    +0.000 N 
ATOM     11  C   UNL     1      49.016   6.325  15.826  0.00  0.00    +0.000 C 
ATOM     12  O   UNL     1      50.120   6.728  15.476  0.00  0.00    +0.000 OA
ATOM     13  H   UNL     1      47.108   5.809  15.216  0.00  0.00    +0.000 HD
BRANCH  11  14
ATOM     14  C   UNL     1      48.769   5.842  17.191  0.00  0.00    +0.000 A 
ATOM     15  C   UNL     1      48.948   4.497  17.486  0.00  0.00    +0.000 A 
ATOM     16  S   UNL     1      48.682   4.115  19.126  0.00  0.00    +0.000 S 
ATOM     17  C   UNL     1      48.266   5.723  19.491  0.00  0.00    +0.000 A 
ATOM     18  N   UNL     1      47.905   6.083  20.751  0.00  0.00    +0.000 NA
ATOM     19  C   UNL     1      47.592   7.328  20.882  0.00  0.00    +0.000 A 
ATOM     20  N   UNL     1      47.610   8.249  19.866  0.00  0.00    +0.000 N 
ATOM     21  C   UNL     1      47.985   7.936  18.582  0.00  0.00    +0.000 A 
ATOM     22  O   UNL     1      48.012   8.789  17.699  0.00  0.00    +0.000 OA
ATOM     23  C   UNL     1      48.345   6.545  18.379  0.00  0.00    +0.000 A 
ATOM     24  H   UNL     1      47.359   9.211  20.039  0.00  0.00    +0.000 HD
ENDBRANCH  11  14
ENDBRANCH   9  10
ENDBRANCH   3   9
BRANCH   6  25
ATOM     25  C   UNL     1      44.277   4.354   9.999  0.00  0.00    +0.000 C 
BRANCH  25  26
ATOM     26  N   UNL     1      44.729   4.575   8.623  0.00  0.00    +0.000 N 
ATOM     27  H   UNL     1      45.111   5.506   8.490  0.00  0.00    +0.000 HD
BRANCH  26  28
ATOM     28  C   UNL     1      45.631   3.618   8.122  0.00  0.00    +0.000 A 
ATOM     29  N   UNL     1      46.652   4.021   7.329  0.00  0.00    +0.000 NA
ATOM     30  C   UNL     1      47.517   3.085   6.870  0.00  0.00    +0.000 A 
ATOM     31  C   UNL     1      47.429   1.737   7.165  0.00  0.00    +0.000 A 
ATOM     32  C   UNL     1      46.397   1.321   7.996  0.00  0.00    +0.000 A 
ATOM     33  C   UNL     1      45.492   2.265   8.486  0.00  0.00    +0.000 A 
ATOM     34 CL   UNL     1      44.211   1.718   9.508  0.00  0.00    +0.000 Cl
ENDBRANCH  26  28
ENDBRANCH  25  26
ENDBRANCH   6  25
TORSDOF 7
ENDMDL
MODEL 4
REMARK VINA RESULT:    -7.820      1.931      2.517
REMARK INTER + INTRA:         -11.347
REMARK INTER:                 -10.835
REMARK INTRA:                  -0.512
REMARK UNBOUND:                -0.326
REMARK  Name = 
REMARK  8 active torsions:
REMARK  status: ('A' for Active; 'I' for Inactive)
REMARK    1  A    between atoms: C_1  and  O_2
REMARK    2  A    between atoms: O_2  and  C_3
REMARK    3  A    between atoms: C_5  and  C_6
REMARK    4  A    between atoms: C_6  and  N_7
REMARK    5  A    between atoms: C_8  and  C_10
REMARK    6  A    between atoms: C_22  and  C_23
REMARK    7  A    between atoms: C_23  and  N_24
REMARK    8  A    between atoms: N_24  and  C_25
REMARK                            x       y       z     vdW  Elec       q    Type
REMARK                         _______ _______ _______ _____ _____    ______ ____
ROOT
ATOM      1  C   UNL     1      45.187   7.137  12.040  0.00  0.00    +0.000 A 
ATOM      2  C   UNL     1      46.317   7.702  12.641  0.00  0.00    +0.000 A 
ATOM      3  C   UNL     1      47.228   6.901  13.337  0.00  0.00    +0.000 A 
ATOM      4  C   UNL     1      46.982   5.536  13.365  0.00  0.00    +0.000 A 
ATOM      5  N   UNL     1      45.907   4.950  12.792  0.00  0.00    +0.000 NA
ATOM      6  C   UNL     1      45.009   5.751  12.145  0.00  0.00    +0.000 A 
ENDROOT
BRANCH   1   8
ATOM      7  C   UNL     1      44.479   9.251  11.222  0.00  0.00    +0.000 C 
ATOM      8  O   UNL     1      44.227   7.858  11.382  0.00  0.00    +0.000 OA
ENDBRANCH   1   8
BRANCH   3   9
ATOM      9  C   UNL     1      48.435   7.492  14.006  0.00  0.00    +0.000 C 
BRANCH   9  10
ATOM     10  N   UNL     1      48.280   7.518  15.440  0.00  0.00    +0.000 N 
ATOM     11  C   UNL     1      49.166   6.869  16.265  0.00  0.00    +0.000 C 
ATOM     12  O   UNL     1      50.139   6.266  15.825  0.00  0.00    +0.000 OA
ATOM     13  H   UNL     1      47.375   7.798  15.804  0.00  0.00    +0.000 HD
BRANCH  11  14
ATOM     14  C   UNL     1      48.920   6.990  17.708  0.00  0.00    +0.000 A 
ATOM     15  C   UNL     1      48.802   8.250  18.280  0.00  0.00    +0.000 A 
ATOM     16  S   UNL     1      48.455   8.213  19.949  0.00  0.00    +0.000 S 
ATOM     17  C   UNL     1      48.504   6.513  19.978  0.00  0.00    +0.000 A 
ATOM     18  N   UNL     1      48.304   5.827  21.135  0.00  0.00    +0.000 NA
ATOM     19  C   UNL     1      48.393   4.545  21.019  0.00  0.00    +0.000 A 
ATOM     20  N   UNL     1      48.661   3.884  19.847  0.00  0.00    +0.000 N 
ATOM     21  C   UNL     1      48.852   4.533  18.651  0.00  0.00    +0.000 A 
ATOM     22  O   UNL     1      49.068   3.910  17.615  0.00  0.00    +0.000 OA
ATOM     23  C   UNL     1      48.765   5.979  18.727  0.00  0.00    +0.000 A 
ATOM     24  H   UNL     1      48.710   2.876  19.824  0.00  0.00    +0.000 HD
ENDBRANCH  11  14
ENDBRANCH   9  10
ENDBRANCH   3   9
BRANCH   6  25
ATOM     25  C   UNL     1      43.794   5.059  11.535  0.00  0.00    +0.000 C 
BRANCH  25  26
ATOM     26  N   UNL     1      43.783   5.193  10.077  0.00  0.00    +0.000 N 
ATOM     27  H   UNL     1      44.053   6.124   9.775  0.00  0.00    +0.000 HD
BRANCH  26  28
ATOM     28  C   UNL     1      44.533   4.232   9.375  0.00  0.00    +0.000 A 
ATOM     29  N   UNL     1      45.336   4.631   8.359  0.00  0.00    +0.000 NA
ATOM     30  C   UNL     1      46.062   3.691   7.707  0.00  0.00    +0.000 A 
ATOM     31  C   UNL     1      46.040   2.343   8.017  0.00  0.00    +0.000 A 
ATOM     32  C   UNL     1      45.236   1.932   9.071  0.00  0.00    +0.000 A 
ATOM     33  C   UNL     1      44.480   2.880   9.763  0.00  0.00    +0.000 A 
ATOM     34 CL   UNL     1      43.479   2.339  11.064  0.00  0.00    +0.000 Cl
ENDBRANCH  26  28
ENDBRANCH  25  26
ENDBRANCH   6  25
TORSDOF 7
ENDMDL
MODEL 5
REMARK VINA RESULT:    -7.740      2.790      3.553
REMARK INTER + INTRA:         -11.234
REMARK INTER:                  -9.700
REMARK INTRA:                  -1.533
REMARK UNBOUND:                -0.326
REMARK  Name = 
REMARK  8 active torsions:
REMARK  status: ('A' for Active; 'I' for Inactive)
REMARK    1  A    between atoms: C_1  and  O_2
REMARK    2  A    between atoms: O_2  and  C_3
REMARK    3  A    between atoms: C_5  and  C_6
REMARK    4  A    between atoms: C_6  and  N_7
REMARK    5  A    between atoms: C_8  and  C_10
REMARK    6  A    between atoms: C_22  and  C_23
REMARK    7  A    between atoms: C_23  and  N_24
REMARK    8  A    between atoms: N_24  and  C_25
REMARK                            x       y       z     vdW  Elec       q    Type
REMARK                         _______ _______ _______ _____ _____    ______ ____
ROOT
ATOM      1  C   UNL     1      45.253   6.050  12.233  0.00  0.00    +0.000 A 
ATOM      2  C   UNL     1      46.375   6.523  12.923  0.00  0.00    +0.000 A 
ATOM      3  C   UNL     1      47.128   5.664  13.730  0.00  0.00    +0.000 A 
ATOM      4  C   UNL     1      46.739   4.334  13.779  0.00  0.00    +0.000 A 
ATOM      5  N   UNL     1      45.667   3.835  13.123  0.00  0.00    +0.000 NA
ATOM      6  C   UNL     1      44.922   4.694  12.366  0.00  0.00    +0.000 A 
ENDROOT
BRANCH   1   8
ATOM      7  C   UNL     1      44.716   8.233  11.467  0.00  0.00    +0.000 C 
ATOM      8  O   UNL     1      44.440   6.835  11.461  0.00  0.00    +0.000 OA
ENDBRANCH   1   8
BRANCH   3   9
ATOM      9  C   UNL     1      48.322   6.158  14.493  0.00  0.00    +0.000 C 
BRANCH   9  10
ATOM     10  N   UNL     1      48.006   6.366  15.886  0.00  0.00    +0.000 N 
ATOM     11  C   UNL     1      48.875   5.987  16.878  0.00  0.00    +0.000 C 
ATOM     12  O   UNL     1      49.966   5.484  16.628  0.00  0.00    +0.000 OA
ATOM     13  H   UNL     1      47.036   6.553  16.119  0.00  0.00    +0.000 HD
BRANCH  11  14
ATOM     14  C   UNL     1      48.456   6.274  18.256  0.00  0.00    +0.000 A 
ATOM     15  C   UNL     1      48.448   5.255  19.198  0.00  0.00    +0.000 A 
ATOM     16  S   UNL     1      47.999   5.769  20.760  0.00  0.00    +0.000 S 
ATOM     17  C   UNL     1      47.746   7.363  20.222  0.00  0.00    +0.000 A 
ATOM     18  N   UNL     1      47.322   8.330  21.078  0.00  0.00    +0.000 NA
ATOM     19  C   UNL     1      47.148   9.488  20.533  0.00  0.00    +0.000 A 
ATOM     20  N   UNL     1      47.362   9.766  19.207  0.00  0.00    +0.000 N 
ATOM     21  C   UNL     1      47.807   8.826  18.309  0.00  0.00    +0.000 A 
ATOM     22  O   UNL     1      48.011   9.113  17.133  0.00  0.00    +0.000 OA
ATOM     23  C   UNL     1      48.016   7.505  18.872  0.00  0.00    +0.000 A 
ATOM     24  H   UNL     1      47.212  10.696  18.846  0.00  0.00    +0.000 HD
ENDBRANCH  11  14
ENDBRANCH   9  10
ENDBRANCH   3   9
BRANCH   6  25
ATOM     25  C   UNL     1      43.704   4.103  11.663  0.00  0.00    +0.000 C 
BRANCH  25  26
ATOM     26  N   UNL     1      43.758   4.336  10.219  0.00  0.00    +0.000 N 
ATOM     27  H   UNL     1      44.044   5.284   9.994  0.00  0.00    +0.000 HD
BRANCH  26  28
ATOM     28  C   UNL     1      44.537   3.421   9.487  0.00  0.00    +0.000 A 
ATOM     29  N   UNL     1      44.167   2.118   9.451  0.00  0.00    +0.000 NA
ATOM     30  C   UNL     1      44.922   1.257   8.727  0.00  0.00    +0.000 A 
ATOM     31  C   UNL     1      46.049   1.624   8.015  0.00  0.00    +0.000 A 
ATOM     32  C   UNL     1      46.419   2.961   8.031  0.00  0.00    +0.000 A 
ATOM     33  C   UNL     1      45.658   3.872   8.766  0.00  0.00    +0.000 A 
ATOM     34 CL   UNL     1      46.148   5.529   8.778  0.00  0.00    +0.000 Cl
ENDBRANCH  26  28
ENDBRANCH  25  26
ENDBRANCH   6  25
TORSDOF 7
ENDMDL
MODEL 6
REMARK VINA RESULT:    -7.586      3.601      8.269
REMARK INTER + INTRA:         -11.017
REMARK INTER:                  -9.941
REMARK INTRA:                  -1.076
REMARK UNBOUND:                -0.326
REMARK  Name = 
REMARK  8 active torsions:
REMARK  status: ('A' for Active; 'I' for Inactive)
REMARK    1  A    between atoms: C_1  and  O_2
REMARK    2  A    between atoms: O_2  and  C_3
REMARK    3  A    between atoms: C_5  and  C_6
REMARK    4  A    between atoms: C_6  and  N_7
REMARK    5  A    between atoms: C_8  and  C_10
REMARK    6  A    between atoms: C_22  and  C_23
REMARK    7  A    between atoms: C_23  and  N_24
REMARK    8  A    between atoms: N_24  and  C_25
REMARK                            x       y       z     vdW  Elec       q    Type
REMARK                         _______ _______ _______ _____ _____    ______ ____
ROOT
ATOM      1  C   UNL     1      50.707   7.497  15.407  0.00  0.00    +0.000 A 
ATOM      2  C   UNL     1      50.106   7.921  14.217  0.00  0.00    +0.000 A 
ATOM      3  C   UNL     1      48.879   7.389  13.810  0.00  0.00    +0.000 A 
ATOM      4  C   UNL     1      48.277   6.464  14.652  0.00  0.00    +0.000 A 
ATOM      5  N   UNL     1      48.820   6.033  15.812  0.00  0.00    +0.000 NA
ATOM      6  C   UNL     1      50.035   6.538  16.178  0.00  0.00    +0.000 A 
ENDROOT
BRANCH   1   8
ATOM      7  C   UNL     1      53.001   7.870  14.917  0.00  0.00    +0.000 C 
ATOM      8  O   UNL     1      51.926   7.935  15.850  0.00  0.00    +0.000 OA
ENDBRANCH   1   8
BRANCH   3   9
ATOM      9  C   UNL     1      48.229   7.817  12.527  0.00  0.00    +0.000 C 
BRANCH   9  10
ATOM     10  N   UNL     1      47.495   6.731  11.923  0.00  0.00    +0.000 N 
ATOM     11  C   UNL     1      46.218   6.911  11.451  0.00  0.00    +0.000 C 
ATOM     12  O   UNL     1      45.657   8.001  11.494  0.00  0.00    +0.000 OA
ATOM     13  H   UNL     1      47.835   5.791  12.090  0.00  0.00    +0.000 HD
BRANCH  11  14
ATOM     14  C   UNL     1      45.582   5.740  10.832  0.00  0.00    +0.000 A 
ATOM     15  C   UNL     1      45.692   5.544   9.462  0.00  0.00    +0.000 A 
ATOM     16  S   UNL     1      44.953   4.108   8.915  0.00  0.00    +0.000 S 
ATOM     17  C   UNL     1      44.412   3.724  10.482  0.00  0.00    +0.000 A 
ATOM     18  N   UNL     1      43.681   2.602  10.713  0.00  0.00    +0.000 NA
ATOM     19  C   UNL     1      43.316   2.445  11.941  0.00  0.00    +0.000 A 
ATOM     20  N   UNL     1      43.620   3.310  12.962  0.00  0.00    +0.000 N 
ATOM     21  C   UNL     1      44.371   4.446  12.780  0.00  0.00    +0.000 A 
ATOM     22  O   UNL     1      44.644   5.188  13.719  0.00  0.00    +0.000 OA
ATOM     23  C   UNL     1      44.804   4.671  11.413  0.00  0.00    +0.000 A 
ATOM     24  H   UNL     1      43.307   3.125  13.904  0.00  0.00    +0.000 HD
ENDBRANCH  11  14
ENDBRANCH   9  10
ENDBRANCH   3   9
BRANCH   6  25
ATOM     25  C   UNL     1      50.631   6.007  17.478  0.00  0.00    +0.000 C 
BRANCH  25  26
ATOM     26  N   UNL     1      50.055   4.710  17.837  0.00  0.00    +0.000 N 
ATOM     27  H   UNL     1      49.254   4.473  17.259  0.00  0.00    +0.000 HD
BRANCH  26  28
ATOM     28  C   UNL     1      50.959   3.631  17.857  0.00  0.00    +0.000 A 
ATOM     29  N   UNL     1      52.179   3.801  18.420  0.00  0.00    +0.000 NA
ATOM     30  C   UNL     1      53.028   2.746  18.443  0.00  0.00    +0.000 A 
ATOM     31  C   UNL     1      52.725   1.497  17.932  0.00  0.00    +0.000 A 
ATOM     32  C   UNL     1      51.468   1.312  17.374  0.00  0.00    +0.000 A 
ATOM     33  C   UNL     1      50.572   2.381  17.339  0.00  0.00    +0.000 A 
ATOM     34 CL   UNL     1      49.017   2.126  16.629  0.00  0.00    +0.000 Cl
ENDBRANCH  26  28
ENDBRANCH  25  26
ENDBRANCH   6  25
TORSDOF 7
ENDMDL
MODEL 7
REMARK VINA RESULT:    -7.514      1.952      3.300
REMARK INTER + INTRA:         -10.915
REMARK INTER:                  -9.744
REMARK INTRA:                  -1.171
REMARK UNBOUND:                -0.326
REMARK  Name = 
REMARK  8 active torsions:
REMARK  status: ('A' for Active; 'I' for Inactive)
REMARK    1  A    between atoms: C_1  and  O_2
REMARK    2  A    between atoms: O_2  and  C_3
REMARK    3  A    between atoms: C_5  and  C_6
REMARK    4  A    between atoms: C_6  and  N_7
REMARK    5  A    between atoms: C_8  and  C_10
REMARK    6  A    between atoms: C_22  and  C_23
REMARK    7  A    between atoms: C_23  and  N_24
REMARK    8  A    between atoms: N_24  and  C_25
REMARK                            x       y       z     vdW  Elec       q    Type
REMARK                         _______ _______ _______ _____ _____    ______ ____
ROOT
ATOM      1  C   UNL     1      45.928   6.087  11.833  0.00  0.00    +0.000 A 
ATOM      2  C   UNL     1      46.446   5.723  13.081  0.00  0.00    +0.000 A 
ATOM      3  C   UNL     1      46.292   4.419  13.562  0.00  0.00    +0.000 A 
ATOM      4  C   UNL     1      45.649   3.509  12.737  0.00  0.00    +0.000 A 
ATOM      5  N   UNL     1      45.141   3.817  11.523  0.00  0.00    +0.000 NA
ATOM      6  C   UNL     1      45.269   5.104  11.082  0.00  0.00    +0.000 A 
ENDROOT
BRANCH   1   8
ATOM      7  C   UNL     1      45.063   8.299  11.824  0.00  0.00    +0.000 C 
ATOM      8  O   UNL     1      45.996   7.351  11.313  0.00  0.00    +0.000 OA
ENDBRANCH   1   8
BRANCH   3   9
ATOM      9  C   UNL     1      46.823   4.016  14.907  0.00  0.00    +0.000 C 
BRANCH   9  10
ATOM     10  N   UNL     1      47.447   5.128  15.580  0.00  0.00    +0.000 N 
ATOM     11  C   UNL     1      48.471   4.936  16.475  0.00  0.00    +0.000 C 
ATOM     12  O   UNL     1      48.919   3.820  16.719  0.00  0.00    +0.000 OA
ATOM     13  H   UNL     1      46.949   6.012  15.578  0.00  0.00    +0.000 HD
BRANCH  11  14
ATOM     14  C   UNL     1      49.046   6.146  17.077  0.00  0.00    +0.000 A 
ATOM     15  C   UNL     1      49.001   6.316  18.454  0.00  0.00    +0.000 A 
ATOM     16  S   UNL     1      49.768   7.739  18.994  0.00  0.00    +0.000 S 
ATOM     17  C   UNL     1      50.139   8.209  17.402  0.00  0.00    +0.000 A 
ATOM     18  N   UNL     1      50.792   9.375  17.151  0.00  0.00    +0.000 NA
ATOM     19  C   UNL     1      50.988   9.619  15.899  0.00  0.00    +0.000 A 
ATOM     20  N   UNL     1      50.593   8.799  14.873  0.00  0.00    +0.000 N 
ATOM     21  C   UNL     1      49.947   7.604  15.078  0.00  0.00    +0.000 A 
ATOM     22  O   UNL     1      49.627   6.882  14.138  0.00  0.00    +0.000 OA
ATOM     23  C   UNL     1      49.699   7.283  16.471  0.00  0.00    +0.000 A 
ATOM     24  H   UNL     1      50.784   9.048  13.913  0.00  0.00    +0.000 HD
ENDBRANCH  11  14
ENDBRANCH   9  10
ENDBRANCH   3   9
BRANCH   6  25
ATOM     25  C   UNL     1      44.658   5.422   9.720  0.00  0.00    +0.000 C 
BRANCH  25  26
ATOM     26  N   UNL     1      44.343   4.199   8.980  0.00  0.00    +0.000 N 
ATOM     27  H   UNL     1      43.553   4.322   8.355  0.00  0.00    +0.000 HD
BRANCH  26  28
ATOM     28  C   UNL     1      45.418   3.625   8.276  0.00  0.00    +0.000 A 
ATOM     29  N   UNL     1      46.288   4.431   7.621  0.00  0.00    +0.000 NA
ATOM     30  C   UNL     1      47.324   3.858   6.964  0.00  0.00    +0.000 A 
ATOM     31  C   UNL     1      47.557   2.496   6.922  0.00  0.00    +0.000 A 
ATOM     32  C   UNL     1      46.682   1.667   7.610  0.00  0.00    +0.000 A 
ATOM     33  C   UNL     1      45.607   2.230   8.299  0.00  0.00    +0.000 A 
ATOM     34 CL   UNL     1      44.526   1.174   9.137  0.00  0.00    +0.000 Cl
ENDBRANCH  26  28
ENDBRANCH  25  26
ENDBRANCH   6  25
TORSDOF 7
ENDMDL
MODEL 8
REMARK VINA RESULT:    -7.466      3.894      7.738
REMARK INTER + INTRA:         -10.848
REMARK INTER:                  -9.122
REMARK INTRA:                  -1.726
REMARK UNBOUND:                -0.326
REMARK  Name = 
REMARK  8 active torsions:
REMARK  status: ('A' for Active; 'I' for Inactive)
REMARK    1  A    between atoms: C_1  and  O_2
REMARK    2  A    between atoms: O_2  and  C_3
REMARK    3  A    between atoms: C_5  and  C_6
REMARK    4  A    between atoms: C_6  and  N_7
REMARK    5  A    between atoms: C_8  and  C_10
REMARK    6  A    between atoms: C_22  and  C_23
REMARK    7  A    between atoms: C_23  and  N_24
REMARK    8  A    between atoms: N_24  and  C_25
REMARK                            x       y       z     vdW  Elec       q    Type
REMARK                         _______ _______ _______ _____ _____    ______ ____
ROOT
ATOM      1  C   UNL     1      49.042   8.045  17.550  0.00  0.00    +0.000 A 
ATOM      2  C   UNL     1      48.386   8.645  16.469  0.00  0.00    +0.000 A 
ATOM      3  C   UNL     1      48.672   8.253  15.157  0.00  0.00    +0.000 A 
ATOM      4  C   UNL     1      49.592   7.229  14.986  0.00  0.00    +0.000 A 
ATOM      5  N   UNL     1      50.242   6.619  16.002  0.00  0.00    +0.000 NA
ATOM      6  C   UNL     1      49.976   7.036  17.275  0.00  0.00    +0.000 A 
ENDROOT
BRANCH   1   8
ATOM      7  C   UNL     1      47.506   8.644  19.259  0.00  0.00    +0.000 C 
ATOM      8  O   UNL     1      48.851   8.402  18.857  0.00  0.00    +0.000 OA
ENDBRANCH   1   8
BRANCH   3   9
ATOM      9  C   UNL     1      47.994   8.899  13.985  0.00  0.00    +0.000 C 
BRANCH   9  10
ATOM     10  N   UNL     1      46.835   8.147  13.568  0.00  0.00    +0.000 N 
ATOM     11  C   UNL     1      46.879   7.318  12.475  0.00  0.00    +0.000 C 
ATOM     12  O   UNL     1      47.906   7.155  11.824  0.00  0.00    +0.000 OA
ATOM     13  H   UNL     1      45.935   8.441  13.933  0.00  0.00    +0.000 HD
BRANCH  11  14
ATOM     14  C   UNL     1      45.645   6.584  12.165  0.00  0.00    +0.000 A 
ATOM     15  C   UNL     1      44.565   7.260  11.614  0.00  0.00    +0.000 A 
ATOM     16  S   UNL     1      43.238   6.251  11.255  0.00  0.00    +0.000 S 
ATOM     17  C   UNL     1      44.039   4.884  11.873  0.00  0.00    +0.000 A 
ATOM     18  N   UNL     1      43.434   3.666  11.885  0.00  0.00    +0.000 NA
ATOM     19  C   UNL     1      44.145   2.722  12.403  0.00  0.00    +0.000 A 
ATOM     20  N   UNL     1      45.410   2.885  12.909  0.00  0.00    +0.000 N 
ATOM     21  C   UNL     1      46.067   4.092  12.903  0.00  0.00    +0.000 A 
ATOM     22  O   UNL     1      47.208   4.199  13.344  0.00  0.00    +0.000 OA
ATOM     23  C   UNL     1      45.309   5.189  12.332  0.00  0.00    +0.000 A 
ATOM     24  H   UNL     1      45.914   2.101  13.296  0.00  0.00    +0.000 HD
ENDBRANCH  11  14
ENDBRANCH   9  10
ENDBRANCH   3   9
BRANCH   6  25
ATOM     25  C   UNL     1      50.749   6.345  18.395  0.00  0.00    +0.000 C 
BRANCH  25  26
ATOM     26  N   UNL     1      49.934   5.319  19.049  0.00  0.00    +0.000 N 
ATOM     27  H   UNL     1      49.106   5.709  19.488  0.00  0.00    +0.000 HD
BRANCH  26  28
ATOM     28  C   UNL     1      49.570   4.228  18.237  0.00  0.00    +0.000 A 
ATOM     29  N   UNL     1      50.519   3.339  17.858  0.00  0.00    +0.000 NA
ATOM     30  C   UNL     1      50.144   2.288  17.091  0.00  0.00    +0.000 A 
ATOM     31  C   UNL     1      48.847   2.059  16.670  0.00  0.00    +0.000 A 
ATOM     32  C   UNL     1      47.866   2.955  17.074  0.00  0.00    +0.000 A 
ATOM     33  C   UNL     1      48.224   4.046  17.869  0.00  0.00    +0.000 A 
ATOM     34 CL   UNL     1      46.985   5.152  18.347  0.00  0.00    +0.000 Cl
ENDBRANCH  26  28
ENDBRANCH  25  26
ENDBRANCH   6  25
TORSDOF 7
ENDMDL
MODEL 9
REMARK VINA RESULT:    -7.387      2.172      2.898
REMARK INTER + INTRA:         -10.737
REMARK INTER:                  -9.836
REMARK INTRA:                  -0.900
REMARK UNBOUND:                -0.326
REMARK  Name = 
REMARK  8 active torsions:
REMARK  status: ('A' for Active; 'I' for Inactive)
REMARK    1  A    between atoms: C_1  and  O_2
REMARK    2  A    between atoms: O_2  and  C_3
REMARK    3  A    between atoms: C_5  and  C_6
REMARK    4  A    between atoms: C_6  and  N_7
REMARK    5  A    between atoms: C_8  and  C_10
REMARK    6  A    between atoms: C_22  and  C_23
REMARK    7  A    between atoms: C_23  and  N_24
REMARK    8  A    between atoms: N_24  and  C_25
REMARK                            x       y       z     vdW  Elec       q    Type
REMARK                         _______ _______ _______ _____ _____    ______ ____
ROOT
ATOM      1  C   UNL     1      46.547   5.446  13.305  0.00  0.00    +0.000 A 
ATOM      2  C   UNL     1      47.720   6.150  13.597  0.00  0.00    +0.000 A 
ATOM      3  C   UNL     1      48.006   7.355  12.948  0.00  0.00    +0.000 A 
ATOM      4  C   UNL     1      47.066   7.830  12.046  0.00  0.00    +0.000 A 
ATOM      5  N   UNL     1      45.918   7.185  11.741  0.00  0.00    +0.000 NA
ATOM      6  C   UNL     1      45.669   5.992  12.359  0.00  0.00    +0.000 A 
ENDROOT
BRANCH   1   8
ATOM      7  C   UNL     1      47.106   3.737  14.857  0.00  0.00    +0.000 C 
ATOM      8  O   UNL     1      46.218   4.240  13.863  0.00  0.00    +0.000 OA
ENDBRANCH   1   8
BRANCH   3   9
ATOM      9  C   UNL     1      49.270   8.115  13.232  0.00  0.00    +0.000 C 
BRANCH   9  10
ATOM     10  N   UNL     1      50.169   7.347  14.059  0.00  0.00    +0.000 N 
ATOM     11  C   UNL     1      50.910   7.944  15.049  0.00  0.00    +0.000 C 
ATOM     12  O   UNL     1      50.821   9.142  15.295  0.00  0.00    +0.000 OA
ATOM     13  H   UNL     1      50.433   6.426  13.727  0.00  0.00    +0.000 HD
BRANCH  11  14
ATOM     14  C   UNL     1      51.770   7.056  15.843  0.00  0.00    +0.000 A 
ATOM     15  C   UNL     1      53.150   7.157  15.733  0.00  0.00    +0.000 A 
ATOM     16  S   UNL     1      53.999   6.102  16.768  0.00  0.00    +0.000 S 
ATOM     17  C   UNL     1      52.552   5.431  17.361  0.00  0.00    +0.000 A 
ATOM     18  N   UNL     1      52.572   4.435  18.286  0.00  0.00    +0.000 NA
ATOM     19  C   UNL     1      51.405   4.003  18.631  0.00  0.00    +0.000 A 
ATOM     20  N   UNL     1      50.219   4.480  18.135  0.00  0.00    +0.000 N 
ATOM     21  C   UNL     1      50.149   5.497  17.213  0.00  0.00    +0.000 A 
ATOM     22  O   UNL     1      49.069   5.916  16.807  0.00  0.00    +0.000 OA
ATOM     23  C   UNL     1      51.436   6.017  16.790  0.00  0.00    +0.000 A 
ATOM     24  H   UNL     1      49.339   4.100  18.453  0.00  0.00    +0.000 HD
ENDBRANCH  11  14
ENDBRANCH   9  10
ENDBRANCH   3   9
BRANCH   6  25
ATOM     25  C   UNL     1      44.379   5.278  11.970  0.00  0.00    +0.000 C 
BRANCH  25  26
ATOM     26  N   UNL     1      44.104   5.419  10.538  0.00  0.00    +0.000 N 
ATOM     27  H   UNL     1      44.355   6.337  10.188  0.00  0.00    +0.000 HD
BRANCH  26  28
ATOM     28  C   UNL     1      44.669   4.427   9.714  0.00  0.00    +0.000 A 
ATOM     29  N   UNL     1      45.486   4.797   8.699  0.00  0.00    +0.000 NA
ATOM     30  C   UNL     1      46.031   3.826   7.928  0.00  0.00    +0.000 A 
ATOM     31  C   UNL     1      45.811   2.474   8.113  0.00  0.00    +0.000 A 
ATOM     32  C   UNL     1      44.991   2.089   9.166  0.00  0.00    +0.000 A 
ATOM     33  C   UNL     1      44.419   3.068   9.979  0.00  0.00    +0.000 A 
ATOM     34 CL   UNL     1      43.394   2.561  11.275  0.00  0.00    +0.000 Cl
ENDBRANCH  26  28
ENDBRANCH  25  26
ENDBRANCH   6  25
TORSDOF 7
ENDMDL
