MODEL 1
REMARK VINA RESULT:    -8.995      0.000      0.000
REMARK INTER + INTRA:         -11.883
REMARK INTER:                 -11.624
REMARK INTRA:                  -0.259
REMARK UNBOUND:                -0.259
REMARK  Name = 
REMARK  6 active torsions:
REMARK  status: ('A' for Active; 'I' for Inactive)
REMARK    1  A    between atoms: C_1  and  C_2
REMARK    2  A    between atoms: C_2  and  N_3
REMARK    3  A    between atoms: C_2  and  C_16
REMARK    4  A    between atoms: C_4  and  C_6
REMARK    5  A    between atoms: C_19  and  O_20
REMARK    6  A    between atoms: O_20  and  C_21
REMARK                            x       y       z     vdW  Elec       q    Type
REMARK                         _______ _______ _______ _____ _____    ______ ____
ROOT
ATOM      1  C   UNL     1      45.337   8.567  12.770  0.00  0.00    +0.000 C 
ATOM      2  C   UNL     1      46.429   7.500  12.623  0.00  0.00    +0.000 C 
ENDROOT
BRANCH   2   3
ATOM      3  C   UNL     1      45.854   6.348  11.811  0.00  0.00    +0.000 A 
ATOM      4  C   UNL     1      45.206   5.299  12.478  0.00  0.00    +0.000 A 
ATOM      5  C   UNL     1      44.763   4.177  11.776  0.00  0.00    +0.000 A 
ATOM      6  C   UNL     1      44.915   4.105  10.391  0.00  0.00    +0.000 A 
ATOM      7  C   UNL     1      45.568   5.136   9.716  0.00  0.00    +0.000 A 
ATOM      8  C   UNL     1      46.040   6.247  10.422  0.00  0.00    +0.000 A 
BRANCH   6   9
ATOM      9  O   UNL     1      44.540   3.017   9.633  0.00  0.00    +0.000 OA
BRANCH   9  10
ATOM     10  C   UNL     1      45.389   2.604   8.614  0.00  0.00    +0.000 A 
ATOM     11  C   UNL     1      45.568   3.488   7.559  0.00  0.00    +0.000 A 
ATOM     12  C   UNL     1      46.418   3.110   6.524  0.00  0.00    +0.000 A 
ATOM     13  C   UNL     1      47.052   1.872   6.577  0.00  0.00    +0.000 A 
ATOM     14  C   UNL     1      46.795   1.051   7.663  0.00  0.00    +0.000 A 
ATOM     15  N   UNL     1      45.965   1.382   8.669  0.00  0.00    +0.000 NA
ENDBRANCH   9  10
ENDBRANCH   6   9
ENDBRANCH   2   3
BRANCH   2  16
ATOM     16  N   UNL     1      46.950   7.044  13.903  0.00  0.00    +0.000 N 
ATOM     17  C   UNL     1      48.252   6.640  14.060  0.00  0.00    +0.000 C 
ATOM     18  O   UNL     1      49.073   6.679  13.148  0.00  0.00    +0.000 OA
ATOM     19  H   UNL     1      46.266   6.674  14.558  0.00  0.00    +0.000 HD
BRANCH  17  20
ATOM     20  C   UNL     1      48.651   6.211  15.404  0.00  0.00    +0.000 A 
ATOM     21  C   UNL     1      49.625   6.928  16.084  0.00  0.00    +0.000 A 
ATOM     22  S   UNL     1      49.999   6.287  17.619  0.00  0.00    +0.000 S 
ATOM     23  C   UNL     1      48.896   5.007  17.410  0.00  0.00    +0.000 A 
ATOM     24  N   UNL     1      48.761   4.040  18.355  0.00  0.00    +0.000 NA
ATOM     25  C   UNL     1      47.914   3.114  18.052  0.00  0.00    +0.000 A 
ATOM     26  N   UNL     1      47.171   3.081  16.898  0.00  0.00    +0.000 N 
ATOM     27  C   UNL     1      47.238   4.064  15.939  0.00  0.00    +0.000 A 
ATOM     28  O   UNL     1      46.505   4.057  14.958  0.00  0.00    +0.000 OA
ATOM     29  C   UNL     1      48.216   5.098  16.208  0.00  0.00    +0.000 A 
ATOM     30  H   UNL     1      46.500   2.344  16.737  0.00  0.00    +0.000 HD
ENDBRANCH  17  20
ENDBRANCH   2  16
TORSDOF 5
ENDMDL
MODEL 2
REMARK VINA RESULT:    -8.815      1.508      2.061
REMARK INTER + INTRA:         -11.651
REMARK INTER:                 -10.996
REMARK INTRA:                  -0.655
REMARK UNBOUND:                -0.259
REMARK  Name = 
REMARK  6 active torsions:
REMARK  status: ('A' for Active; 'I' for Inactive)
REMARK    1  A    between atoms: C_1  and  C_2
REMARK    2  A    between atoms: C_2  and  N_3
REMARK    3  A    between atoms: C_2  and  C_16
REMARK    4  A    between atoms: C_4  and  C_6
REMARK    5  A    between atoms: C_19  and  O_20
REMARK    6  A    between atoms: O_20  and  C_21
REMARK                            x       y       z     vdW  Elec       q    Type
REMARK                         _______ _______ _______ _____ _____    ______ ____
ROOT
ATOM      1  C   UNL     1      45.540   7.970  12.933  0.00  0.00    +0.000 C 
ATOM      2  C   UNL     1      46.457   6.743  12.834  0.00  0.00    +0.000 C 
ENDROOT
BRANCH   2   3
ATOM      3  C   UNL     1      45.872   5.803  11.790  0.00  0.00    +0.000 A 
ATOM      4  C   UNL     1      45.290   4.597  12.206  0.00  0.00    +0.000 A 
ATOM      5  C   UNL     1      44.843   3.663  11.271  0.00  0.00    +0.000 A 
ATOM      6  C   UNL     1      44.923   3.938   9.905  0.00  0.00    +0.000 A 
ATOM      7  C   UNL     1      45.510   5.129   9.476  0.00  0.00    +0.000 A 
ATOM      8  C   UNL     1      45.987   6.052  10.412  0.00  0.00    +0.000 A 
BRANCH   6   9
ATOM      9  O   UNL     1      44.538   3.055   8.920  0.00  0.00    +0.000 OA
BRANCH   9  10
ATOM     10  C   UNL     1      45.523   2.516   8.102  0.00  0.00    +0.000 A 
ATOM     11  C   UNL     1      45.886   3.267   6.992  0.00  0.00    +0.000 A 
ATOM     12  C   UNL     1      46.875   2.761   6.153  0.00  0.00    +0.000 A 
ATOM     13  C   UNL     1      47.461   1.534   6.449  0.00  0.00    +0.000 A 
ATOM     14  C   UNL     1      47.019   0.851   7.571  0.00  0.00    +0.000 A 
ATOM     15  N   UNL     1      46.053   1.306   8.389  0.00  0.00    +0.000 NA
ENDBRANCH   9  10
ENDBRANCH   6   9
ENDBRANCH   2   3
BRANCH   2  16
ATOM     16  N   UNL     1      46.644   6.073  14.112  0.00  0.00    +0.000 N 
ATOM     17  C   UNL     1      47.890   5.835  14.637  0.00  0.00    +0.000 C 
ATOM     18  O   UNL     1      48.923   6.208  14.089  0.00  0.00    +0.000 OA
ATOM     19  H   UNL     1      45.888   5.463  14.412  0.00  0.00    +0.000 HD
BRANCH  17  20
ATOM     20  C   UNL     1      47.938   5.157  15.936  0.00  0.00    +0.000 A 
ATOM     21  C   UNL     1      47.538   3.830  16.024  0.00  0.00    +0.000 A 
ATOM     22  S   UNL     1      47.623   3.196  17.604  0.00  0.00    +0.000 S 
ATOM     23  C   UNL     1      48.164   4.684  18.229  0.00  0.00    +0.000 A 
ATOM     24  N   UNL     1      48.381   4.845  19.561  0.00  0.00    +0.000 NA
ATOM     25  C   UNL     1      48.756   6.033  19.899  0.00  0.00    +0.000 A 
ATOM     26  N   UNL     1      48.958   7.069  19.021  0.00  0.00    +0.000 N 
ATOM     27  C   UNL     1      48.799   6.938  17.662  0.00  0.00    +0.000 A 
ATOM     28  O   UNL     1      49.066   7.851  16.892  0.00  0.00    +0.000 OA
ATOM     29  C   UNL     1      48.325   5.636  17.237  0.00  0.00    +0.000 A 
ATOM     30  H   UNL     1      49.284   7.967  19.349  0.00  0.00    +0.000 HD
ENDBRANCH  17  20
ENDBRANCH   2  16
TORSDOF 5
ENDMDL
MODEL 3
REMARK VINA RESULT:    -8.385      2.821      4.124
REMARK INTER + INTRA:         -11.095
REMARK INTER:                 -10.112
REMARK INTRA:                  -0.982
REMARK UNBOUND:                -0.259
REMARK  Name = 
REMARK  6 active torsions:
REMARK  status: ('A' for Active; 'I' for Inactive)
REMARK    1  A    between atoms: C_1  and  C_2
REMARK    2  A    between atoms: C_2  and  N_3
REMARK    3  A    between atoms: C_2  and  C_16
REMARK    4  A    between atoms: C_4  and  C_6
REMARK    5  A    between atoms: C_19  and  O_20
REMARK    6  A    between atoms: O_20  and  C_21
REMARK                            x       y       z     vdW  Elec       q    Type
REMARK                         _______ _______ _______ _____ _____    ______ ____
ROOT
ATOM      1  C   UNL     1      46.341   4.783  14.328  0.00  0.00    +0.000 C 
ATOM      2  C   UNL     1      45.971   5.813  13.253  0.00  0.00    +0.000 C 
ENDROOT
BRANCH   2   3
ATOM      3  C   UNL     1      45.521   5.056  12.011  0.00  0.00    +0.000 A 
ATOM      4  C   UNL     1      45.154   3.708  12.129  0.00  0.00    +0.000 A 
ATOM      5  C   UNL     1      44.841   2.955  10.996  0.00  0.00    +0.000 A 
ATOM      6  C   UNL     1      44.841   3.548   9.733  0.00  0.00    +0.000 A 
ATOM      7  C   UNL     1      45.215   4.885   9.600  0.00  0.00    +0.000 A 
ATOM      8  C   UNL     1      45.560   5.632  10.730  0.00  0.00    +0.000 A 
BRANCH   6   9
ATOM      9  O   UNL     1      44.581   2.865   8.565  0.00  0.00    +0.000 OA
BRANCH   9  10
ATOM     10  C   UNL     1      45.657   2.497   7.767  0.00  0.00    +0.000 A 
ATOM     11  C   UNL     1      45.923   3.307   6.672  0.00  0.00    +0.000 A 
ATOM     12  C   UNL     1      46.999   2.973   5.854  0.00  0.00    +0.000 A 
ATOM     13  C   UNL     1      47.763   1.850   6.156  0.00  0.00    +0.000 A 
ATOM     14  C   UNL     1      47.409   1.092   7.260  0.00  0.00    +0.000 A 
ATOM     15  N   UNL     1      46.364   1.381   8.058  0.00  0.00    +0.000 NA
ENDBRANCH   9  10
ENDBRANCH   6   9
ENDBRANCH   2   3
BRANCH   2  16
ATOM     16  N   UNL     1      47.057   6.734  12.953  0.00  0.00    +0.000 N 
ATOM     17  C   UNL     1      46.882   8.095  12.953  0.00  0.00    +0.000 C 
ATOM     18  O   UNL     1      45.815   8.626  13.247  0.00  0.00    +0.000 OA
ATOM     19  H   UNL     1      47.815   6.361  12.388  0.00  0.00    +0.000 HD
BRANCH  17  20
ATOM     20  C   UNL     1      48.060   8.909  12.642  0.00  0.00    +0.000 A 
ATOM     21  C   UNL     1      47.912  10.043  11.853  0.00  0.00    +0.000 A 
ATOM     22  S   UNL     1      49.377  10.864  11.557  0.00  0.00    +0.000 S 
ATOM     23  C   UNL     1      50.262   9.711  12.442  0.00  0.00    +0.000 A 
ATOM     24  N   UNL     1      51.616   9.794  12.539  0.00  0.00    +0.000 NA
ATOM     25  C   UNL     1      52.161   8.837  13.212  0.00  0.00    +0.000 A 
ATOM     26  N   UNL     1      51.472   7.816  13.818  0.00  0.00    +0.000 N 
ATOM     27  C   UNL     1      50.100   7.720  13.789  0.00  0.00    +0.000 A 
ATOM     28  O   UNL     1      49.503   6.849  14.407  0.00  0.00    +0.000 OA
ATOM     29  C   UNL     1      49.445   8.742  12.998  0.00  0.00    +0.000 A 
ATOM     30  H   UNL     1      51.957   7.115  14.359  0.00  0.00    +0.000 HD
ENDBRANCH  17  20
ENDBRANCH   2  16
TORSDOF 5
ENDMDL
MODEL 4
REMARK VINA RESULT:    -7.908      1.713      2.119
REMARK INTER + INTRA:         -10.479
REMARK INTER:                  -9.529
REMARK INTRA:                  -0.950
REMARK UNBOUND:                -0.259
REMARK  Name = 
REMARK  6 active torsions:
REMARK  status: ('A' for Active; 'I' for Inactive)
REMARK    1  A    between atoms: C_1  and  C_2
REMARK    2  A    between atoms: C_2  and  N_3
REMARK    3  A    between atoms: C_2  and  C_16
REMARK    4  A    between atoms: C_4  and  C_6
REMARK    5  A    between atoms: C_19  and  O_20
REMARK    6  A    between atoms: O_20  and  C_21
REMARK                            x       y       z     vdW  Elec       q    Type
REMARK                         _______ _______ _______ _____ _____    ______ ____
ROOT
ATOM      1  C   UNL     1      47.896   9.173  13.277  0.00  0.00    +0.000 C 
ATOM      2  C   UNL     1      48.038   7.699  13.678  0.00  0.00    +0.000 C 
ENDROOT
BRANCH   2   3
ATOM      3  C   UNL     1      46.992   6.901  12.912  0.00  0.00    +0.000 A 
ATOM      4  C   UNL     1      46.856   5.530  13.171  0.00  0.00    +0.000 A 
ATOM      5  C   UNL     1      45.985   4.747  12.414  0.00  0.00    +0.000 A 
ATOM      6  C   UNL     1      45.198   5.328  11.418  0.00  0.00    +0.000 A 
ATOM      7  C   UNL     1      45.331   6.689  11.142  0.00  0.00    +0.000 A 
ATOM      8  C   UNL     1      46.227   7.468  11.880  0.00  0.00    +0.000 A 
BRANCH   6   9
ATOM      9  O   UNL     1      44.343   4.618  10.603  0.00  0.00    +0.000 OA
BRANCH   9  10
ATOM     10  C   UNL     1      44.897   3.792   9.633  0.00  0.00    +0.000 A 
ATOM     11  C   UNL     1      45.536   4.421   8.575  0.00  0.00    +0.000 A 
ATOM     12  C   UNL     1      46.109   3.624   7.587  0.00  0.00    +0.000 A 
ATOM     13  C   UNL     1      46.022   2.239   7.691  0.00  0.00    +0.000 A 
ATOM     14  C   UNL     1      45.347   1.704   8.777  0.00  0.00    +0.000 A 
ATOM     15  N   UNL     1      44.768   2.449   9.736  0.00  0.00    +0.000 NA
ENDBRANCH   9  10
ENDBRANCH   6   9
ENDBRANCH   2   3
BRANCH   2  16
ATOM     16  N   UNL     1      47.925   7.490  15.114  0.00  0.00    +0.000 N 
ATOM     17  C   UNL     1      48.953   6.970  15.859  0.00  0.00    +0.000 C 
ATOM     18  O   UNL     1      50.047   6.690  15.377  0.00  0.00    +0.000 OA
ATOM     19  H   UNL     1      46.983   7.374  15.475  0.00  0.00    +0.000 HD
BRANCH  17  20
ATOM     20  C   UNL     1      48.711   6.817  17.297  0.00  0.00    +0.000 A 
ATOM     21  C   UNL     1      48.458   7.945  18.066  0.00  0.00    +0.000 A 
ATOM     22  S   UNL     1      48.228   7.606  19.721  0.00  0.00    +0.000 S 
ATOM     23  C   UNL     1      48.495   5.943  19.470  0.00  0.00    +0.000 A 
ATOM     24  N   UNL     1      48.495   5.071  20.512  0.00  0.00    +0.000 NA
ATOM     25  C   UNL     1      48.742   3.848  20.182  0.00  0.00    +0.000 A 
ATOM     26  N   UNL     1      48.967   3.414  18.899  0.00  0.00    +0.000 N 
ATOM     27  C   UNL     1      48.927   4.251  17.810  0.00  0.00    +0.000 A 
ATOM     28  O   UNL     1      49.046   3.828  16.668  0.00  0.00    +0.000 OA
ATOM     29  C   UNL     1      48.706   5.646  18.135  0.00  0.00    +0.000 A 
ATOM     30  H   UNL     1      49.123   2.435  18.705  0.00  0.00    +0.000 HD
ENDBRANCH  17  20
ENDBRANCH   2  16
TORSDOF 5
ENDMDL
MODEL 5
REMARK VINA RESULT:    -7.747      2.418      3.160
REMARK INTER + INTRA:         -10.271
REMARK INTER:                  -9.249
REMARK INTRA:                  -1.022
REMARK UNBOUND:                -0.259
REMARK  Name = 
REMARK  6 active torsions:
REMARK  status: ('A' for Active; 'I' for Inactive)
REMARK    1  A    between atoms: C_1  and  C_2
REMARK    2  A    between atoms: C_2  and  N_3
REMARK    3  A    between atoms: C_2  and  C_16
REMARK    4  A    between atoms: C_4  and  C_6
REMARK    5  A    between atoms: C_19  and  O_20
REMARK    6  A    between atoms: O_20  and  C_21
REMARK                            x       y       z     vdW  Elec       q    Type
REMARK                         _______ _______ _______ _____ _____    ______ ____
ROOT
ATOM      1  C   UNL     1      47.977   8.862  14.016  0.00  0.00    +0.000 C 
ATOM      2  C   UNL     1      48.271   7.365  14.172  0.00  0.00    +0.000 C 
ENDROOT
BRANCH   2   3
ATOM      3  C   UNL     1      47.357   6.604  13.223  0.00  0.00    +0.000 A 
ATOM      4  C   UNL     1      46.989   7.197  12.007  0.00  0.00    +0.000 A 
ATOM      5  C   UNL     1      46.069   6.576  11.162  0.00  0.00    +0.000 A 
ATOM      6  C   UNL     1      45.536   5.330  11.494  0.00  0.00    +0.000 A 
ATOM      7  C   UNL     1      45.884   4.733  12.706  0.00  0.00    +0.000 A 
ATOM      8  C   UNL     1      46.783   5.369  13.567  0.00  0.00    +0.000 A 
BRANCH   6   9
ATOM      9  O   UNL     1      44.595   4.670  10.733  0.00  0.00    +0.000 OA
BRANCH   9  10
ATOM     10  C   UNL     1      45.041   3.849   9.705  0.00  0.00    +0.000 A 
ATOM     11  C   UNL     1      45.651   4.479   8.629  0.00  0.00    +0.000 A 
ATOM     12  C   UNL     1      46.117   3.687   7.584  0.00  0.00    +0.000 A 
ATOM     13  C   UNL     1      45.957   2.306   7.649  0.00  0.00    +0.000 A 
ATOM     14  C   UNL     1      45.320   1.771   8.757  0.00  0.00    +0.000 A 
ATOM     15  N   UNL     1      44.843   2.513   9.774  0.00  0.00    +0.000 NA
ENDBRANCH   9  10
ENDBRANCH   6   9
ENDBRANCH   2   3
BRANCH   2  16
ATOM     16  N   UNL     1      48.125   6.899  15.543  0.00  0.00    +0.000 N 
ATOM     17  C   UNL     1      49.171   6.359  16.248  0.00  0.00    +0.000 C 
ATOM     18  O   UNL     1      50.306   6.273  15.788  0.00  0.00    +0.000 OA
ATOM     19  H   UNL     1      47.186   6.632  15.826  0.00  0.00    +0.000 HD
BRANCH  17  20
ATOM     20  C   UNL     1      48.890   5.936  17.623  0.00  0.00    +0.000 A 
ATOM     21  C   UNL     1      49.072   4.605  17.974  0.00  0.00    +0.000 A 
ATOM     22  S   UNL     1      48.674   4.266  19.596  0.00  0.00    +0.000 S 
ATOM     23  C   UNL     1      48.210   5.880  19.874  0.00  0.00    +0.000 A 
ATOM     24  N   UNL     1      47.706   6.265  21.076  0.00  0.00    +0.000 NA
ATOM     25  C   UNL     1      47.366   7.509  21.136  0.00  0.00    +0.000 A 
ATOM     26  N   UNL     1      47.505   8.409  20.109  0.00  0.00    +0.000 N 
ATOM     27  C   UNL     1      48.056   8.076  18.894  0.00  0.00    +0.000 A 
ATOM     28  O   UNL     1      48.249   8.914  18.024  0.00  0.00    +0.000 OA
ATOM     29  C   UNL     1      48.404   6.676  18.758  0.00  0.00    +0.000 A 
ATOM     30  H   UNL     1      47.249   9.377  20.233  0.00  0.00    +0.000 HD
ENDBRANCH  17  20
ENDBRANCH   2  16
TORSDOF 5
ENDMDL
MODEL 6
REMARK VINA RESULT:    -7.684      3.174      7.825
REMARK INTER + INTRA:         -10.189
REMARK INTER:                  -9.189
REMARK INTRA:                  -1.001
REMARK UNBOUND:                -0.259
REMARK  Name = 
REMARK  6 active torsions:
REMARK  status: ('A' for Active; 'I' for Inactive)
REMARK    1  A    between atoms: C_1  and  C_2
REMARK    2  A    between atoms: C_2  and  N_3
REMARK    3  A    between atoms: C_2  and  C_16
REMARK    4  A    between atoms: C_4  and  C_6
REMARK    5  A    between atoms: C_19  and  O_20
REMARK    6  A    between atoms: O_20  and  C_21
REMARK                            x       y       z     vdW  Elec       q    Type
REMARK                         _______ _______ _______ _____ _____    ______ ____
ROOT
ATOM      1  C   UNL     1      49.794   8.122  12.590  0.00  0.00    +0.000 C 
ATOM      2  C   UNL     1      48.529   7.591  13.277  0.00  0.00    +0.000 C 
ENDROOT
BRANCH   2   3
ATOM      3  C   UNL     1      48.940   6.974  14.606  0.00  0.00    +0.000 A 
ATOM      4  C   UNL     1      50.227   7.220  15.105  0.00  0.00    +0.000 A 
ATOM      5  C   UNL     1      50.673   6.584  16.264  0.00  0.00    +0.000 A 
ATOM      6  C   UNL     1      49.826   5.730  16.972  0.00  0.00    +0.000 A 
ATOM      7  C   UNL     1      48.547   5.467  16.481  0.00  0.00    +0.000 A 
ATOM      8  C   UNL     1      48.109   6.080  15.303  0.00  0.00    +0.000 A 
BRANCH   6   9
ATOM      9  O   UNL     1      50.204   5.037  18.101  0.00  0.00    +0.000 OA
BRANCH   9  10
ATOM     10  C   UNL     1      50.900   3.845  17.937  0.00  0.00    +0.000 A 
ATOM     11  C   UNL     1      52.194   3.809  18.437  0.00  0.00    +0.000 A 
ATOM     12  C   UNL     1      52.918   2.629  18.297  0.00  0.00    +0.000 A 
ATOM     13  C   UNL     1      52.329   1.536  17.666  0.00  0.00    +0.000 A 
ATOM     14  C   UNL     1      51.038   1.675  17.184  0.00  0.00    +0.000 A 
ATOM     15  N   UNL     1      50.320   2.809  17.289  0.00  0.00    +0.000 NA
ENDBRANCH   9  10
ENDBRANCH   6   9
ENDBRANCH   2   3
BRANCH   2  16
ATOM     16  N   UNL     1      47.792   6.645  12.453  0.00  0.00    +0.000 N 
ATOM     17  C   UNL     1      46.485   6.853  12.091  0.00  0.00    +0.000 C 
ATOM     18  O   UNL     1      45.866   7.867  12.399  0.00  0.00    +0.000 OA
ATOM     19  H   UNL     1      48.122   5.684  12.473  0.00  0.00    +0.000 HD
BRANCH  17  20
ATOM     20  C   UNL     1      45.862   5.825  11.252  0.00  0.00    +0.000 A 
ATOM     21  C   UNL     1      46.007   5.896   9.873  0.00  0.00    +0.000 A 
ATOM     22  S   UNL     1      45.200   4.648   9.038  0.00  0.00    +0.000 S 
ATOM     23  C   UNL     1      44.602   3.992  10.490  0.00  0.00    +0.000 A 
ATOM     24  N   UNL     1      43.773   2.914  10.481  0.00  0.00    +0.000 NA
ATOM     25  C   UNL     1      43.370   2.543  11.649  0.00  0.00    +0.000 A 
ATOM     26  N   UNL     1      43.739   3.138  12.830  0.00  0.00    +0.000 N 
ATOM     27  C   UNL     1      44.614   4.197  12.890  0.00  0.00    +0.000 A 
ATOM     28  O   UNL     1      44.995   4.657  13.959  0.00  0.00    +0.000 OA
ATOM     29  C   UNL     1      45.053   4.686  11.599  0.00  0.00    +0.000 A 
ATOM     30  H   UNL     1      43.413   2.777  13.714  0.00  0.00    +0.000 HD
ENDBRANCH  17  20
ENDBRANCH   2  16
TORSDOF 5
ENDMDL
MODEL 7
REMARK VINA RESULT:    -7.313      2.959      8.664
REMARK INTER + INTRA:          -9.710
REMARK INTER:                  -8.704
REMARK INTRA:                  -1.006
REMARK UNBOUND:                -0.259
REMARK  Name = 
REMARK  6 active torsions:
REMARK  status: ('A' for Active; 'I' for Inactive)
REMARK    1  A    between atoms: C_1  and  C_2
REMARK    2  A    between atoms: C_2  and  N_3
REMARK    3  A    between atoms: C_2  and  C_16
REMARK    4  A    between atoms: C_4  and  C_6
REMARK    5  A    between atoms: C_19  and  O_20
REMARK    6  A    between atoms: O_20  and  C_21
REMARK                            x       y       z     vdW  Elec       q    Type
REMARK                         _______ _______ _______ _____ _____    ______ ____
ROOT
ATOM      1  C   UNL     1      48.466   8.070  11.638  0.00  0.00    +0.000 C 
ATOM      2  C   UNL     1      47.322   7.765  12.613  0.00  0.00    +0.000 C 
ENDROOT
BRANCH   2   3
ATOM      3  C   UNL     1      47.898   7.740  14.022  0.00  0.00    +0.000 A 
ATOM      4  C   UNL     1      47.989   8.938  14.744  0.00  0.00    +0.000 A 
ATOM      5  C   UNL     1      48.609   8.971  15.993  0.00  0.00    +0.000 A 
ATOM      6  C   UNL     1      49.106   7.799  16.565  0.00  0.00    +0.000 A 
ATOM      7  C   UNL     1      49.033   6.601  15.853  0.00  0.00    +0.000 A 
ATOM      8  C   UNL     1      48.439   6.573  14.587  0.00  0.00    +0.000 A 
BRANCH   6   9
ATOM      9  O   UNL     1      49.764   7.754  17.774  0.00  0.00    +0.000 OA
BRANCH   9  10
ATOM     10  C   UNL     1      49.254   6.928  18.768  0.00  0.00    +0.000 A 
ATOM     11  C   UNL     1      48.008   7.266  19.277  0.00  0.00    +0.000 A 
ATOM     12  C   UNL     1      47.463   6.456  20.269  0.00  0.00    +0.000 A 
ATOM     13  C   UNL     1      48.176   5.347  20.715  0.00  0.00    +0.000 A 
ATOM     14  C   UNL     1      49.421   5.101  20.158  0.00  0.00    +0.000 A 
ATOM     15  N   UNL     1      49.981   5.876  19.211  0.00  0.00    +0.000 NA
ENDBRANCH   9  10
ENDBRANCH   6   9
ENDBRANCH   2   3
BRANCH   2  16
ATOM     16  N   UNL     1      46.626   6.526  12.299  0.00  0.00    +0.000 N 
ATOM     17  C   UNL     1      45.394   6.513  11.694  0.00  0.00    +0.000 C 
ATOM     18  O   UNL     1      44.818   7.537  11.339  0.00  0.00    +0.000 OA
ATOM     19  H   UNL     1      46.878   5.717  12.861  0.00  0.00    +0.000 HD
BRANCH  17  20
ATOM     20  C   UNL     1      44.806   5.196  11.427  0.00  0.00    +0.000 A 
ATOM     21  C   UNL     1      44.035   4.586  12.407  0.00  0.00    +0.000 A 
ATOM     22  S   UNL     1      43.450   3.050  11.956  0.00  0.00    +0.000 S 
ATOM     23  C   UNL     1      44.238   3.134  10.450  0.00  0.00    +0.000 A 
ATOM     24  N   UNL     1      44.190   2.093   9.577  0.00  0.00    +0.000 NA
ATOM     25  C   UNL     1      44.859   2.280   8.489  0.00  0.00    +0.000 A 
ATOM     26  N   UNL     1      45.554   3.424   8.184  0.00  0.00    +0.000 N 
ATOM     27  C   UNL     1      45.588   4.519   9.014  0.00  0.00    +0.000 A 
ATOM     28  O   UNL     1      46.143   5.559   8.684  0.00  0.00    +0.000 OA
ATOM     29  C   UNL     1      44.897   4.338  10.274  0.00  0.00    +0.000 A 
ATOM     30  H   UNL     1      46.030   3.518   7.299  0.00  0.00    +0.000 HD
ENDBRANCH  17  20
ENDBRANCH   2  16
TORSDOF 5
ENDMDL
MODEL 8
REMARK VINA RESULT:    -7.271      2.695      4.323
REMARK INTER + INTRA:          -9.655
REMARK INTER:                  -8.478
REMARK INTRA:                  -1.177
REMARK UNBOUND:                -0.259
REMARK  Name = 
REMARK  6 active torsions:
REMARK  status: ('A' for Active; 'I' for Inactive)
REMARK    1  A    between atoms: C_1  and  C_2
REMARK    2  A    between atoms: C_2  and  N_3
REMARK    3  A    between atoms: C_2  and  C_16
REMARK    4  A    between atoms: C_4  and  C_6
REMARK    5  A    between atoms: C_19  and  O_20
REMARK    6  A    between atoms: O_20  and  C_21
REMARK                            x       y       z     vdW  Elec       q    Type
REMARK                         _______ _______ _______ _____ _____    ______ ____
ROOT
ATOM      1  C   UNL     1      47.131   4.533  15.499  0.00  0.00    +0.000 C 
ATOM      2  C   UNL     1      47.126   5.644  14.440  0.00  0.00    +0.000 C 
ENDROOT
BRANCH   2   3
ATOM      3  C   UNL     1      46.525   5.073  13.163  0.00  0.00    +0.000 A 
ATOM      4  C   UNL     1      46.345   5.916  12.057  0.00  0.00    +0.000 A 
ATOM      5  C   UNL     1      45.700   5.454  10.909  0.00  0.00    +0.000 A 
ATOM      6  C   UNL     1      45.267   4.130  10.827  0.00  0.00    +0.000 A 
ATOM      7  C   UNL     1      45.429   3.284  11.924  0.00  0.00    +0.000 A 
ATOM      8  C   UNL     1      46.048   3.754  13.087  0.00  0.00    +0.000 A 
BRANCH   6   9
ATOM      9  O   UNL     1      44.590   3.610   9.746  0.00  0.00    +0.000 OA
BRANCH   9  10
ATOM     10  C   UNL     1      45.325   2.958   8.763  0.00  0.00    +0.000 A 
ATOM     11  C   UNL     1      45.686   3.713   7.656  0.00  0.00    +0.000 A 
ATOM     12  C   UNL     1      46.429   3.096   6.655  0.00  0.00    +0.000 A 
ATOM     13  C   UNL     1      46.782   1.756   6.793  0.00  0.00    +0.000 A 
ATOM     14  C   UNL     1      46.360   1.081   7.927  0.00  0.00    +0.000 A 
ATOM     15  N   UNL     1      45.626   1.647   8.902  0.00  0.00    +0.000 NA
ENDBRANCH   9  10
ENDBRANCH   6   9
ENDBRANCH   2   3
BRANCH   2  16
ATOM     16  N   UNL     1      48.446   6.208  14.204  0.00  0.00    +0.000 N 
ATOM     17  C   UNL     1      48.766   7.495  14.559  0.00  0.00    +0.000 C 
ATOM     18  O   UNL     1      47.978   8.238  15.136  0.00  0.00    +0.000 OA
ATOM     19  H   UNL     1      48.985   5.784  13.454  0.00  0.00    +0.000 HD
BRANCH  17  20
ATOM     20  C   UNL     1      50.134   7.936  14.271  0.00  0.00    +0.000 A 
ATOM     21  C   UNL     1      50.998   8.197  15.326  0.00  0.00    +0.000 A 
ATOM     22  S   UNL     1      52.540   8.730  14.830  0.00  0.00    +0.000 S 
ATOM     23  C   UNL     1      52.091   8.663  13.189  0.00  0.00    +0.000 A 
ATOM     24  N   UNL     1      52.953   9.053  12.213  0.00  0.00    +0.000 NA
ATOM     25  C   UNL     1      52.471   8.981  11.018  0.00  0.00    +0.000 A 
ATOM     26  N   UNL     1      51.212   8.532  10.708  0.00  0.00    +0.000 N 
ATOM     27  C   UNL     1      50.325   8.081  11.657  0.00  0.00    +0.000 A 
ATOM     28  O   UNL     1      49.240   7.606  11.350  0.00  0.00    +0.000 OA
ATOM     29  C   UNL     1      50.801   8.193  13.021  0.00  0.00    +0.000 A 
ATOM     30  H   UNL     1      50.908   8.470   9.747  0.00  0.00    +0.000 HD
ENDBRANCH  17  20
ENDBRANCH   2  16
TORSDOF 5
ENDMDL
MODEL 9
REMARK VINA RESULT:    -7.204      3.590      8.671
REMARK INTER + INTRA:          -9.569
REMARK INTER:                  -8.582
REMARK INTRA:                  -0.986
REMARK UNBOUND:                -0.259
REMARK  Name = 
REMARK  6 active torsions:
REMARK  status: ('A' for Active; 'I' for Inactive)
REMARK    1  A    between atoms: C_1  and  C_2
REMARK    2  A    between atoms: C_2  and  N_3
REMARK    3  A    between atoms: C_2  and  C_16
REMARK    4  A    between atoms: C_4  and  C_6
REMARK    5  A    between atoms: C_19  and  O_20
REMARK    6  A    between atoms: O_20  and  C_21
REMARK                            x       y       z     vdW  Elec       q    Type
REMARK                         _______ _______ _______ _____ _____    ______ ____
ROOT
ATOM      1  C   UNL     1      46.858   2.939  17.652  0.00  0.00    +0.000 C 
ATOM      2  C   UNL     1      47.731   3.412  16.482  0.00  0.00    +0.000 C 
ENDROOT
BRANCH   2   3
ATOM      3  C   UNL     1      49.002   4.018  17.060  0.00  0.00    +0.000 A 
ATOM      4  C   UNL     1      49.116   5.413  17.145  0.00  0.00    +0.000 A 
ATOM      5  C   UNL     1      50.307   6.004  17.568  0.00  0.00    +0.000 A 
ATOM      6  C   UNL     1      51.388   5.212  17.960  0.00  0.00    +0.000 A 
ATOM      7  C   UNL     1      51.293   3.824  17.869  0.00  0.00    +0.000 A 
ATOM      8  C   UNL     1      50.110   3.231  17.416  0.00  0.00    +0.000 A 
BRANCH   6   9
ATOM      9  O   UNL     1      52.608   5.719  18.352  0.00  0.00    +0.000 OA
BRANCH   9  10
ATOM     10  C   UNL     1      53.253   6.609  17.502  0.00  0.00    +0.000 A 
ATOM     11  C   UNL     1      53.767   6.081  16.326  0.00  0.00    +0.000 A 
ATOM     12  C   UNL     1      54.414   6.945  15.447  0.00  0.00    +0.000 A 
ATOM     13  C   UNL     1      54.523   8.294  15.771  0.00  0.00    +0.000 A 
ATOM     14  C   UNL     1      53.993   8.723  16.977  0.00  0.00    +0.000 A 
ATOM     15  N   UNL     1      53.379   7.908  17.854  0.00  0.00    +0.000 NA
ENDBRANCH   9  10
ENDBRANCH   6   9
ENDBRANCH   2   3
BRANCH   2  16
ATOM     16  N   UNL     1      47.043   4.348  15.605  0.00  0.00    +0.000 N 
ATOM     17  C   UNL     1      46.866   4.100  14.267  0.00  0.00    +0.000 C 
ATOM     18  O   UNL     1      47.233   3.059  13.731  0.00  0.00    +0.000 OA
ATOM     19  H   UNL     1      47.040   5.320  15.903  0.00  0.00    +0.000 HD
BRANCH  17  20
ATOM     20  C   UNL     1      46.149   5.122  13.498  0.00  0.00    +0.000 A 
ATOM     21  C   UNL     1      46.687   6.399  13.401  0.00  0.00    +0.000 A 
ATOM     22  S   UNL     1      45.723   7.479  12.501  0.00  0.00    +0.000 S 
ATOM     23  C   UNL     1      44.537   6.286  12.242  0.00  0.00    +0.000 A 
ATOM     24  N   UNL     1      43.390   6.574  11.572  0.00  0.00    +0.000 NA
ATOM     25  C   UNL     1      42.566   5.586  11.477  0.00  0.00    +0.000 A 
ATOM     26  N   UNL     1      42.795   4.326  11.972  0.00  0.00    +0.000 N 
ATOM     27  C   UNL     1      43.960   3.976  12.612  0.00  0.00    +0.000 A 
ATOM     28  O   UNL     1      44.177   2.826  12.969  0.00  0.00    +0.000 OA
ATOM     29  C   UNL     1      44.896   5.068  12.792  0.00  0.00    +0.000 A 
ATOM     30  H   UNL     1      42.120   3.587  11.835  0.00  0.00    +0.000 HD
ENDBRANCH  17  20
ENDBRANCH   2  16
TORSDOF 5
ENDMDL
