MODEL 1
REMARK VINA RESULT:    -9.168      0.000      0.000
REMARK INTER + INTRA:         -13.365
REMARK INTER:                 -12.384
REMARK INTRA:                  -0.981
REMARK UNBOUND:                -0.981
REMARK  Name = 
REMARK  6 active torsions:
REMARK  status: ('A' for Active; 'I' for Inactive)
REMARK    1  A    between atoms: C_2  and  C_4
REMARK    2  A    between atoms: N_8  and  C_9
REMARK    3  A    between atoms: C_9  and  C_10
REMARK    4  A    between atoms: C_10  and  C_13
REMARK    5  A    between atoms: C_17  and  O_18
REMARK    6  A    between atoms: O_18  and  C_19
REMARK                            x       y       z     vdW  Elec       q    Type
REMARK                         _______ _______ _______ _____ _____    ______ ____
ROOT
ATOM      1  C   UNL     1      43.694   4.608  12.570  0.00  0.00    +0.000 C 
ATOM      2  F   UNL     1      42.770   5.480  13.068  0.00  0.00    +0.000 F 
ATOM      3  F   UNL     1      43.516   3.450  13.273  0.00  0.00    +0.000 F 
ENDROOT
BRANCH   1   4
ATOM      4  C   UNL     1      45.111   5.137  12.687  0.00  0.00    +0.000 A 
ATOM      5  C   UNL     1      45.590   6.090  11.778  0.00  0.00    +0.000 A 
ATOM      6  C   UNL     1      46.854   6.660  11.955  0.00  0.00    +0.000 A 
ATOM      7  C   UNL     1      47.655   6.283  13.038  0.00  0.00    +0.000 A 
ATOM      8  C   UNL     1      47.200   5.315  13.933  0.00  0.00    +0.000 A 
ATOM      9  C   UNL     1      45.936   4.748  13.756  0.00  0.00    +0.000 A 
BRANCH   8  10
ATOM     10  O   UNL     1      47.876   4.886  15.048  0.00  0.00    +0.000 OA
BRANCH  10  11
ATOM     11  C   UNL     1      47.172   4.139  16.068  0.00  0.00    +0.000 C 
ATOM     12  C   UNL     1      47.175   4.695  17.505  0.00  0.00    +0.000 C 
ATOM     13  N   UNL     1      47.671   3.411  18.023  0.00  0.00    +0.000 NA
ATOM     14  C   UNL     1      47.956   2.944  16.659  0.00  0.00    +0.000 C 
ATOM     15  H   UNL     1      46.971   2.858  18.516  0.00  0.00    +0.000 HD
ENDBRANCH  10  11
ENDBRANCH   8  10
ENDBRANCH   1   4
BRANCH   1  16
ATOM     16  C   UNL     1      43.378   4.340  11.078  0.00  0.00    +0.000 C 
BRANCH  16  21
ATOM     17  C   UNL     1      46.551   2.648   7.422  0.00  0.00    +0.000 A 
ATOM     18  C   UNL     1      46.101   3.928   7.724  0.00  0.00    +0.000 A 
ATOM     19  C   UNL     1      45.207   4.095   8.780  0.00  0.00    +0.000 A 
ATOM     20  C   UNL     1      44.772   2.989   9.507  0.00  0.00    +0.000 A 
ATOM     21  N   UNL     1      43.909   3.084  10.565  0.00  0.00    +0.000 N 
ATOM     22  N   UNL     1      45.185   1.745   9.202  0.00  0.00    +0.000 NA
ATOM     23  C   UNL     1      46.054   1.594   8.169  0.00  0.00    +0.000 A 
ATOM     24  H   UNL     1      43.650   2.201  10.991  0.00  0.00    +0.000 HD
BRANCH  17  26
ATOM     25  N   UNL     1      47.499   3.239   5.274  0.00  0.00    +0.000 N 
ATOM     26  C   UNL     1      47.519   2.385   6.341  0.00  0.00    +0.000 C 
ATOM     27  O   UNL     1      48.330   1.473   6.413  0.00  0.00    +0.000 OA
ATOM     28  H   UNL     1      48.241   3.116   4.593  0.00  0.00    +0.000 HD
ATOM     29  H   UNL     1      47.042   4.139   5.309  0.00  0.00    +0.000 HD
ENDBRANCH  17  26
ENDBRANCH  16  21
ENDBRANCH   1  16
TORSDOF 6
ENDMDL
MODEL 2
REMARK VINA RESULT:    -8.465      2.767      4.212
REMARK INTER + INTRA:         -12.416
REMARK INTER:                 -11.698
REMARK INTRA:                  -0.717
REMARK UNBOUND:                -0.981
REMARK  Name = 
REMARK  6 active torsions:
REMARK  status: ('A' for Active; 'I' for Inactive)
REMARK    1  A    between atoms: C_2  and  C_4
REMARK    2  A    between atoms: N_8  and  C_9
REMARK    3  A    between atoms: C_9  and  C_10
REMARK    4  A    between atoms: C_10  and  C_13
REMARK    5  A    between atoms: C_17  and  O_18
REMARK    6  A    between atoms: O_18  and  C_19
REMARK                            x       y       z     vdW  Elec       q    Type
REMARK                         _______ _______ _______ _____ _____    ______ ____
ROOT
ATOM      1  C   UNL     1      43.798   4.333  12.470  0.00  0.00    +0.000 C 
ATOM      2  F   UNL     1      42.794   4.447  13.388  0.00  0.00    +0.000 F 
ATOM      3  F   UNL     1      44.233   3.041  12.566  0.00  0.00    +0.000 F 
ENDROOT
BRANCH   1   4
ATOM      4  C   UNL     1      44.915   5.333  12.706  0.00  0.00    +0.000 A 
ATOM      5  C   UNL     1      46.247   4.905  12.780  0.00  0.00    +0.000 A 
ATOM      6  C   UNL     1      47.283   5.837  12.882  0.00  0.00    +0.000 A 
ATOM      7  C   UNL     1      47.000   7.207  12.915  0.00  0.00    +0.000 A 
ATOM      8  C   UNL     1      45.677   7.644  12.871  0.00  0.00    +0.000 A 
ATOM      9  C   UNL     1      44.643   6.710  12.766  0.00  0.00    +0.000 A 
BRANCH   8  10
ATOM     10  O   UNL     1      45.274   8.956  12.863  0.00  0.00    +0.000 OA
BRANCH  10  11
ATOM     11  C   UNL     1      45.319   9.712  11.630  0.00  0.00    +0.000 C 
ATOM     12  C   UNL     1      45.318  11.250  11.723  0.00  0.00    +0.000 C 
ATOM     13  N   UNL     1      44.173  11.326  10.804  0.00  0.00    +0.000 NA
ATOM     14  C   UNL     1      43.958   9.876  10.915  0.00  0.00    +0.000 C 
ATOM     15  H   UNL     1      44.408  11.642   9.865  0.00  0.00    +0.000 HD
ENDBRANCH  10  11
ENDBRANCH   8  10
ENDBRANCH   1   4
BRANCH   1  16
ATOM     16  C   UNL     1      43.211   4.558  11.055  0.00  0.00    +0.000 C 
BRANCH  16  21
ATOM     17  C   UNL     1      46.467   2.502   7.669  0.00  0.00    +0.000 A 
ATOM     18  C   UNL     1      45.637   1.913   8.616  0.00  0.00    +0.000 A 
ATOM     19  C   UNL     1      44.861   2.733   9.433  0.00  0.00    +0.000 A 
ATOM     20  C   UNL     1      44.931   4.118   9.300  0.00  0.00    +0.000 A 
ATOM     21  N   UNL     1      44.186   4.979  10.057  0.00  0.00    +0.000 N 
ATOM     22  N   UNL     1      45.753   4.694   8.402  0.00  0.00    +0.000 NA
ATOM     23  C   UNL     1      46.507   3.884   7.613  0.00  0.00    +0.000 A 
ATOM     24  H   UNL     1      44.352   5.964   9.881  0.00  0.00    +0.000 HD
BRANCH  17  26
ATOM     25  N   UNL     1      48.312   2.369   6.107  0.00  0.00    +0.000 N 
ATOM     26  C   UNL     1      47.299   1.709   6.745  0.00  0.00    +0.000 C 
ATOM     27  O   UNL     1      47.120   0.510   6.588  0.00  0.00    +0.000 OA
ATOM     28  H   UNL     1      48.944   1.790   5.563  0.00  0.00    +0.000 HD
ATOM     29  H   UNL     1      48.649   3.270   6.413  0.00  0.00    +0.000 HD
ENDBRANCH  17  26
ENDBRANCH  16  21
ENDBRANCH   1  16
TORSDOF 6
ENDMDL
MODEL 3
REMARK VINA RESULT:    -8.380      2.450      2.756
REMARK INTER + INTRA:         -12.301
REMARK INTER:                 -11.242
REMARK INTRA:                  -1.058
REMARK UNBOUND:                -0.981
REMARK  Name = 
REMARK  6 active torsions:
REMARK  status: ('A' for Active; 'I' for Inactive)
REMARK    1  A    between atoms: C_2  and  C_4
REMARK    2  A    between atoms: N_8  and  C_9
REMARK    3  A    between atoms: C_9  and  C_10
REMARK    4  A    between atoms: C_10  and  C_13
REMARK    5  A    between atoms: C_17  and  O_18
REMARK    6  A    between atoms: O_18  and  C_19
REMARK                            x       y       z     vdW  Elec       q    Type
REMARK                         _______ _______ _______ _____ _____    ______ ____
ROOT
ATOM      1  C   UNL     1      44.100   4.059  12.588  0.00  0.00    +0.000 C 
ATOM      2  F   UNL     1      43.199   4.022  13.613  0.00  0.00    +0.000 F 
ATOM      3  F   UNL     1      45.073   3.162  12.928  0.00  0.00    +0.000 F 
ENDROOT
BRANCH   1   4
ATOM      4  C   UNL     1      44.658   5.451  12.357  0.00  0.00    +0.000 A 
ATOM      5  C   UNL     1      43.994   6.351  11.514  0.00  0.00    +0.000 A 
ATOM      6  C   UNL     1      44.445   7.668  11.393  0.00  0.00    +0.000 A 
ATOM      7  C   UNL     1      45.567   8.099  12.108  0.00  0.00    +0.000 A 
ATOM      8  C   UNL     1      46.254   7.205  12.928  0.00  0.00    +0.000 A 
ATOM      9  C   UNL     1      45.799   5.889  13.051  0.00  0.00    +0.000 A 
BRANCH   8  10
ATOM     10  O   UNL     1      47.344   7.514  13.703  0.00  0.00    +0.000 OA
BRANCH  10  11
ATOM     11  C   UNL     1      48.622   6.899  13.418  0.00  0.00    +0.000 C 
ATOM     12  C   UNL     1      49.870   7.462  14.124  0.00  0.00    +0.000 C 
ATOM     13  N   UNL     1      50.553   7.627  12.833  0.00  0.00    +0.000 NA
ATOM     14  C   UNL     1      49.298   7.373  12.111  0.00  0.00    +0.000 C 
ATOM     15  H   UNL     1      51.284   6.940  12.653  0.00  0.00    +0.000 HD
ENDBRANCH  10  11
ENDBRANCH   8  10
ENDBRANCH   1   4
BRANCH   1  16
ATOM     16  C   UNL     1      43.404   3.573  11.293  0.00  0.00    +0.000 C 
BRANCH  16  21
ATOM     17  C   UNL     1      46.511   2.744   7.298  0.00  0.00    +0.000 A 
ATOM     18  C   UNL     1      45.896   3.904   7.755  0.00  0.00    +0.000 A 
ATOM     19  C   UNL     1      45.070   3.831   8.875  0.00  0.00    +0.000 A 
ATOM     20  C   UNL     1      44.864   2.608   9.511  0.00  0.00    +0.000 A 
ATOM     21  N   UNL     1      44.079   2.470  10.623  0.00  0.00    +0.000 N 
ATOM     22  N   UNL     1      45.435   1.478   9.056  0.00  0.00    +0.000 NA
ATOM     23  C   UNL     1      46.237   1.561   7.962  0.00  0.00    +0.000 A 
ATOM     24  H   UNL     1      43.989   1.521  10.972  0.00  0.00    +0.000 HD
BRANCH  17  26
ATOM     25  N   UNL     1      48.740   2.476   6.392  0.00  0.00    +0.000 N 
ATOM     26  C   UNL     1      47.423   2.736   6.139  0.00  0.00    +0.000 C 
ATOM     27  O   UNL     1      47.015   2.911   5.000  0.00  0.00    +0.000 OA
ATOM     28  H   UNL     1      49.335   2.363   5.578  0.00  0.00    +0.000 HD
ATOM     29  H   UNL     1      49.055   2.068   7.261  0.00  0.00    +0.000 HD
ENDBRANCH  17  26
ENDBRANCH  16  21
ENDBRANCH   1  16
TORSDOF 6
ENDMDL
MODEL 4
REMARK VINA RESULT:    -8.348      2.436      3.263
REMARK INTER + INTRA:         -12.258
REMARK INTER:                 -11.270
REMARK INTRA:                  -0.987
REMARK UNBOUND:                -0.981
REMARK  Name = 
REMARK  6 active torsions:
REMARK  status: ('A' for Active; 'I' for Inactive)
REMARK    1  A    between atoms: C_2  and  C_4
REMARK    2  A    between atoms: N_8  and  C_9
REMARK    3  A    between atoms: C_9  and  C_10
REMARK    4  A    between atoms: C_10  and  C_13
REMARK    5  A    between atoms: C_17  and  O_18
REMARK    6  A    between atoms: O_18  and  C_19
REMARK                            x       y       z     vdW  Elec       q    Type
REMARK                         _______ _______ _______ _____ _____    ______ ____
ROOT
ATOM      1  C   UNL     1      43.442   5.679  12.001  0.00  0.00    +0.000 C 
ATOM      2  F   UNL     1      43.328   6.998  11.668  0.00  0.00    +0.000 F 
ATOM      3  F   UNL     1      42.400   5.427  12.848  0.00  0.00    +0.000 F 
ENDROOT
BRANCH   1   4
ATOM      4  C   UNL     1      44.784   5.354  12.630  0.00  0.00    +0.000 A 
ATOM      5  C   UNL     1      45.123   4.030  12.935  0.00  0.00    +0.000 A 
ATOM      6  C   UNL     1      46.401   3.720  13.407  0.00  0.00    +0.000 A 
ATOM      7  C   UNL     1      47.354   4.728  13.583  0.00  0.00    +0.000 A 
ATOM      8  C   UNL     1      47.019   6.054  13.311  0.00  0.00    +0.000 A 
ATOM      9  C   UNL     1      45.742   6.362  12.836  0.00  0.00    +0.000 A 
BRANCH   8  10
ATOM     10  O   UNL     1      47.872   7.125  13.412  0.00  0.00    +0.000 OA
BRANCH  10  11
ATOM     11  C   UNL     1      47.336   8.444  13.675  0.00  0.00    +0.000 C 
ATOM     12  C   UNL     1      47.557   9.539  12.614  0.00  0.00    +0.000 C 
ATOM     13  N   UNL     1      48.133  10.435  13.628  0.00  0.00    +0.000 NA
ATOM     14  C   UNL     1      48.208   9.330  14.595  0.00  0.00    +0.000 C 
ATOM     15  H   UNL     1      47.520  11.198  13.913  0.00  0.00    +0.000 HD
ENDBRANCH  10  11
ENDBRANCH   8  10
ENDBRANCH   1   4
BRANCH   1  16
ATOM     16  C   UNL     1      43.264   4.823  10.723  0.00  0.00    +0.000 C 
BRANCH  16  21
ATOM     17  C   UNL     1      46.515   2.321   7.646  0.00  0.00    +0.000 A 
ATOM     18  C   UNL     1      45.693   1.869   8.672  0.00  0.00    +0.000 A 
ATOM     19  C   UNL     1      44.917   2.793   9.369  0.00  0.00    +0.000 A 
ATOM     20  C   UNL     1      44.979   4.145   9.039  0.00  0.00    +0.000 A 
ATOM     21  N   UNL     1      44.232   5.102   9.671  0.00  0.00    +0.000 N 
ATOM     22  N   UNL     1      45.793   4.591   8.065  0.00  0.00    +0.000 NA
ATOM     23  C   UNL     1      46.547   3.681   7.394  0.00  0.00    +0.000 A 
ATOM     24  H   UNL     1      44.392   6.053   9.355  0.00  0.00    +0.000 HD
BRANCH  17  26
ATOM     25  N   UNL     1      48.389   1.968   6.154  0.00  0.00    +0.000 N 
ATOM     26  C   UNL     1      47.347   1.408   6.840  0.00  0.00    +0.000 C 
ATOM     27  O   UNL     1      47.143   0.203   6.818  0.00  0.00    +0.000 OA
ATOM     28  H   UNL     1      49.018   1.317   5.695  0.00  0.00    +0.000 HD
ATOM     29  H   UNL     1      48.741   2.891   6.362  0.00  0.00    +0.000 HD
ENDBRANCH  17  26
ENDBRANCH  16  21
ENDBRANCH   1  16
TORSDOF 6
ENDMDL
MODEL 5
REMARK VINA RESULT:    -8.270      1.708      1.951
REMARK INTER + INTRA:         -12.152
REMARK INTER:                 -11.603
REMARK INTRA:                  -0.549
REMARK UNBOUND:                -0.981
REMARK  Name = 
REMARK  6 active torsions:
REMARK  status: ('A' for Active; 'I' for Inactive)
REMARK    1  A    between atoms: C_2  and  C_4
REMARK    2  A    between atoms: N_8  and  C_9
REMARK    3  A    between atoms: C_9  and  C_10
REMARK    4  A    between atoms: C_10  and  C_13
REMARK    5  A    between atoms: C_17  and  O_18
REMARK    6  A    between atoms: O_18  and  C_19
REMARK                            x       y       z     vdW  Elec       q    Type
REMARK                         _______ _______ _______ _____ _____    ______ ____
ROOT
ATOM      1  C   UNL     1      43.938   4.750  12.432  0.00  0.00    +0.000 C 
ATOM      2  F   UNL     1      42.919   4.870  13.333  0.00  0.00    +0.000 F 
ATOM      3  F   UNL     1      44.451   3.499  12.629  0.00  0.00    +0.000 F 
ENDROOT
BRANCH   1   4
ATOM      4  C   UNL     1      44.987   5.834  12.597  0.00  0.00    +0.000 A 
ATOM      5  C   UNL     1      44.699   7.160  12.252  0.00  0.00    +0.000 A 
ATOM      6  C   UNL     1      45.625   8.174  12.512  0.00  0.00    +0.000 A 
ATOM      7  C   UNL     1      46.851   7.874  13.115  0.00  0.00    +0.000 A 
ATOM      8  C   UNL     1      47.161   6.553  13.437  0.00  0.00    +0.000 A 
ATOM      9  C   UNL     1      46.232   5.542  13.179  0.00  0.00    +0.000 A 
BRANCH   8  10
ATOM     10  O   UNL     1      48.312   6.137  14.058  0.00  0.00    +0.000 OA
BRANCH  10  11
ATOM     11  C   UNL     1      48.593   6.572  15.410  0.00  0.00    +0.000 C 
ATOM     12  C   UNL     1      50.068   6.679  15.844  0.00  0.00    +0.000 C 
ATOM     13  N   UNL     1      49.807   5.828  17.014  0.00  0.00    +0.000 NA
ATOM     14  C   UNL     1      48.484   5.466  16.486  0.00  0.00    +0.000 C 
ATOM     15  H   UNL     1      49.780   6.329  17.901  0.00  0.00    +0.000 HD
ENDBRANCH  10  11
ENDBRANCH   8  10
ENDBRANCH   1   4
BRANCH   1  16
ATOM     16  C   UNL     1      43.353   4.830  11.000  0.00  0.00    +0.000 C 
BRANCH  16  21
ATOM     17  C   UNL     1      46.467   2.397   7.732  0.00  0.00    +0.000 A 
ATOM     18  C   UNL     1      45.626   1.914   8.728  0.00  0.00    +0.000 A 
ATOM     19  C   UNL     1      44.898   2.823   9.494  0.00  0.00    +0.000 A 
ATOM     20  C   UNL     1      45.027   4.191   9.262  0.00  0.00    +0.000 A 
ATOM     21  N   UNL     1      44.331   5.135   9.965  0.00  0.00    +0.000 N 
ATOM     22  N   UNL     1      45.861   4.665   8.318  0.00  0.00    +0.000 NA
ATOM     23  C   UNL     1      46.567   3.769   7.579  0.00  0.00    +0.000 A 
ATOM     24  H   UNL     1      44.538   6.097   9.718  0.00  0.00    +0.000 HD
BRANCH  17  26
ATOM     25  N   UNL     1      48.249   2.082   6.124  0.00  0.00    +0.000 N 
ATOM     26  C   UNL     1      47.250   1.505   6.857  0.00  0.00    +0.000 C 
ATOM     27  O   UNL     1      47.046   0.300   6.820  0.00  0.00    +0.000 OA
ATOM     28  H   UNL     1      48.851   1.443   5.614  0.00  0.00    +0.000 HD
ATOM     29  H   UNL     1      48.613   3.001   6.332  0.00  0.00    +0.000 HD
ENDBRANCH  17  26
ENDBRANCH  16  21
ENDBRANCH   1  16
TORSDOF 6
ENDMDL
MODEL 6
REMARK VINA RESULT:    -7.661      2.061      8.058
REMARK INTER + INTRA:         -11.329
REMARK INTER:                 -10.849
REMARK INTRA:                  -0.480
REMARK UNBOUND:                -0.981
REMARK  Name = 
REMARK  6 active torsions:
REMARK  status: ('A' for Active; 'I' for Inactive)
REMARK    1  A    between atoms: C_2  and  C_4
REMARK    2  A    between atoms: N_8  and  C_9
REMARK    3  A    between atoms: C_9  and  C_10
REMARK    4  A    between atoms: C_10  and  C_13
REMARK    5  A    between atoms: C_17  and  O_18
REMARK    6  A    between atoms: O_18  and  C_19
REMARK                            x       y       z     vdW  Elec       q    Type
REMARK                         _______ _______ _______ _____ _____    ______ ____
ROOT
ATOM      1  C   UNL     1      45.177   6.130  11.509  0.00  0.00    +0.000 C 
ATOM      2  F   UNL     1      44.098   6.281  12.331  0.00  0.00    +0.000 F 
ATOM      3  F   UNL     1      45.241   7.283  10.778  0.00  0.00    +0.000 F 
ENDROOT
BRANCH   1   4
ATOM      4  C   UNL     1      45.067   4.899  10.629  0.00  0.00    +0.000 A 
ATOM      5  C   UNL     1      44.278   3.812  11.024  0.00  0.00    +0.000 A 
ATOM      6  C   UNL     1      44.086   2.729  10.162  0.00  0.00    +0.000 A 
ATOM      7  C   UNL     1      44.684   2.717   8.897  0.00  0.00    +0.000 A 
ATOM      8  C   UNL     1      45.495   3.781   8.504  0.00  0.00    +0.000 A 
ATOM      9  C   UNL     1      45.683   4.864   9.366  0.00  0.00    +0.000 A 
BRANCH   8  10
ATOM     10  O   UNL     1      46.109   3.901   7.282  0.00  0.00    +0.000 OA
BRANCH  10  11
ATOM     11  C   UNL     1      46.552   2.714   6.583  0.00  0.00    +0.000 C 
ATOM     12  C   UNL     1      47.934   2.135   6.943  0.00  0.00    +0.000 C 
ATOM     13  N   UNL     1      48.335   2.159   5.529  0.00  0.00    +0.000 NA
ATOM     14  C   UNL     1      47.160   2.970   5.184  0.00  0.00    +0.000 C 
ATOM     15  H   UNL     1      48.357   1.243   5.082  0.00  0.00    +0.000 HD
ENDBRANCH  10  11
ENDBRANCH   8  10
ENDBRANCH   1   4
BRANCH   1  16
ATOM     16  C   UNL     1      46.455   6.017  12.376  0.00  0.00    +0.000 C 
BRANCH  16  21
ATOM     17  C   UNL     1      48.364   4.423  16.861  0.00  0.00    +0.000 A 
ATOM     18  C   UNL     1      48.452   5.648  16.211  0.00  0.00    +0.000 A 
ATOM     19  C   UNL     1      47.843   5.796  14.967  0.00  0.00    +0.000 A 
ATOM     20  C   UNL     1      47.167   4.723  14.389  0.00  0.00    +0.000 A 
ATOM     21  N   UNL     1      46.534   4.805  13.179  0.00  0.00    +0.000 N 
ATOM     22  N   UNL     1      47.101   3.526  15.002  0.00  0.00    +0.000 NA
ATOM     23  C   UNL     1      47.701   3.394  16.213  0.00  0.00    +0.000 A 
ATOM     24  H   UNL     1      46.103   3.944  12.858  0.00  0.00    +0.000 HD
BRANCH  17  26
ATOM     25  N   UNL     1      48.319   3.285  18.997  0.00  0.00    +0.000 N 
ATOM     26  C   UNL     1      48.954   4.188  18.192  0.00  0.00    +0.000 C 
ATOM     27  O   UNL     1      49.985   4.743  18.543  0.00  0.00    +0.000 OA
ATOM     28  H   UNL     1      48.796   3.050  19.862  0.00  0.00    +0.000 HD
ATOM     29  H   UNL     1      47.642   2.625  18.643  0.00  0.00    +0.000 HD
ENDBRANCH  17  26
ENDBRANCH  16  21
ENDBRANCH   1  16
TORSDOF 6
ENDMDL
MODEL 7
REMARK VINA RESULT:    -7.289      3.165      7.402
REMARK INTER + INTRA:         -10.827
REMARK INTER:                 -10.072
REMARK INTRA:                  -0.755
REMARK UNBOUND:                -0.981
REMARK  Name = 
REMARK  6 active torsions:
REMARK  status: ('A' for Active; 'I' for Inactive)
REMARK    1  A    between atoms: C_2  and  C_4
REMARK    2  A    between atoms: N_8  and  C_9
REMARK    3  A    between atoms: C_9  and  C_10
REMARK    4  A    between atoms: C_10  and  C_13
REMARK    5  A    between atoms: C_17  and  O_18
REMARK    6  A    between atoms: O_18  and  C_19
REMARK                            x       y       z     vdW  Elec       q    Type
REMARK                         _______ _______ _______ _____ _____    ______ ____
ROOT
ATOM      1  C   UNL     1      44.030   6.015  11.208  0.00  0.00    +0.000 C 
ATOM      2  F   UNL     1      42.691   6.274  11.145  0.00  0.00    +0.000 F 
ATOM      3  F   UNL     1      44.637   7.103  10.646  0.00  0.00    +0.000 F 
ENDROOT
BRANCH   1   4
ATOM      4  C   UNL     1      44.404   4.723  10.507  0.00  0.00    +0.000 A 
ATOM      5  C   UNL     1      43.869   3.502  10.936  0.00  0.00    +0.000 A 
ATOM      6  C   UNL     1      44.123   2.329  10.220  0.00  0.00    +0.000 A 
ATOM      7  C   UNL     1      44.917   2.362   9.069  0.00  0.00    +0.000 A 
ATOM      8  C   UNL     1      45.478   3.567   8.647  0.00  0.00    +0.000 A 
ATOM      9  C   UNL     1      45.221   4.739   9.364  0.00  0.00    +0.000 A 
BRANCH   8  10
ATOM     10  O   UNL     1      46.245   3.735   7.521  0.00  0.00    +0.000 OA
BRANCH  10  11
ATOM     11  C   UNL     1      46.585   2.586   6.709  0.00  0.00    +0.000 C 
ATOM     12  C   UNL     1      47.909   1.857   7.004  0.00  0.00    +0.000 C 
ATOM     13  N   UNL     1      48.316   1.981   5.596  0.00  0.00    +0.000 NA
ATOM     14  C   UNL     1      47.217   2.921   5.337  0.00  0.00    +0.000 C 
ATOM     15  H   UNL     1      48.258   1.115   5.064  0.00  0.00    +0.000 HD
ENDBRANCH  10  11
ENDBRANCH   8  10
ENDBRANCH   1   4
BRANCH   1  16
ATOM     16  C   UNL     1      44.453   5.922  12.695  0.00  0.00    +0.000 C 
BRANCH  16  21
ATOM     17  C   UNL     1      49.166   7.909  13.058  0.00  0.00    +0.000 A 
ATOM     18  C   UNL     1      48.724   6.683  12.575  0.00  0.00    +0.000 A 
ATOM     19  C   UNL     1      47.361   6.394  12.620  0.00  0.00    +0.000 A 
ATOM     20  C   UNL     1      46.468   7.323  13.150  0.00  0.00    +0.000 A 
ATOM     21  N   UNL     1      45.118   7.111  13.209  0.00  0.00    +0.000 N 
ATOM     22  N   UNL     1      46.895   8.501  13.644  0.00  0.00    +0.000 NA
ATOM     23  C   UNL     1      48.226   8.770  13.597  0.00  0.00    +0.000 A 
ATOM     24  H   UNL     1      44.583   7.855  13.645  0.00  0.00    +0.000 HD
BRANCH  17  26
ATOM     25  N   UNL     1      51.385   7.828  14.022  0.00  0.00    +0.000 N 
ATOM     26  C   UNL     1      50.586   8.307  13.022  0.00  0.00    +0.000 C 
ATOM     27  O   UNL     1      51.037   8.996  12.119  0.00  0.00    +0.000 OA
ATOM     28  H   UNL     1      52.378   8.016  13.924  0.00  0.00    +0.000 HD
ATOM     29  H   UNL     1      51.112   7.056  14.612  0.00  0.00    +0.000 HD
ENDBRANCH  17  26
ENDBRANCH  16  21
ENDBRANCH   1  16
TORSDOF 6
ENDMDL
MODEL 8
REMARK VINA RESULT:    -6.685      3.357      4.903
REMARK INTER + INTRA:         -10.011
REMARK INTER:                  -9.055
REMARK INTRA:                  -0.956
REMARK UNBOUND:                -0.981
REMARK  Name = 
REMARK  6 active torsions:
REMARK  status: ('A' for Active; 'I' for Inactive)
REMARK    1  A    between atoms: C_2  and  C_4
REMARK    2  A    between atoms: N_8  and  C_9
REMARK    3  A    between atoms: C_9  and  C_10
REMARK    4  A    between atoms: C_10  and  C_13
REMARK    5  A    between atoms: C_17  and  O_18
REMARK    6  A    between atoms: O_18  and  C_19
REMARK                            x       y       z     vdW  Elec       q    Type
REMARK                         _______ _______ _______ _____ _____    ______ ____
ROOT
ATOM      1  C   UNL     1      48.492   8.256  12.772  0.00  0.00    +0.000 C 
ATOM      2  F   UNL     1      48.816   7.156  12.032  0.00  0.00    +0.000 F 
ATOM      3  F   UNL     1      49.255   9.271  12.268  0.00  0.00    +0.000 F 
ENDROOT
BRANCH   1   4
ATOM      4  C   UNL     1      48.725   8.046  14.256  0.00  0.00    +0.000 A 
ATOM      5  C   UNL     1      48.705   9.133  15.139  0.00  0.00    +0.000 A 
ATOM      6  C   UNL     1      48.806   8.925  16.517  0.00  0.00    +0.000 A 
ATOM      7  C   UNL     1      48.932   7.630  17.029  0.00  0.00    +0.000 A 
ATOM      8  C   UNL     1      48.982   6.542  16.159  0.00  0.00    +0.000 A 
ATOM      9  C   UNL     1      48.878   6.752  14.781  0.00  0.00    +0.000 A 
BRANCH   8  10
ATOM     10  O   UNL     1      49.070   5.225  16.538  0.00  0.00    +0.000 OA
BRANCH  10  11
ATOM     11  C   UNL     1      47.911   4.367  16.422  0.00  0.00    +0.000 C 
ATOM     12  C   UNL     1      46.900   4.356  17.585  0.00  0.00    +0.000 C 
ATOM     13  N   UNL     1      46.992   2.892  17.678  0.00  0.00    +0.000 NA
ATOM     14  C   UNL     1      48.158   2.884  16.784  0.00  0.00    +0.000 C 
ATOM     15  H   UNL     1      46.182   2.395  17.312  0.00  0.00    +0.000 HD
ENDBRANCH  10  11
ENDBRANCH   8  10
ENDBRANCH   1   4
BRANCH   1  16
ATOM     16  C   UNL     1      46.998   8.593  12.540  0.00  0.00    +0.000 C 
BRANCH  16  21
ATOM     17  C   UNL     1      44.397   4.315  11.430  0.00  0.00    +0.000 A 
ATOM     18  C   UNL     1      45.215   5.119  10.645  0.00  0.00    +0.000 A 
ATOM     19  C   UNL     1      45.786   6.257  11.214  0.00  0.00    +0.000 A 
ATOM     20  C   UNL     1      45.526   6.576  12.545  0.00  0.00    +0.000 A 
ATOM     21  N   UNL     1      46.066   7.667  13.169  0.00  0.00    +0.000 N 
ATOM     22  N   UNL     1      44.713   5.815  13.301  0.00  0.00    +0.000 NA
ATOM     23  C   UNL     1      44.160   4.711  12.735  0.00  0.00    +0.000 A 
ATOM     24  H   UNL     1      45.774   7.802  14.132  0.00  0.00    +0.000 HD
BRANCH  17  26
ATOM     25  N   UNL     1      44.222   2.622   9.709  0.00  0.00    +0.000 N 
ATOM     26  C   UNL     1      43.777   3.079  10.917  0.00  0.00    +0.000 C 
ATOM     27  O   UNL     1      42.935   2.469  11.560  0.00  0.00    +0.000 OA
ATOM     28  H   UNL     1      43.870   1.714   9.421  0.00  0.00    +0.000 HD
ATOM     29  H   UNL     1      45.085   2.941   9.293  0.00  0.00    +0.000 HD
ENDBRANCH  17  26
ENDBRANCH  16  21
ENDBRANCH   1  16
TORSDOF 6
ENDMDL
