MODEL 1
REMARK VINA RESULT:    -6.596      0.000      0.000
REMARK INTER + INTRA:          -8.186
REMARK INTER:                  -7.753
REMARK INTRA:                  -0.433
REMARK UNBOUND:                -0.433
REMARK  Name = 
REMARK  6 active torsions:
REMARK  status: ('A' for Active; 'I' for Inactive)
REMARK    1  A    between atoms: C_1  and  C_2
REMARK    2  A    between atoms: C_2  and  N_3
REMARK    3  A    between atoms: C_2  and  C_15
REMARK    4  A    between atoms: C_7  and  C_8
REMARK    5  A    between atoms: N_10  and  C_11
REMARK    6  A    between atoms: N_10  and  C_12
REMARK                            x       y       z     vdW  Elec       q    Type
REMARK                         _______ _______ _______ _____ _____    ______ ____
ROOT
ATOM      1  N   UNL     1      45.384   3.943  13.250  0.00  0.00    +0.000 N 
ATOM      2  C   UNL     1      46.343   4.607  14.015  0.00  0.00    +0.000 A 
ATOM      3  N   UNL     1      46.732   4.020  15.157  0.00  0.00    +0.000 NA
ATOM      4  C   UNL     1      47.701   4.634  15.890  0.00  0.00    +0.000 A 
ATOM      5  C   UNL     1      48.304   5.811  15.528  0.00  0.00    +0.000 A 
ATOM      6  C   UNL     1      47.878   6.296  14.311  0.00  0.00    +0.000 A 
ATOM      7  N   UNL     1      46.901   5.734  13.559  0.00  0.00    +0.000 NA
ATOM      8  H   UNL     1      45.901   3.223  12.756  0.00  0.00    +0.000 HD
ENDROOT
BRANCH   5   9
ATOM      9  C   UNL     1      49.427   6.493  16.202  0.00  0.00    +0.000 C 
ATOM     10  O   UNL     1      50.447   6.612  15.513  0.00  0.00    +0.000 OA
ATOM     11  N   UNL     1      49.369   7.000  17.501  0.00  0.00    +0.000 N 
ATOM     12  C   UNL     1      48.218   7.069  18.391  0.00  0.00    +0.000 C 
ATOM     13  C   UNL     1      50.552   7.699  17.999  0.00  0.00    +0.000 C 
ENDBRANCH   5   9
BRANCH   1  15
ATOM     14  C   UNL     1      43.156   4.809  12.743  0.00  0.00    +0.000 C 
ATOM     15  C   UNL     1      44.630   4.787  12.321  0.00  0.00    +0.000 C 
BRANCH  15  16
ATOM     16  C   UNL     1      44.774   4.268  10.892  0.00  0.00    +0.000 A 
ATOM     17  C   UNL     1      44.297   2.984  10.573  0.00  0.00    +0.000 A 
ATOM     18  C   UNL     1      44.469   2.454   9.292  0.00  0.00    +0.000 A 
ATOM     19  C   UNL     1      45.115   3.201   8.309  0.00  0.00    +0.000 A 
ATOM     20  C   UNL     1      45.577   4.482   8.604  0.00  0.00    +0.000 A 
ATOM     21  C   UNL     1      45.404   5.016   9.885  0.00  0.00    +0.000 A 
ENDBRANCH  15  16
ENDBRANCH   1  15
TORSDOF 3
ENDMDL
MODEL 2
REMARK VINA RESULT:    -6.071      2.945      7.588
REMARK INTER + INTRA:          -7.569
REMARK INTER:                  -7.417
REMARK INTRA:                  -0.152
REMARK UNBOUND:                -0.433
REMARK  Name = 
REMARK  6 active torsions:
REMARK  status: ('A' for Active; 'I' for Inactive)
REMARK    1  A    between atoms: C_1  and  C_2
REMARK    2  A    between atoms: C_2  and  N_3
REMARK    3  A    between atoms: C_2  and  C_15
REMARK    4  A    between atoms: C_7  and  C_8
REMARK    5  A    between atoms: N_10  and  C_11
REMARK    6  A    between atoms: N_10  and  C_12
REMARK                            x       y       z     vdW  Elec       q    Type
REMARK                         _______ _______ _______ _____ _____    ______ ____
ROOT
ATOM      1  N   UNL     1      47.726   5.244  15.654  0.00  0.00    +0.000 N 
ATOM      2  C   UNL     1      46.974   4.916  14.526  0.00  0.00    +0.000 A 
ATOM      3  N   UNL     1      46.658   5.914  13.687  0.00  0.00    +0.000 NA
ATOM      4  C   UNL     1      45.964   5.600  12.559  0.00  0.00    +0.000 A 
ATOM      5  C   UNL     1      45.576   4.327  12.228  0.00  0.00    +0.000 A 
ATOM      6  C   UNL     1      46.004   3.371  13.123  0.00  0.00    +0.000 A 
ATOM      7  N   UNL     1      46.674   3.637  14.269  0.00  0.00    +0.000 NA
ATOM      8  H   UNL     1      48.680   5.322  15.315  0.00  0.00    +0.000 HD
ENDROOT
BRANCH   5   9
ATOM      9  C   UNL     1      44.914   3.880  10.985  0.00  0.00    +0.000 C 
ATOM     10  O   UNL     1      44.075   2.985  11.141  0.00  0.00    +0.000 OA
ATOM     11  N   UNL     1      45.171   4.419   9.724  0.00  0.00    +0.000 N 
ATOM     12  C   UNL     1      46.014   5.557   9.385  0.00  0.00    +0.000 C 
ATOM     13  C   UNL     1      44.386   3.901   8.604  0.00  0.00    +0.000 C 
ENDBRANCH   5   9
BRANCH   1  15
ATOM     14  C   UNL     1      47.064   5.015  17.994  0.00  0.00    +0.000 C 
ATOM     15  C   UNL     1      47.634   4.297  16.766  0.00  0.00    +0.000 C 
BRANCH  15  16
ATOM     16  C   UNL     1      49.006   3.704  17.077  0.00  0.00    +0.000 A 
ATOM     17  C   UNL     1      50.027   4.542  17.561  0.00  0.00    +0.000 A 
ATOM     18  C   UNL     1      51.311   4.046  17.796  0.00  0.00    +0.000 A 
ATOM     19  C   UNL     1      51.593   2.702  17.556  0.00  0.00    +0.000 A 
ATOM     20  C   UNL     1      50.588   1.853  17.095  0.00  0.00    +0.000 A 
ATOM     21  C   UNL     1      49.301   2.349  16.861  0.00  0.00    +0.000 A 
ENDBRANCH  15  16
ENDBRANCH   1  15
TORSDOF 3
ENDMDL
MODEL 3
REMARK VINA RESULT:    -5.920      2.065      2.505
REMARK INTER + INTRA:          -7.391
REMARK INTER:                  -6.947
REMARK INTRA:                  -0.444
REMARK UNBOUND:                -0.433
REMARK  Name = 
REMARK  6 active torsions:
REMARK  status: ('A' for Active; 'I' for Inactive)
REMARK    1  A    between atoms: C_1  and  C_2
REMARK    2  A    between atoms: C_2  and  N_3
REMARK    3  A    between atoms: C_2  and  C_15
REMARK    4  A    between atoms: C_7  and  C_8
REMARK    5  A    between atoms: N_10  and  C_11
REMARK    6  A    between atoms: N_10  and  C_12
REMARK                            x       y       z     vdW  Elec       q    Type
REMARK                         _______ _______ _______ _____ _____    ______ ____
ROOT
ATOM      1  N   UNL     1      45.875   4.039  12.709  0.00  0.00    +0.000 N 
ATOM      2  C   UNL     1      46.545   5.185  13.139  0.00  0.00    +0.000 A 
ATOM      3  N   UNL     1      47.357   5.061  14.199  0.00  0.00    +0.000 NA
ATOM      4  C   UNL     1      48.052   6.161  14.600  0.00  0.00    +0.000 A 
ATOM      5  C   UNL     1      47.976   7.382  13.982  0.00  0.00    +0.000 A 
ATOM      6  C   UNL     1      47.165   7.385  12.868  0.00  0.00    +0.000 A 
ATOM      7  N   UNL     1      46.435   6.325  12.446  0.00  0.00    +0.000 NA
ATOM      8  H   UNL     1      46.566   3.521  12.177  0.00  0.00    +0.000 HD
ENDROOT
BRANCH   5   9
ATOM      9  C   UNL     1      48.764   8.595  14.280  0.00  0.00    +0.000 C 
ATOM     10  O   UNL     1      48.328   9.275  15.216  0.00  0.00    +0.000 OA
ATOM     11  N   UNL     1      49.925   8.961  13.599  0.00  0.00    +0.000 N 
ATOM     12  C   UNL     1      50.645   8.213  12.578  0.00  0.00    +0.000 C 
ATOM     13  C   UNL     1      50.618  10.165  14.058  0.00  0.00    +0.000 C 
ENDBRANCH   5   9
BRANCH   1  15
ATOM     14  C   UNL     1      43.501   3.493  12.530  0.00  0.00    +0.000 C 
ATOM     15  C   UNL     1      44.666   4.280  11.919  0.00  0.00    +0.000 C 
BRANCH  15  16
ATOM     16  C   UNL     1      44.890   3.871  10.465  0.00  0.00    +0.000 A 
ATOM     17  C   UNL     1      44.659   2.538  10.079  0.00  0.00    +0.000 A 
ATOM     18  C   UNL     1      44.914   2.115   8.773  0.00  0.00    +0.000 A 
ATOM     19  C   UNL     1      45.397   3.021   7.829  0.00  0.00    +0.000 A 
ATOM     20  C   UNL     1      45.613   4.349   8.190  0.00  0.00    +0.000 A 
ATOM     21  C   UNL     1      45.356   4.774   9.498  0.00  0.00    +0.000 A 
ENDBRANCH  15  16
ENDBRANCH   1  15
TORSDOF 3
ENDMDL
MODEL 4
REMARK VINA RESULT:    -5.714      2.879      7.427
REMARK INTER + INTRA:          -7.149
REMARK INTER:                  -6.797
REMARK INTRA:                  -0.351
REMARK UNBOUND:                -0.433
REMARK  Name = 
REMARK  6 active torsions:
REMARK  status: ('A' for Active; 'I' for Inactive)
REMARK    1  A    between atoms: C_1  and  C_2
REMARK    2  A    between atoms: C_2  and  N_3
REMARK    3  A    between atoms: C_2  and  C_15
REMARK    4  A    between atoms: C_7  and  C_8
REMARK    5  A    between atoms: N_10  and  C_11
REMARK    6  A    between atoms: N_10  and  C_12
REMARK                            x       y       z     vdW  Elec       q    Type
REMARK                         _______ _______ _______ _____ _____    ______ ____
ROOT
ATOM      1  N   UNL     1      48.977   5.880  16.195  0.00  0.00    +0.000 N 
ATOM      2  C   UNL     1      48.059   5.812  15.146  0.00  0.00    +0.000 A 
ATOM      3  N   UNL     1      47.924   6.901  14.375  0.00  0.00    +0.000 NA
ATOM      4  C   UNL     1      47.066   6.832  13.321  0.00  0.00    +0.000 A 
ATOM      5  C   UNL     1      46.338   5.716  12.998  0.00  0.00    +0.000 A 
ATOM      6  C   UNL     1      46.597   4.636  13.814  0.00  0.00    +0.000 A 
ATOM      7  N   UNL     1      47.421   4.664  14.888  0.00  0.00    +0.000 NA
ATOM      8  H   UNL     1      49.880   5.737  15.756  0.00  0.00    +0.000 HD
ENDROOT
BRANCH   5   9
ATOM      9  C   UNL     1      45.466   5.516  11.823  0.00  0.00    +0.000 C 
ATOM     10  O   UNL     1      46.042   5.607  10.732  0.00  0.00    +0.000 OA
ATOM     11  N   UNL     1      44.104   5.222  11.900  0.00  0.00    +0.000 N 
ATOM     12  C   UNL     1      43.307   4.947  13.087  0.00  0.00    +0.000 C 
ATOM     13  C   UNL     1      43.397   4.997  10.640  0.00  0.00    +0.000 C 
ENDBRANCH   5   9
BRANCH   1  15
ATOM     14  C   UNL     1      48.546   5.695  18.592  0.00  0.00    +0.000 C 
ATOM     15  C   UNL     1      48.757   4.926  17.283  0.00  0.00    +0.000 C 
BRANCH  15  16
ATOM     16  C   UNL     1      49.943   3.972  17.403  0.00  0.00    +0.000 A 
ATOM     17  C   UNL     1      49.760   2.605  17.128  0.00  0.00    +0.000 A 
ATOM     18  C   UNL     1      50.807   1.695  17.289  0.00  0.00    +0.000 A 
ATOM     19  C   UNL     1      52.056   2.139  17.722  0.00  0.00    +0.000 A 
ATOM     20  C   UNL     1      52.259   3.493  17.981  0.00  0.00    +0.000 A 
ATOM     21  C   UNL     1      51.211   4.405  17.818  0.00  0.00    +0.000 A 
ENDBRANCH  15  16
ENDBRANCH   1  15
TORSDOF 3
ENDMDL
MODEL 5
REMARK VINA RESULT:    -5.172      2.520      7.652
REMARK INTER + INTRA:          -6.512
REMARK INTER:                  -6.069
REMARK INTRA:                  -0.443
REMARK UNBOUND:                -0.433
REMARK  Name = 
REMARK  6 active torsions:
REMARK  status: ('A' for Active; 'I' for Inactive)
REMARK    1  A    between atoms: C_1  and  C_2
REMARK    2  A    between atoms: C_2  and  N_3
REMARK    3  A    between atoms: C_2  and  C_15
REMARK    4  A    between atoms: C_7  and  C_8
REMARK    5  A    between atoms: N_10  and  C_11
REMARK    6  A    between atoms: N_10  and  C_12
REMARK                            x       y       z     vdW  Elec       q    Type
REMARK                         _______ _______ _______ _____ _____    ______ ____
ROOT
ATOM      1  N   UNL     1      49.289   6.960  15.231  0.00  0.00    +0.000 N 
ATOM      2  C   UNL     1      48.265   6.257  14.596  0.00  0.00    +0.000 A 
ATOM      3  N   UNL     1      47.827   6.736  13.422  0.00  0.00    +0.000 NA
ATOM      4  C   UNL     1      46.861   6.034  12.769  0.00  0.00    +0.000 A 
ATOM      5  C   UNL     1      46.315   4.866  13.236  0.00  0.00    +0.000 A 
ATOM      6  C   UNL     1      46.878   4.429  14.415  0.00  0.00    +0.000 A 
ATOM      7  N   UNL     1      47.822   5.104  15.113  0.00  0.00    +0.000 NA
ATOM      8  H   UNL     1      50.135   6.676  14.748  0.00  0.00    +0.000 HD
ENDROOT
BRANCH   5   9
ATOM      9  C   UNL     1      45.343   3.988  12.554  0.00  0.00    +0.000 C 
ATOM     10  O   UNL     1      45.805   2.906  12.172  0.00  0.00    +0.000 OA
ATOM     11  N   UNL     1      43.999   4.310  12.361  0.00  0.00    +0.000 N 
ATOM     12  C   UNL     1      43.267   5.465  12.863  0.00  0.00    +0.000 C 
ATOM     13  C   UNL     1      43.157   3.302  11.716  0.00  0.00    +0.000 C 
ENDBRANCH   5   9
BRANCH   1  15
ATOM     14  C   UNL     1      49.491   8.089  17.388  0.00  0.00    +0.000 C 
ATOM     15  C   UNL     1      49.400   6.736  16.674  0.00  0.00    +0.000 C 
BRANCH  15  16
ATOM     16  C   UNL     1      50.624   5.878  16.987  0.00  0.00    +0.000 A 
ATOM     17  C   UNL     1      50.447   4.600  17.547  0.00  0.00    +0.000 A 
ATOM     18  C   UNL     1      51.545   3.815  17.904  0.00  0.00    +0.000 A 
ATOM     19  C   UNL     1      52.839   4.293  17.702  0.00  0.00    +0.000 A 
ATOM     20  C   UNL     1      53.032   5.549  17.131  0.00  0.00    +0.000 A 
ATOM     21  C   UNL     1      51.933   6.336  16.771  0.00  0.00    +0.000 A 
ENDBRANCH  15  16
ENDBRANCH   1  15
TORSDOF 3
ENDMDL
MODEL 6
REMARK VINA RESULT:    -5.130      2.072      2.708
REMARK INTER + INTRA:          -6.463
REMARK INTER:                  -6.478
REMARK INTRA:                   0.015
REMARK UNBOUND:                -0.433
REMARK  Name = 
REMARK  6 active torsions:
REMARK  status: ('A' for Active; 'I' for Inactive)
REMARK    1  A    between atoms: C_1  and  C_2
REMARK    2  A    between atoms: C_2  and  N_3
REMARK    3  A    between atoms: C_2  and  C_15
REMARK    4  A    between atoms: C_7  and  C_8
REMARK    5  A    between atoms: N_10  and  C_11
REMARK    6  A    between atoms: N_10  and  C_12
REMARK                            x       y       z     vdW  Elec       q    Type
REMARK                         _______ _______ _______ _____ _____    ______ ____
ROOT
ATOM      1  N   UNL     1      46.356   4.049  14.279  0.00  0.00    +0.000 N 
ATOM      2  C   UNL     1      47.074   4.423  15.415  0.00  0.00    +0.000 A 
ATOM      3  N   UNL     1      46.677   3.908  16.589  0.00  0.00    +0.000 NA
ATOM      4  C   UNL     1      47.398   4.229  17.699  0.00  0.00    +0.000 A 
ATOM      5  C   UNL     1      48.504   5.038  17.687  0.00  0.00    +0.000 A 
ATOM      6  C   UNL     1      48.862   5.462  16.425  0.00  0.00    +0.000 A 
ATOM      7  N   UNL     1      48.164   5.190  15.297  0.00  0.00    +0.000 NA
ATOM      8  H   UNL     1      46.707   3.126  14.045  0.00  0.00    +0.000 HD
ENDROOT
BRANCH   5   9
ATOM      9  C   UNL     1      49.402   5.357  18.816  0.00  0.00    +0.000 C 
ATOM     10  O   UNL     1      48.928   6.144  19.644  0.00  0.00    +0.000 OA
ATOM     11  N   UNL     1      50.676   4.813  18.980  0.00  0.00    +0.000 N 
ATOM     12  C   UNL     1      51.324   3.780  18.184  0.00  0.00    +0.000 C 
ATOM     13  C   UNL     1      51.413   5.191  20.185  0.00  0.00    +0.000 C 
ENDBRANCH   5   9
BRANCH   1  15
ATOM     14  C   UNL     1      45.992   6.358  13.568  0.00  0.00    +0.000 C 
ATOM     15  C   UNL     1      46.465   4.963  13.141  0.00  0.00    +0.000 C 
BRANCH  15  16
ATOM     16  C   UNL     1      45.637   4.451  11.965  0.00  0.00    +0.000 A 
ATOM     17  C   UNL     1      45.614   5.184  10.765  0.00  0.00    +0.000 A 
ATOM     18  C   UNL     1      44.818   4.778   9.691  0.00  0.00    +0.000 A 
ATOM     19  C   UNL     1      44.037   3.629   9.799  0.00  0.00    +0.000 A 
ATOM     20  C   UNL     1      44.062   2.880  10.974  0.00  0.00    +0.000 A 
ATOM     21  C   UNL     1      44.861   3.285  12.049  0.00  0.00    +0.000 A 
ENDBRANCH  15  16
ENDBRANCH   1  15
TORSDOF 3
ENDMDL
MODEL 7
REMARK VINA RESULT:    -5.106      2.208      7.835
REMARK INTER + INTRA:          -6.435
REMARK INTER:                  -6.249
REMARK INTRA:                  -0.186
REMARK UNBOUND:                -0.433
REMARK  Name = 
REMARK  6 active torsions:
REMARK  status: ('A' for Active; 'I' for Inactive)
REMARK    1  A    between atoms: C_1  and  C_2
REMARK    2  A    between atoms: C_2  and  N_3
REMARK    3  A    between atoms: C_2  and  C_15
REMARK    4  A    between atoms: C_7  and  C_8
REMARK    5  A    between atoms: N_10  and  C_11
REMARK    6  A    between atoms: N_10  and  C_12
REMARK                            x       y       z     vdW  Elec       q    Type
REMARK                         _______ _______ _______ _____ _____    ______ ____
ROOT
ATOM      1  N   UNL     1      48.201   4.590  16.612  0.00  0.00    +0.000 N 
ATOM      2  C   UNL     1      47.608   4.673  15.353  0.00  0.00    +0.000 A 
ATOM      3  N   UNL     1      47.232   3.523  14.773  0.00  0.00    +0.000 NA
ATOM      4  C   UNL     1      46.610   3.595  13.564  0.00  0.00    +0.000 A 
ATOM      5  C   UNL     1      46.340   4.768  12.910  0.00  0.00    +0.000 A 
ATOM      6  C   UNL     1      46.710   5.891  13.618  0.00  0.00    +0.000 A 
ATOM      7  N   UNL     1      47.353   5.870  14.810  0.00  0.00    +0.000 NA
ATOM      8  H   UNL     1      47.426   4.466  17.255  0.00  0.00    +0.000 HD
ENDROOT
BRANCH   5   9
ATOM      9  C   UNL     1      45.585   4.948  11.653  0.00  0.00    +0.000 C 
ATOM     10  O   UNL     1      46.075   5.770  10.870  0.00  0.00    +0.000 OA
ATOM     11  N   UNL     1      44.423   4.245  11.331  0.00  0.00    +0.000 N 
ATOM     12  C   UNL     1      43.795   3.156  12.067  0.00  0.00    +0.000 C 
ATOM     13  C   UNL     1      43.829   4.502  10.020  0.00  0.00    +0.000 C 
ENDBRANCH   5   9
BRANCH   1  15
ATOM     14  C   UNL     1      50.475   5.268  17.196  0.00  0.00    +0.000 C 
ATOM     15  C   UNL     1      49.029   5.736  16.992  0.00  0.00    +0.000 C 
BRANCH  15  16
ATOM     16  C   UNL     1      48.489   6.386  18.263  0.00  0.00    +0.000 A 
ATOM     17  C   UNL     1      48.180   5.580  19.373  0.00  0.00    +0.000 A 
ATOM     18  C   UNL     1      47.625   6.133  20.530  0.00  0.00    +0.000 A 
ATOM     19  C   UNL     1      47.376   7.503  20.596  0.00  0.00    +0.000 A 
ATOM     20  C   UNL     1      47.694   8.319  19.512  0.00  0.00    +0.000 A 
ATOM     21  C   UNL     1      48.252   7.766  18.355  0.00  0.00    +0.000 A 
ENDBRANCH  15  16
ENDBRANCH   1  15
TORSDOF 3
ENDMDL
MODEL 8
REMARK VINA RESULT:    -4.949      2.866      7.676
REMARK INTER + INTRA:          -6.250
REMARK INTER:                  -5.970
REMARK INTRA:                  -0.280
REMARK UNBOUND:                -0.433
REMARK  Name = 
REMARK  6 active torsions:
REMARK  status: ('A' for Active; 'I' for Inactive)
REMARK    1  A    between atoms: C_1  and  C_2
REMARK    2  A    between atoms: C_2  and  N_3
REMARK    3  A    between atoms: C_2  and  C_15
REMARK    4  A    between atoms: C_7  and  C_8
REMARK    5  A    between atoms: N_10  and  C_11
REMARK    6  A    between atoms: N_10  and  C_12
REMARK                            x       y       z     vdW  Elec       q    Type
REMARK                         _______ _______ _______ _____ _____    ______ ____
ROOT
ATOM      1  N   UNL     1      49.205   8.059  13.372  0.00  0.00    +0.000 N 
ATOM      2  C   UNL     1      48.214   7.099  13.172  0.00  0.00    +0.000 A 
ATOM      3  N   UNL     1      47.565   7.120  11.998  0.00  0.00    +0.000 NA
ATOM      4  C   UNL     1      46.627   6.160  11.772  0.00  0.00    +0.000 A 
ATOM      5  C   UNL     1      46.311   5.172  12.669  0.00  0.00    +0.000 A 
ATOM      6  C   UNL     1      47.077   5.204  13.814  0.00  0.00    +0.000 A 
ATOM      7  N   UNL     1      48.002   6.152  14.094  0.00  0.00    +0.000 NA
ATOM      8  H   UNL     1      50.012   7.705  12.869  0.00  0.00    +0.000 HD
ENDROOT
BRANCH   5   9
ATOM      9  C   UNL     1      45.387   4.037  12.472  0.00  0.00    +0.000 C 
ATOM     10  O   UNL     1      45.813   2.950  12.880  0.00  0.00    +0.000 OA
ATOM     11  N   UNL     1      44.119   4.149  11.900  0.00  0.00    +0.000 N 
ATOM     12  C   UNL     1      43.416   5.359  11.498  0.00  0.00    +0.000 C 
ATOM     13  C   UNL     1      43.308   2.934  11.831  0.00  0.00    +0.000 C 
ENDBRANCH   5   9
BRANCH   1  15
ATOM     14  C   UNL     1      49.367   9.840  15.036  0.00  0.00    +0.000 C 
ATOM     15  C   UNL     1      49.533   8.340  14.771  0.00  0.00    +0.000 C 
BRANCH  15  16
ATOM     16  C   UNL     1      50.958   7.891  15.085  0.00  0.00    +0.000 A 
ATOM     17  C   UNL     1      52.026   8.405  14.329  0.00  0.00    +0.000 A 
ATOM     18  C   UNL     1      53.335   7.969  14.547  0.00  0.00    +0.000 A 
ATOM     19  C   UNL     1      53.597   7.016  15.531  0.00  0.00    +0.000 A 
ATOM     20  C   UNL     1      52.553   6.511  16.303  0.00  0.00    +0.000 A 
ATOM     21  C   UNL     1      51.242   6.949  16.086  0.00  0.00    +0.000 A 
ENDBRANCH  15  16
ENDBRANCH   1  15
TORSDOF 3
ENDMDL
MODEL 9
REMARK VINA RESULT:    -4.880      2.419      4.039
REMARK INTER + INTRA:          -6.169
REMARK INTER:                  -5.629
REMARK INTRA:                  -0.540
REMARK UNBOUND:                -0.433
REMARK  Name = 
REMARK  6 active torsions:
REMARK  status: ('A' for Active; 'I' for Inactive)
REMARK    1  A    between atoms: C_1  and  C_2
REMARK    2  A    between atoms: C_2  and  N_3
REMARK    3  A    between atoms: C_2  and  C_15
REMARK    4  A    between atoms: C_7  and  C_8
REMARK    5  A    between atoms: N_10  and  C_11
REMARK    6  A    between atoms: N_10  and  C_12
REMARK                            x       y       z     vdW  Elec       q    Type
REMARK                         _______ _______ _______ _____ _____    ______ ____
ROOT
ATOM      1  N   UNL     1      48.004   7.202  14.664  0.00  0.00    +0.000 N 
ATOM      2  C   UNL     1      48.611   6.764  15.841  0.00  0.00    +0.000 A 
ATOM      3  N   UNL     1      48.792   7.670  16.813  0.00  0.00    +0.000 NA
ATOM      4  C   UNL     1      49.341   7.244  17.984  0.00  0.00    +0.000 A 
ATOM      5  C   UNL     1      49.713   5.948  18.229  0.00  0.00    +0.000 A 
ATOM      6  C   UNL     1      49.427   5.088  17.191  0.00  0.00    +0.000 A 
ATOM      7  N   UNL     1      48.905   5.467  16.000  0.00  0.00    +0.000 NA
ATOM      8  H   UNL     1      47.014   7.234  14.881  0.00  0.00    +0.000 HD
ENDROOT
BRANCH   5   9
ATOM      9  C   UNL     1      50.218   5.378  19.495  0.00  0.00    +0.000 C 
ATOM     10  O   UNL     1      49.343   4.915  20.237  0.00  0.00    +0.000 OA
ATOM     11  N   UNL     1      51.567   5.325  19.846  0.00  0.00    +0.000 N 
ATOM     12  C   UNL     1      52.723   5.692  19.040  0.00  0.00    +0.000 C 
ATOM     13  C   UNL     1      51.903   4.675  21.112  0.00  0.00    +0.000 C 
ENDBRANCH   5   9
BRANCH   1  15
ATOM     14  C   UNL     1      49.132   7.170  12.496  0.00  0.00    +0.000 C 
ATOM     15  C   UNL     1      48.263   6.378  13.481  0.00  0.00    +0.000 C 
BRANCH  15  16
ATOM     16  C   UNL     1      46.949   5.960  12.825  0.00  0.00    +0.000 A 
ATOM     17  C   UNL     1      46.081   5.092  13.511  0.00  0.00    +0.000 A 
ATOM     18  C   UNL     1      44.901   4.639  12.915  0.00  0.00    +0.000 A 
ATOM     19  C   UNL     1      44.569   5.052  11.625  0.00  0.00    +0.000 A 
ATOM     20  C   UNL     1      45.410   5.927  10.939  0.00  0.00    +0.000 A 
ATOM     21  C   UNL     1      46.590   6.383  11.536  0.00  0.00    +0.000 A 
ENDBRANCH  15  16
ENDBRANCH   1  15
TORSDOF 3
ENDMDL
