MODEL 1
REMARK VINA RESULT:    -8.308      0.000      0.000
REMARK INTER + INTRA:         -11.402
REMARK INTER:                 -10.737
REMARK INTRA:                  -0.665
REMARK UNBOUND:                -0.665
REMARK  Name = 
REMARK  5 active torsions:
REMARK  status: ('A' for Active; 'I' for Inactive)
REMARK    1  A    between atoms: C_2  and  C_4
REMARK    2  A    between atoms: C_7  and  O_8
REMARK    3  A    between atoms: O_8  and  C_9
REMARK    4  A    between atoms: C_9  and  C_10
REMARK    5  A    between atoms: C_16  and  C_17
REMARK                            x       y       z     vdW  Elec       q    Type
REMARK                         _______ _______ _______ _____ _____    ______ ____
ROOT
ATOM      1  C   UNL     1      45.980   5.803  12.106  0.00  0.00    +0.000 A 
ATOM      2  C   UNL     1      45.673   4.553  12.695  0.00  0.00    +0.000 A 
ATOM      3  C   UNL     1      46.243   4.149  13.893  0.00  0.00    +0.000 A 
ATOM      4  C   UNL     1      47.186   4.961  14.498  0.00  0.00    +0.000 A 
ATOM      5  C   UNL     1      47.523   6.200  13.934  0.00  0.00    +0.000 A 
ATOM      6 BR   UNL     1      48.992   7.078  14.798  0.00  0.00    +0.000 Br
ATOM      7  C   UNL     1      46.880   6.705  12.765  0.00  0.00    +0.000 A 
ENDROOT
BRANCH   7   8
ATOM      8  C   UNL     1      47.086   8.127  12.310  0.00  0.00    +0.000 A 
ATOM      9  C   UNL     1      48.357   8.567  11.871  0.00  0.00    +0.000 A 
ATOM     10  C   UNL     1      48.594   9.876  11.425  0.00  0.00    +0.000 A 
ATOM     11  C   UNL     1      47.582  10.821  11.495  0.00  0.00    +0.000 A 
ATOM     12  C   UNL     1      46.339  10.430  11.962  0.00  0.00    +0.000 A 
ATOM     13  F   UNL     1      45.364  11.342  12.082  0.00  0.00    +0.000 F 
ATOM     14  C   UNL     1      46.077   9.104  12.321  0.00  0.00    +0.000 A 
ENDBRANCH   7   8
BRANCH   1  15
ATOM     15  C   UNL     1      45.362   6.114  10.748  0.00  0.00    +0.000 C 
BRANCH  15  16
ATOM     16  O   UNL     1      44.526   5.062  10.244  0.00  0.00    +0.000 OA
BRANCH  16  20
ATOM     17  C   UNL     1      46.529   2.509   7.617  0.00  0.00    +0.000 A 
ATOM     18  C   UNL     1      45.696   1.943   8.589  0.00  0.00    +0.000 A 
ATOM     19  C   UNL     1      44.993   2.767   9.478  0.00  0.00    +0.000 A 
ATOM     20  C   UNL     1      45.121   4.156   9.405  0.00  0.00    +0.000 A 
ATOM     21  C   UNL     1      45.941   4.717   8.423  0.00  0.00    +0.000 A 
ATOM     22  C   UNL     1      46.649   3.900   7.536  0.00  0.00    +0.000 A 
BRANCH  17  24
ATOM     23  N   UNL     1      48.357   2.288   6.018  0.00  0.00    +0.000 N 
ATOM     24  C   UNL     1      47.330   1.676   6.681  0.00  0.00    +0.000 C 
ATOM     25  O   UNL     1      47.103   0.483   6.527  0.00  0.00    +0.000 OA
ATOM     26  H   UNL     1      48.951   1.687   5.461  0.00  0.00    +0.000 HD
ATOM     27  H   UNL     1      48.721   3.189   6.291  0.00  0.00    +0.000 HD
ENDBRANCH  17  24
ENDBRANCH  16  20
ENDBRANCH  15  16
ENDBRANCH   1  15
TORSDOF 5
ENDMDL
MODEL 2
REMARK VINA RESULT:    -7.114      4.355      6.721
REMARK INTER + INTRA:          -9.858
REMARK INTER:                  -8.545
REMARK INTRA:                  -1.313
REMARK UNBOUND:                -0.665
REMARK  Name = 
REMARK  5 active torsions:
REMARK  status: ('A' for Active; 'I' for Inactive)
REMARK    1  A    between atoms: C_2  and  C_4
REMARK    2  A    between atoms: C_7  and  O_8
REMARK    3  A    between atoms: O_8  and  C_9
REMARK    4  A    between atoms: C_9  and  C_10
REMARK    5  A    between atoms: C_16  and  C_17
REMARK                            x       y       z     vdW  Elec       q    Type
REMARK                         _______ _______ _______ _____ _____    ______ ____
ROOT
ATOM      1  C   UNL     1      48.648   7.226  15.996  0.00  0.00    +0.000 A 
ATOM      2  C   UNL     1      48.441   8.620  16.132  0.00  0.00    +0.000 A 
ATOM      3  C   UNL     1      48.199   9.206  17.366  0.00  0.00    +0.000 A 
ATOM      4  C   UNL     1      48.094   8.400  18.486  0.00  0.00    +0.000 A 
ATOM      5  C   UNL     1      48.280   7.014  18.383  0.00  0.00    +0.000 A 
ATOM      6 BR   UNL     1      47.888   6.051  19.994  0.00  0.00    +0.000 Br
ATOM      7  C   UNL     1      48.642   6.382  17.156  0.00  0.00    +0.000 A 
ENDROOT
BRANCH   7   8
ATOM      8  C   UNL     1      49.063   4.936  17.113  0.00  0.00    +0.000 A 
ATOM      9  C   UNL     1      48.129   3.922  16.793  0.00  0.00    +0.000 A 
ATOM     10  C   UNL     1      48.478   2.564  16.728  0.00  0.00    +0.000 A 
ATOM     11  C   UNL     1      49.759   2.164  17.076  0.00  0.00    +0.000 A 
ATOM     12  C   UNL     1      50.681   3.131  17.436  0.00  0.00    +0.000 A 
ATOM     13  F   UNL     1      51.909   2.756  17.822  0.00  0.00    +0.000 F 
ATOM     14  C   UNL     1      50.361   4.491  17.414  0.00  0.00    +0.000 A 
ENDBRANCH   7   8
BRANCH   1  15
ATOM     15  C   UNL     1      48.823   6.674  14.586  0.00  0.00    +0.000 C 
BRANCH  15  16
ATOM     16  O   UNL     1      47.894   7.217  13.637  0.00  0.00    +0.000 OA
BRANCH  16  20
ATOM     17  C   UNL     1      45.313   4.361  12.021  0.00  0.00    +0.000 A 
ATOM     18  C   UNL     1      45.478   5.571  11.338  0.00  0.00    +0.000 A 
ATOM     19  C   UNL     1      46.350   6.548  11.838  0.00  0.00    +0.000 A 
ATOM     20  C   UNL     1      47.054   6.325  13.024  0.00  0.00    +0.000 A 
ATOM     21  C   UNL     1      46.898   5.111  13.694  0.00  0.00    +0.000 A 
ATOM     22  C   UNL     1      46.027   4.133  13.203  0.00  0.00    +0.000 A 
BRANCH  17  24
ATOM     23  N   UNL     1      43.816   2.497  12.504  0.00  0.00    +0.000 N 
ATOM     24  C   UNL     1      44.367   3.312  11.555  0.00  0.00    +0.000 C 
ATOM     25  O   UNL     1      44.067   3.197  10.375  0.00  0.00    +0.000 OA
ATOM     26  H   UNL     1      43.102   1.855  12.182  0.00  0.00    +0.000 HD
ATOM     27  H   UNL     1      43.849   2.710  13.491  0.00  0.00    +0.000 HD
ENDBRANCH  17  24
ENDBRANCH  16  20
ENDBRANCH  15  16
ENDBRANCH   1  15
TORSDOF 5
ENDMDL
MODEL 3
REMARK VINA RESULT:    -7.104      4.369      6.162
REMARK INTER + INTRA:          -9.846
REMARK INTER:                  -8.792
REMARK INTRA:                  -1.054
REMARK UNBOUND:                -0.665
REMARK  Name = 
REMARK  5 active torsions:
REMARK  status: ('A' for Active; 'I' for Inactive)
REMARK    1  A    between atoms: C_2  and  C_4
REMARK    2  A    between atoms: C_7  and  O_8
REMARK    3  A    between atoms: O_8  and  C_9
REMARK    4  A    between atoms: C_9  and  C_10
REMARK    5  A    between atoms: C_16  and  C_17
REMARK                            x       y       z     vdW  Elec       q    Type
REMARK                         _______ _______ _______ _____ _____    ______ ____
ROOT
ATOM      1  C   UNL     1      48.818   3.481  16.663  0.00  0.00    +0.000 A 
ATOM      2  C   UNL     1      49.331   2.161  16.643  0.00  0.00    +0.000 A 
ATOM      3  C   UNL     1      50.562   1.846  17.200  0.00  0.00    +0.000 A 
ATOM      4  C   UNL     1      51.339   2.859  17.734  0.00  0.00    +0.000 A 
ATOM      5  C   UNL     1      50.866   4.179  17.758  0.00  0.00    +0.000 A 
ATOM      6 BR   UNL     1      52.165   5.463  18.341  0.00  0.00    +0.000 Br
ATOM      7  C   UNL     1      49.562   4.529  17.300  0.00  0.00    +0.000 A 
ENDROOT
BRANCH   7   8
ATOM      8  C   UNL     1      48.987   5.900  17.547  0.00  0.00    +0.000 A 
ATOM      9  C   UNL     1      49.202   6.950  16.623  0.00  0.00    +0.000 A 
ATOM     10  C   UNL     1      48.676   8.239  16.803  0.00  0.00    +0.000 A 
ATOM     11  C   UNL     1      47.992   8.547  17.969  0.00  0.00    +0.000 A 
ATOM     12  C   UNL     1      47.803   7.551  18.911  0.00  0.00    +0.000 A 
ATOM     13  F   UNL     1      47.186   7.844  20.064  0.00  0.00    +0.000 F 
ATOM     14  C   UNL     1      48.248   6.243  18.692  0.00  0.00    +0.000 A 
ENDBRANCH   7   8
BRANCH   1  15
ATOM     15  C   UNL     1      47.495   3.734  15.952  0.00  0.00    +0.000 C 
BRANCH  15  16
ATOM     16  O   UNL     1      47.488   3.305  14.583  0.00  0.00    +0.000 OA
BRANCH  16  20
ATOM     17  C   UNL     1      44.789   5.117  11.963  0.00  0.00    +0.000 A 
ATOM     18  C   UNL     1      45.571   5.936  12.784  0.00  0.00    +0.000 A 
ATOM     19  C   UNL     1      46.502   5.367  13.664  0.00  0.00    +0.000 A 
ATOM     20  C   UNL     1      46.651   3.980  13.733  0.00  0.00    +0.000 A 
ATOM     21  C   UNL     1      45.879   3.167  12.901  0.00  0.00    +0.000 A 
ATOM     22  C   UNL     1      44.946   3.728  12.024  0.00  0.00    +0.000 A 
BRANCH  17  24
ATOM     23  N   UNL     1      43.316   6.940  11.290  0.00  0.00    +0.000 N 
ATOM     24  C   UNL     1      43.757   5.670  11.046  0.00  0.00    +0.000 C 
ATOM     25  O   UNL     1      43.337   5.030  10.091  0.00  0.00    +0.000 OA
ATOM     26  H   UNL     1      42.689   7.336  10.601  0.00  0.00    +0.000 HD
ATOM     27  H   UNL     1      43.801   7.576  11.907  0.00  0.00    +0.000 HD
ENDBRANCH  17  24
ENDBRANCH  16  20
ENDBRANCH  15  16
ENDBRANCH   1  15
TORSDOF 5
ENDMDL
MODEL 4
REMARK VINA RESULT:    -7.048      4.507      7.100
REMARK INTER + INTRA:          -9.773
REMARK INTER:                  -8.230
REMARK INTRA:                  -1.543
REMARK UNBOUND:                -0.665
REMARK  Name = 
REMARK  5 active torsions:
REMARK  status: ('A' for Active; 'I' for Inactive)
REMARK    1  A    between atoms: C_2  and  C_4
REMARK    2  A    between atoms: C_7  and  O_8
REMARK    3  A    between atoms: O_8  and  C_9
REMARK    4  A    between atoms: C_9  and  C_10
REMARK    5  A    between atoms: C_16  and  C_17
REMARK                            x       y       z     vdW  Elec       q    Type
REMARK                         _______ _______ _______ _____ _____    ______ ____
ROOT
ATOM      1  C   UNL     1      47.049   8.456  12.010  0.00  0.00    +0.000 A 
ATOM      2  C   UNL     1      47.465   9.795  12.201  0.00  0.00    +0.000 A 
ATOM      3  C   UNL     1      46.583  10.859  12.081  0.00  0.00    +0.000 A 
ATOM      4  C   UNL     1      45.275  10.611  11.702  0.00  0.00    +0.000 A 
ATOM      5  C   UNL     1      44.834   9.297  11.493  0.00  0.00    +0.000 A 
ATOM      6 BR   UNL     1      43.061   9.173  10.775  0.00  0.00    +0.000 Br
ATOM      7  C   UNL     1      45.675   8.166  11.715  0.00  0.00    +0.000 A 
ENDROOT
BRANCH   7   8
ATOM      8  C   UNL     1      45.121   6.765  11.712  0.00  0.00    +0.000 A 
ATOM      9  C   UNL     1      45.368   5.894  10.624  0.00  0.00    +0.000 A 
ATOM     10  C   UNL     1      44.886   4.577  10.583  0.00  0.00    +0.000 A 
ATOM     11  C   UNL     1      44.053   4.116  11.591  0.00  0.00    +0.000 A 
ATOM     12  C   UNL     1      43.758   4.961  12.647  0.00  0.00    +0.000 A 
ATOM     13  F   UNL     1      42.917   4.548  13.605  0.00  0.00    +0.000 F 
ATOM     14  C   UNL     1      44.312   6.242  12.734  0.00  0.00    +0.000 A 
ENDBRANCH   7   8
BRANCH   1  15
ATOM     15  C   UNL     1      48.114   7.369  12.085  0.00  0.00    +0.000 C 
BRANCH  15  16
ATOM     16  O   UNL     1      48.827   7.348  13.330  0.00  0.00    +0.000 OA
BRANCH  16  20
ATOM     17  C   UNL     1      47.625   4.759  16.377  0.00  0.00    +0.000 A 
ATOM     18  C   UNL     1      47.106   4.561  15.092  0.00  0.00    +0.000 A 
ATOM     19  C   UNL     1      47.499   5.397  14.039  0.00  0.00    +0.000 A 
ATOM     20  C   UNL     1      48.404   6.437  14.262  0.00  0.00    +0.000 A 
ATOM     21  C   UNL     1      48.931   6.622  15.542  0.00  0.00    +0.000 A 
ATOM     22  C   UNL     1      48.540   5.793  16.599  0.00  0.00    +0.000 A 
BRANCH  17  24
ATOM     23  N   UNL     1      47.541   4.374  18.783  0.00  0.00    +0.000 N 
ATOM     24  C   UNL     1      47.206   3.927  17.536  0.00  0.00    +0.000 C 
ATOM     25  O   UNL     1      46.560   2.898  17.388  0.00  0.00    +0.000 OA
ATOM     26  H   UNL     1      47.164   3.849  19.563  0.00  0.00    +0.000 HD
ATOM     27  H   UNL     1      47.854   5.318  18.958  0.00  0.00    +0.000 HD
ENDBRANCH  17  24
ENDBRANCH  16  20
ENDBRANCH  15  16
ENDBRANCH   1  15
TORSDOF 5
ENDMDL
MODEL 5
REMARK VINA RESULT:    -6.658      4.782      6.969
REMARK INTER + INTRA:          -9.269
REMARK INTER:                  -7.944
REMARK INTRA:                  -1.325
REMARK UNBOUND:                -0.665
REMARK  Name = 
REMARK  5 active torsions:
REMARK  status: ('A' for Active; 'I' for Inactive)
REMARK    1  A    between atoms: C_2  and  C_4
REMARK    2  A    between atoms: C_7  and  O_8
REMARK    3  A    between atoms: O_8  and  C_9
REMARK    4  A    between atoms: C_9  and  C_10
REMARK    5  A    between atoms: C_16  and  C_17
REMARK                            x       y       z     vdW  Elec       q    Type
REMARK                         _______ _______ _______ _____ _____    ______ ____
ROOT
ATOM      1  C   UNL     1      45.715   4.836  12.769  0.00  0.00    +0.000 A 
ATOM      2  C   UNL     1      44.591   4.067  12.380  0.00  0.00    +0.000 A 
ATOM      3  C   UNL     1      43.552   4.612  11.641  0.00  0.00    +0.000 A 
ATOM      4  C   UNL     1      43.582   5.960  11.327  0.00  0.00    +0.000 A 
ATOM      5  C   UNL     1      44.675   6.753  11.709  0.00  0.00    +0.000 A 
ATOM      6 BR   UNL     1      44.436   8.625  11.371  0.00  0.00    +0.000 Br
ATOM      7  C   UNL     1      45.816   6.210  12.370  0.00  0.00    +0.000 A 
ENDROOT
BRANCH   7   8
ATOM      8  C   UNL     1      47.070   7.023  12.562  0.00  0.00    +0.000 A 
ATOM      9  C   UNL     1      48.098   7.004  11.589  0.00  0.00    +0.000 A 
ATOM     10  C   UNL     1      49.277   7.754  11.716  0.00  0.00    +0.000 A 
ATOM     11  C   UNL     1      49.511   8.477  12.876  0.00  0.00    +0.000 A 
ATOM     12  C   UNL     1      48.543   8.478  13.865  0.00  0.00    +0.000 A 
ATOM     13  F   UNL     1      48.774   9.134  15.011  0.00  0.00    +0.000 F 
ATOM     14  C   UNL     1      47.328   7.806  13.699  0.00  0.00    +0.000 A 
ENDBRANCH   7   8
BRANCH   1  15
ATOM     15  C   UNL     1      46.760   4.162  13.649  0.00  0.00    +0.000 C 
BRANCH  15  16
ATOM     16  O   UNL     1      46.464   4.235  15.051  0.00  0.00    +0.000 OA
BRANCH  16  20
ATOM     17  C   UNL     1      49.766   4.196  17.606  0.00  0.00    +0.000 A 
ATOM     18  C   UNL     1      49.371   5.417  17.047  0.00  0.00    +0.000 A 
ATOM     19  C   UNL     1      48.258   5.475  16.199  0.00  0.00    +0.000 A 
ATOM     20  C   UNL     1      47.536   4.316  15.900  0.00  0.00    +0.000 A 
ATOM     21  C   UNL     1      47.924   3.103  16.472  0.00  0.00    +0.000 A 
ATOM     22  C   UNL     1      49.037   3.038  17.316  0.00  0.00    +0.000 A 
BRANCH  17  24
ATOM     23  N   UNL     1      50.809   4.354  19.804  0.00  0.00    +0.000 N 
ATOM     24  C   UNL     1      50.966   4.075  18.475  0.00  0.00    +0.000 C 
ATOM     25  O   UNL     1      52.047   3.712  18.031  0.00  0.00    +0.000 OA
ATOM     26  H   UNL     1      51.610   4.173  20.397  0.00  0.00    +0.000 HD
ATOM     27  H   UNL     1      49.903   4.421  20.244  0.00  0.00    +0.000 HD
ENDBRANCH  17  24
ENDBRANCH  16  20
ENDBRANCH  15  16
ENDBRANCH   1  15
TORSDOF 5
ENDMDL
MODEL 6
REMARK VINA RESULT:    -6.447      4.603      6.908
REMARK INTER + INTRA:          -8.996
REMARK INTER:                  -7.531
REMARK INTRA:                  -1.465
REMARK UNBOUND:                -0.665
REMARK  Name = 
REMARK  5 active torsions:
REMARK  status: ('A' for Active; 'I' for Inactive)
REMARK    1  A    between atoms: C_2  and  C_4
REMARK    2  A    between atoms: C_7  and  O_8
REMARK    3  A    between atoms: O_8  and  C_9
REMARK    4  A    between atoms: C_9  and  C_10
REMARK    5  A    between atoms: C_16  and  C_17
REMARK                            x       y       z     vdW  Elec       q    Type
REMARK                         _______ _______ _______ _____ _____    ______ ____
ROOT
ATOM      1  C   UNL     1      50.599   7.087  15.560  0.00  0.00    +0.000 A 
ATOM      2  C   UNL     1      51.784   7.729  15.127  0.00  0.00    +0.000 A 
ATOM      3  C   UNL     1      52.978   7.606  15.822  0.00  0.00    +0.000 A 
ATOM      4  C   UNL     1      52.998   6.889  17.006  0.00  0.00    +0.000 A 
ATOM      5  C   UNL     1      51.837   6.252  17.470  0.00  0.00    +0.000 A 
ATOM      6 BR   UNL     1      52.011   5.492  19.221  0.00  0.00    +0.000 Br
ATOM      7  C   UNL     1      50.618   6.257  16.730  0.00  0.00    +0.000 A 
ENDROOT
BRANCH   7   8
ATOM      8  C   UNL     1      49.458   5.380  17.125  0.00  0.00    +0.000 A 
ATOM      9  C   UNL     1      49.425   4.016  16.749  0.00  0.00    +0.000 A 
ATOM     10  C   UNL     1      48.373   3.157  17.105  0.00  0.00    +0.000 A 
ATOM     11  C   UNL     1      47.267   3.662  17.770  0.00  0.00    +0.000 A 
ATOM     12  C   UNL     1      47.252   5.003  18.112  0.00  0.00    +0.000 A 
ATOM     13  F   UNL     1      46.169   5.517  18.713  0.00  0.00    +0.000 F 
ATOM     14  C   UNL     1      48.339   5.839  17.839  0.00  0.00    +0.000 A 
ENDBRANCH   7   8
BRANCH   1  15
ATOM     15  C   UNL     1      49.323   7.354  14.769  0.00  0.00    +0.000 C 
BRANCH  15  16
ATOM     16  O   UNL     1      49.059   6.372  13.758  0.00  0.00    +0.000 OA
BRANCH  16  20
ATOM     17  C   UNL     1      45.067   5.750  12.703  0.00  0.00    +0.000 A 
ATOM     18  C   UNL     1      45.677   4.836  13.570  0.00  0.00    +0.000 A 
ATOM     19  C   UNL     1      47.009   5.019  13.962  0.00  0.00    +0.000 A 
ATOM     20  C   UNL     1      47.741   6.111  13.487  0.00  0.00    +0.000 A 
ATOM     21  C   UNL     1      47.125   7.029  12.635  0.00  0.00    +0.000 A 
ATOM     22  C   UNL     1      45.796   6.849  12.236  0.00  0.00    +0.000 A 
BRANCH  17  24
ATOM     23  N   UNL     1      42.699   5.403  13.169  0.00  0.00    +0.000 N 
ATOM     24  C   UNL     1      43.671   5.575  12.223  0.00  0.00    +0.000 C 
ATOM     25  O   UNL     1      43.392   5.611  11.032  0.00  0.00    +0.000 OA
ATOM     26  H   UNL     1      41.745   5.383  12.831  0.00  0.00    +0.000 HD
ATOM     27  H   UNL     1      42.849   5.604  14.146  0.00  0.00    +0.000 HD
ENDBRANCH  17  24
ENDBRANCH  16  20
ENDBRANCH  15  16
ENDBRANCH   1  15
TORSDOF 5
ENDMDL
MODEL 7
REMARK VINA RESULT:    -6.329      5.133      7.660
REMARK INTER + INTRA:          -8.844
REMARK INTER:                  -7.411
REMARK INTRA:                  -1.433
REMARK UNBOUND:                -0.665
REMARK  Name = 
REMARK  5 active torsions:
REMARK  status: ('A' for Active; 'I' for Inactive)
REMARK    1  A    between atoms: C_2  and  C_4
REMARK    2  A    between atoms: C_7  and  O_8
REMARK    3  A    between atoms: O_8  and  C_9
REMARK    4  A    between atoms: C_9  and  C_10
REMARK    5  A    between atoms: C_16  and  C_17
REMARK                            x       y       z     vdW  Elec       q    Type
REMARK                         _______ _______ _______ _____ _____    ______ ____
ROOT
ATOM      1  C   UNL     1      46.291   4.809  13.507  0.00  0.00    +0.000 A 
ATOM      2  C   UNL     1      45.044   4.277  13.098  0.00  0.00    +0.000 A 
ATOM      3  C   UNL     1      44.074   5.067  12.499  0.00  0.00    +0.000 A 
ATOM      4  C   UNL     1      44.305   6.424  12.353  0.00  0.00    +0.000 A 
ATOM      5  C   UNL     1      45.524   6.984  12.759  0.00  0.00    +0.000 A 
ATOM      6 BR   UNL     1      45.572   8.899  12.671  0.00  0.00    +0.000 Br
ATOM      7  C   UNL     1      46.592   6.192  13.276  0.00  0.00    +0.000 A 
ENDROOT
BRANCH   7   8
ATOM      8  C   UNL     1      47.967   6.772  13.486  0.00  0.00    +0.000 A 
ATOM      9  C   UNL     1      48.419   7.103  14.786  0.00  0.00    +0.000 A 
ATOM     10  C   UNL     1      49.695   7.632  15.034  0.00  0.00    +0.000 A 
ATOM     11  C   UNL     1      50.531   7.938  13.971  0.00  0.00    +0.000 A 
ATOM     12  C   UNL     1      50.098   7.666  12.685  0.00  0.00    +0.000 A 
ATOM     13  F   UNL     1      50.875   8.001  11.645  0.00  0.00    +0.000 F 
ATOM     14  C   UNL     1      48.864   7.055  12.444  0.00  0.00    +0.000 A 
ENDBRANCH   7   8
BRANCH   1  15
ATOM     15  C   UNL     1      47.253   3.873  14.229  0.00  0.00    +0.000 C 
BRANCH  15  16
ATOM     16  O   UNL     1      46.843   3.547  15.565  0.00  0.00    +0.000 OA
BRANCH  16  20
ATOM     17  C   UNL     1      49.281   4.679  18.760  0.00  0.00    +0.000 A 
ATOM     18  C   UNL     1      49.707   3.630  17.937  0.00  0.00    +0.000 A 
ATOM     19  C   UNL     1      48.926   3.232  16.844  0.00  0.00    +0.000 A 
ATOM     20  C   UNL     1      47.715   3.874  16.570  0.00  0.00    +0.000 A 
ATOM     21  C   UNL     1      47.302   4.930  17.384  0.00  0.00    +0.000 A 
ATOM     22  C   UNL     1      48.075   5.329  18.479  0.00  0.00    +0.000 A 
BRANCH  17  24
ATOM     23  N   UNL     1      51.143   4.361  20.301  0.00  0.00    +0.000 N 
ATOM     24  C   UNL     1      50.052   5.108  19.956  0.00  0.00    +0.000 C 
ATOM     25  O   UNL     1      49.745   6.106  20.594  0.00  0.00    +0.000 OA
ATOM     26  H   UNL     1      51.712   4.722  21.057  0.00  0.00    +0.000 HD
ATOM     27  H   UNL     1      51.562   3.688  19.676  0.00  0.00    +0.000 HD
ENDBRANCH  17  24
ENDBRANCH  16  20
ENDBRANCH  15  16
ENDBRANCH   1  15
TORSDOF 5
ENDMDL
MODEL 8
REMARK VINA RESULT:    -6.245      4.931      7.926
REMARK INTER + INTRA:          -8.736
REMARK INTER:                  -8.034
REMARK INTRA:                  -0.701
REMARK UNBOUND:                -0.665
REMARK  Name = 
REMARK  5 active torsions:
REMARK  status: ('A' for Active; 'I' for Inactive)
REMARK    1  A    between atoms: C_2  and  C_4
REMARK    2  A    between atoms: C_7  and  O_8
REMARK    3  A    between atoms: O_8  and  C_9
REMARK    4  A    between atoms: C_9  and  C_10
REMARK    5  A    between atoms: C_16  and  C_17
REMARK                            x       y       z     vdW  Elec       q    Type
REMARK                         _______ _______ _______ _____ _____    ______ ____
ROOT
ATOM      1  C   UNL     1      47.140   6.689  13.389  0.00  0.00    +0.000 A 
ATOM      2  C   UNL     1      47.906   7.749  13.931  0.00  0.00    +0.000 A 
ATOM      3  C   UNL     1      47.579   9.078  13.703  0.00  0.00    +0.000 A 
ATOM      4  C   UNL     1      46.514   9.378  12.872  0.00  0.00    +0.000 A 
ATOM      5  C   UNL     1      45.743   8.350  12.308  0.00  0.00    +0.000 A 
ATOM      6 BR   UNL     1      44.453   8.956  11.027  0.00  0.00    +0.000 Br
ATOM      7  C   UNL     1      45.973   6.974  12.606  0.00  0.00    +0.000 A 
ENDROOT
BRANCH   7   8
ATOM      8  C   UNL     1      44.997   5.907  12.181  0.00  0.00    +0.000 A 
ATOM      9  C   UNL     1      43.934   5.522  13.032  0.00  0.00    +0.000 A 
ATOM     10  C   UNL     1      42.993   4.543  12.674  0.00  0.00    +0.000 A 
ATOM     11  C   UNL     1      43.143   3.846  11.485  0.00  0.00    +0.000 A 
ATOM     12  C   UNL     1      44.200   4.171  10.653  0.00  0.00    +0.000 A 
ATOM     13  F   UNL     1      44.386   3.474   9.523  0.00  0.00    +0.000 F 
ATOM     14  C   UNL     1      45.084   5.208  10.966  0.00  0.00    +0.000 A 
ENDBRANCH   7   8
BRANCH   1  15
ATOM     15  C   UNL     1      47.633   5.268  13.632  0.00  0.00    +0.000 C 
BRANCH  15  16
ATOM     16  O   UNL     1      46.884   4.564  14.634  0.00  0.00    +0.000 OA
BRANCH  16  20
ATOM     17  C   UNL     1      48.739   4.409  18.371  0.00  0.00    +0.000 A 
ATOM     18  C   UNL     1      47.990   3.303  17.953  0.00  0.00    +0.000 A 
ATOM     19  C   UNL     1      47.367   3.308  16.698  0.00  0.00    +0.000 A 
ATOM     20  C   UNL     1      47.483   4.418  15.857  0.00  0.00    +0.000 A 
ATOM     21  C   UNL     1      48.243   5.514  16.272  0.00  0.00    +0.000 A 
ATOM     22  C   UNL     1      48.864   5.516  17.525  0.00  0.00    +0.000 A 
BRANCH  17  24
ATOM     23  N   UNL     1      48.628   4.087  20.785  0.00  0.00    +0.000 N 
ATOM     24  C   UNL     1      49.382   4.469  19.710  0.00  0.00    +0.000 C 
ATOM     25  O   UNL     1      50.547   4.816  19.848  0.00  0.00    +0.000 OA
ATOM     26  H   UNL     1      49.110   4.041  21.674  0.00  0.00    +0.000 HD
ATOM     27  H   UNL     1      47.763   3.576  20.690  0.00  0.00    +0.000 HD
ENDBRANCH  17  24
ENDBRANCH  16  20
ENDBRANCH  15  16
ENDBRANCH   1  15
TORSDOF 5
ENDMDL
MODEL 9
REMARK VINA RESULT:    -5.765     11.377     12.429
REMARK INTER + INTRA:          -8.115
REMARK INTER:                  -5.626
REMARK INTRA:                  -2.489
REMARK UNBOUND:                -0.665
REMARK  Name = 
REMARK  5 active torsions:
REMARK  status: ('A' for Active; 'I' for Inactive)
REMARK    1  A    between atoms: C_2  and  C_4
REMARK    2  A    between atoms: C_7  and  O_8
REMARK    3  A    between atoms: O_8  and  C_9
REMARK    4  A    between atoms: C_9  and  C_10
REMARK    5  A    between atoms: C_16  and  C_17
REMARK                            x       y       z     vdW  Elec       q    Type
REMARK                         _______ _______ _______ _____ _____    ______ ____
ROOT
ATOM      1  C   UNL     1      37.440  -0.256  14.525  0.00  0.00    +0.000 A 
ATOM      2  C   UNL     1      36.806   0.931  14.084  0.00  0.00    +0.000 A 
ATOM      3  C   UNL     1      36.711   2.053  14.894  0.00  0.00    +0.000 A 
ATOM      4  C   UNL     1      37.192   1.992  16.190  0.00  0.00    +0.000 A 
ATOM      5  C   UNL     1      37.814   0.827  16.662  0.00  0.00    +0.000 A 
ATOM      6 BR   UNL     1      38.221   0.863  18.535  0.00  0.00    +0.000 Br
ATOM      7  C   UNL     1      38.035  -0.310  15.829  0.00  0.00    +0.000 A 
ENDROOT
BRANCH   7   8
ATOM      8  C   UNL     1      38.905  -1.455  16.280  0.00  0.00    +0.000 A 
ATOM      9  C   UNL     1      40.314  -1.373  16.177  0.00  0.00    +0.000 A 
ATOM     10  C   UNL     1      41.166  -2.407  16.596  0.00  0.00    +0.000 A 
ATOM     11  C   UNL     1      40.628  -3.603  17.045  0.00  0.00    +0.000 A 
ATOM     12  C   UNL     1      39.251  -3.728  17.114  0.00  0.00    +0.000 A 
ATOM     13  F   UNL     1      38.715  -4.894  17.501  0.00  0.00    +0.000 F 
ATOM     14  C   UNL     1      38.404  -2.666  16.784  0.00  0.00    +0.000 A 
ENDBRANCH   7   8
BRANCH   1  15
ATOM     15  C   UNL     1      37.418  -1.457  13.587  0.00  0.00    +0.000 C 
BRANCH  15  16
ATOM     16  O   UNL     1      38.620  -1.607  12.818  0.00  0.00    +0.000 OA
BRANCH  16  20
ATOM     17  C   UNL     1      41.027  -4.963  13.433  0.00  0.00    +0.000 A 
ATOM     18  C   UNL     1      39.648  -5.086  13.641  0.00  0.00    +0.000 A 
ATOM     19  C   UNL     1      38.805  -3.988  13.427  0.00  0.00    +0.000 A 
ATOM     20  C   UNL     1      39.331  -2.762  13.013  0.00  0.00    +0.000 A 
ATOM     21  C   UNL     1      40.705  -2.648  12.792  0.00  0.00    +0.000 A 
ATOM     22  C   UNL     1      41.554  -3.739  13.007  0.00  0.00    +0.000 A 
BRANCH  17  24
ATOM     23  N   UNL     1      41.978  -6.623  14.945  0.00  0.00    +0.000 N 
ATOM     24  C   UNL     1      41.968  -6.085  13.688  0.00  0.00    +0.000 C 
ATOM     25  O   UNL     1      42.687  -6.534  12.805  0.00  0.00    +0.000 OA
ATOM     26  H   UNL     1      42.552  -7.447  15.074  0.00  0.00    +0.000 HD
ATOM     27  H   UNL     1      41.247  -6.447  15.618  0.00  0.00    +0.000 HD
ENDBRANCH  17  24
ENDBRANCH  16  20
ENDBRANCH  15  16
ENDBRANCH   1  15
TORSDOF 5
ENDMDL
