MODEL 1
REMARK VINA RESULT:    -7.384      0.000      0.000
REMARK INTER + INTRA:         -11.182
REMARK INTER:                 -10.405
REMARK INTRA:                  -0.777
REMARK UNBOUND:                -0.777
REMARK  Name = 
REMARK  8 active torsions:
REMARK  status: ('A' for Active; 'I' for Inactive)
REMARK    1  A    between atoms: C_1  and  O_2
REMARK    2  A    between atoms: O_2  and  C_3
REMARK    3  A    between atoms: C_7  and  C_8
REMARK    4  A    between atoms: N_14  and  C_15
REMARK    5  A    between atoms: C_15  and  C_16
REMARK    6  A    between atoms: C_19  and  O_20
REMARK    7  A    between atoms: O_20  and  C_21
REMARK    8  A    between atoms: C_21  and  C_22
REMARK                            x       y       z     vdW  Elec       q    Type
REMARK                         _______ _______ _______ _____ _____    ______ ____
ROOT
ATOM      1  C   UNL     1      43.808   3.201  10.551  0.00  0.00    +0.000 A 
ATOM      2  N   UNL     1      44.299   2.151   9.924  0.00  0.00    +0.000 NA
ATOM      3  C   UNL     1      45.178   2.660   9.012  0.00  0.00    +0.000 A 
ATOM      4  C   UNL     1      46.013   2.007   8.092  0.00  0.00    +0.000 A 
ATOM      5  C   UNL     1      46.820   2.811   7.277  0.00  0.00    +0.000 A 
ATOM      6  C   UNL     1      46.747   4.199   7.438  0.00  0.00    +0.000 A 
ATOM      7  N   UNL     1      45.954   4.880   8.316  0.00  0.00    +0.000 NA
ATOM      8  C   UNL     1      45.204   4.050   9.067  0.00  0.00    +0.000 A 
ATOM      9  N   UNL     1      44.298   4.381  10.046  0.00  0.00    +0.000 N 
ENDROOT
BRANCH   5  10
ATOM     10  C   UNL     1      47.743   2.281   6.240  0.00  0.00    +0.000 C 
ATOM     11  N   UNL     1      47.926   2.983   5.081  0.00  0.00    +0.000 N 
ATOM     12  O   UNL     1      48.346   1.230   6.413  0.00  0.00    +0.000 OA
ATOM     13  H   UNL     1      47.480   3.861   4.851  0.00  0.00    +0.000 HD
ATOM     14  H   UNL     1      48.574   2.595   4.408  0.00  0.00    +0.000 HD
ENDBRANCH   5  10
BRANCH   1  16
ATOM     15  C   UNL     1      43.591   3.173  12.861  0.00  0.00    +0.000 C 
ATOM     16  O   UNL     1      42.966   3.153  11.581  0.00  0.00    +0.000 OA
ENDBRANCH   1  16
BRANCH   9  17
ATOM     17  C   UNL     1      43.884   5.729  10.386  0.00  0.00    +0.000 C 
BRANCH  17  18
ATOM     18  C   UNL     1      44.796   6.444  11.346  0.00  0.00    +0.000 A 
ATOM     19  C   UNL     1      45.921   5.817  11.885  0.00  0.00    +0.000 A 
ATOM     20  C   UNL     1      46.817   6.559  12.649  0.00  0.00    +0.000 A 
ATOM     21  C   UNL     1      46.529   7.890  12.898  0.00  0.00    +0.000 A 
ATOM     22  N   UNL     1      45.433   8.523  12.435  0.00  0.00    +0.000 NA
ATOM     23  C   UNL     1      44.598   7.788  11.666  0.00  0.00    +0.000 A 
BRANCH  21  24
ATOM     24  O   UNL     1      47.489   8.608  13.573  0.00  0.00    +0.000 OA
BRANCH  24  25
ATOM     25  C   UNL     1      48.010   9.694  12.804  0.00  0.00    +0.000 C 
BRANCH  25  26
ATOM     26  C   UNL     1      49.390   9.293  12.312  0.00  0.00    +0.000 C 
ATOM     27  F   UNL     1      49.269   8.471  11.233  0.00  0.00    +0.000 F 
ENDBRANCH  25  26
ENDBRANCH  24  25
ENDBRANCH  21  24
ENDBRANCH  17  18
ENDBRANCH   9  17
TORSDOF 7
ENDMDL
MODEL 2
REMARK VINA RESULT:    -6.706      2.973      6.828
REMARK INTER + INTRA:         -10.227
REMARK INTER:                  -9.723
REMARK INTRA:                  -0.504
REMARK UNBOUND:                -0.777
REMARK  Name = 
REMARK  8 active torsions:
REMARK  status: ('A' for Active; 'I' for Inactive)
REMARK    1  A    between atoms: C_1  and  O_2
REMARK    2  A    between atoms: O_2  and  C_3
REMARK    3  A    between atoms: C_7  and  C_8
REMARK    4  A    between atoms: N_14  and  C_15
REMARK    5  A    between atoms: C_15  and  C_16
REMARK    6  A    between atoms: C_19  and  O_20
REMARK    7  A    between atoms: O_20  and  C_21
REMARK    8  A    between atoms: C_21  and  C_22
REMARK                            x       y       z     vdW  Elec       q    Type
REMARK                         _______ _______ _______ _____ _____    ______ ____
ROOT
ATOM      1  C   UNL     1      45.389   4.477  13.103  0.00  0.00    +0.000 A 
ATOM      2  N   UNL     1      46.361   4.491  13.993  0.00  0.00    +0.000 NA
ATOM      3  C   UNL     1      47.134   5.566  13.659  0.00  0.00    +0.000 A 
ATOM      4  C   UNL     1      48.284   6.084  14.273  0.00  0.00    +0.000 A 
ATOM      5  C   UNL     1      48.865   7.219  13.691  0.00  0.00    +0.000 A 
ATOM      6  C   UNL     1      48.260   7.759  12.551  0.00  0.00    +0.000 A 
ATOM      7  N   UNL     1      47.144   7.294  11.919  0.00  0.00    +0.000 NA
ATOM      8  C   UNL     1      46.637   6.203  12.526  0.00  0.00    +0.000 A 
ATOM      9  N   UNL     1      45.528   5.474  12.168  0.00  0.00    +0.000 N 
ENDROOT
BRANCH   5  10
ATOM     10  C   UNL     1      50.093   7.879  14.204  0.00  0.00    +0.000 C 
ATOM     11  N   UNL     1      50.924   7.192  15.045  0.00  0.00    +0.000 N 
ATOM     12  O   UNL     1      50.374   9.025  13.878  0.00  0.00    +0.000 OA
ATOM     13  H   UNL     1      50.781   6.243  15.364  0.00  0.00    +0.000 HD
ATOM     14  H   UNL     1      51.757   7.672  15.359  0.00  0.00    +0.000 HD
ENDBRANCH   5  10
BRANCH   1  16
ATOM     15  C   UNL     1      43.088   4.247  13.300  0.00  0.00    +0.000 C 
ATOM     16  O   UNL     1      44.360   3.633  13.108  0.00  0.00    +0.000 OA
ENDBRANCH   1  16
BRANCH   9  17
ATOM     17  C   UNL     1      44.738   5.680  10.969  0.00  0.00    +0.000 C 
BRANCH  17  18
ATOM     18  C   UNL     1      45.150   4.838   9.792  0.00  0.00    +0.000 A 
ATOM     19  C   UNL     1      44.521   3.623   9.511  0.00  0.00    +0.000 A 
ATOM     20  C   UNL     1      44.829   2.951   8.332  0.00  0.00    +0.000 A 
ATOM     21  C   UNL     1      45.799   3.484   7.501  0.00  0.00    +0.000 A 
ATOM     22  N   UNL     1      46.462   4.630   7.755  0.00  0.00    +0.000 NA
ATOM     23  C   UNL     1      46.117   5.281   8.890  0.00  0.00    +0.000 A 
BRANCH  21  24
ATOM     24  O   UNL     1      46.001   2.839   6.303  0.00  0.00    +0.000 OA
BRANCH  24  25
ATOM     25  C   UNL     1      47.340   2.364   6.150  0.00  0.00    +0.000 C 
BRANCH  25  26
ATOM     26  C   UNL     1      47.578   1.303   7.211  0.00  0.00    +0.000 C 
ATOM     27  F   UNL     1      46.775   0.230   6.971  0.00  0.00    +0.000 F 
ENDBRANCH  25  26
ENDBRANCH  24  25
ENDBRANCH  21  24
ENDBRANCH  17  18
ENDBRANCH   9  17
TORSDOF 7
ENDMDL
MODEL 3
REMARK VINA RESULT:    -6.615      2.913      7.116
REMARK INTER + INTRA:         -10.098
REMARK INTER:                  -9.605
REMARK INTRA:                  -0.493
REMARK UNBOUND:                -0.777
REMARK  Name = 
REMARK  8 active torsions:
REMARK  status: ('A' for Active; 'I' for Inactive)
REMARK    1  A    between atoms: C_1  and  O_2
REMARK    2  A    between atoms: O_2  and  C_3
REMARK    3  A    between atoms: C_7  and  C_8
REMARK    4  A    between atoms: N_14  and  C_15
REMARK    5  A    between atoms: C_15  and  C_16
REMARK    6  A    between atoms: C_19  and  O_20
REMARK    7  A    between atoms: O_20  and  C_21
REMARK    8  A    between atoms: C_21  and  C_22
REMARK                            x       y       z     vdW  Elec       q    Type
REMARK                         _______ _______ _______ _____ _____    ______ ____
ROOT
ATOM      1  C   UNL     1      47.007   5.010  13.857  0.00  0.00    +0.000 A 
ATOM      2  N   UNL     1      47.954   5.915  14.002  0.00  0.00    +0.000 NA
ATOM      3  C   UNL     1      47.436   7.061  13.472  0.00  0.00    +0.000 A 
ATOM      4  C   UNL     1      47.985   8.350  13.382  0.00  0.00    +0.000 A 
ATOM      5  C   UNL     1      47.199   9.340  12.777  0.00  0.00    +0.000 A 
ATOM      6  C   UNL     1      45.928   8.983  12.314  0.00  0.00    +0.000 A 
ATOM      7  N   UNL     1      45.351   7.749  12.380  0.00  0.00    +0.000 NA
ATOM      8  C   UNL     1      46.157   6.844  12.970  0.00  0.00    +0.000 A 
ATOM      9  N   UNL     1      45.907   5.513  13.204  0.00  0.00    +0.000 N 
ENDROOT
BRANCH   5  10
ATOM     10  C   UNL     1      47.638  10.746  12.584  0.00  0.00    +0.000 C 
ATOM     11  N   UNL     1      48.220  11.417  13.624  0.00  0.00    +0.000 N 
ATOM     12  O   UNL     1      47.491  11.308  11.507  0.00  0.00    +0.000 OA
ATOM     13  H   UNL     1      48.389  11.036  14.546  0.00  0.00    +0.000 HD
ATOM     14  H   UNL     1      48.517  12.367  13.446  0.00  0.00    +0.000 HD
ENDBRANCH   5  10
BRANCH   1  16
ATOM     15  C   UNL     1      47.486   3.643  15.669  0.00  0.00    +0.000 C 
ATOM     16  O   UNL     1      47.065   3.762  14.313  0.00  0.00    +0.000 OA
ENDBRANCH   1  16
BRANCH   9  17
ATOM     17  C   UNL     1      44.740   4.784  12.745  0.00  0.00    +0.000 C 
BRANCH  17  18
ATOM     18  C   UNL     1      44.809   4.322  11.315  0.00  0.00    +0.000 A 
ATOM     19  C   UNL     1      45.313   5.146  10.307  0.00  0.00    +0.000 A 
ATOM     20  C   UNL     1      45.498   4.629   9.028  0.00  0.00    +0.000 A 
ATOM     21  C   UNL     1      45.119   3.320   8.785  0.00  0.00    +0.000 A 
ATOM     22  N   UNL     1      44.589   2.502   9.716  0.00  0.00    +0.000 NA
ATOM     23  C   UNL     1      44.453   3.020  10.958  0.00  0.00    +0.000 A 
BRANCH  21  24
ATOM     24  O   UNL     1      45.411   2.821   7.535  0.00  0.00    +0.000 OA
BRANCH  24  25
ATOM     25  C   UNL     1      46.805   2.881   7.228  0.00  0.00    +0.000 C 
BRANCH  25  26
ATOM     26  C   UNL     1      47.314   1.455   7.109  0.00  0.00    +0.000 C 
ATOM     27  F   UNL     1      46.648   0.658   7.990  0.00  0.00    +0.000 F 
ENDBRANCH  25  26
ENDBRANCH  24  25
ENDBRANCH  21  24
ENDBRANCH  17  18
ENDBRANCH   9  17
TORSDOF 7
ENDMDL
MODEL 4
REMARK VINA RESULT:    -6.589      3.259      7.133
REMARK INTER + INTRA:         -10.061
REMARK INTER:                  -9.288
REMARK INTRA:                  -0.773
REMARK UNBOUND:                -0.777
REMARK  Name = 
REMARK  8 active torsions:
REMARK  status: ('A' for Active; 'I' for Inactive)
REMARK    1  A    between atoms: C_1  and  O_2
REMARK    2  A    between atoms: O_2  and  C_3
REMARK    3  A    between atoms: C_7  and  C_8
REMARK    4  A    between atoms: N_14  and  C_15
REMARK    5  A    between atoms: C_15  and  C_16
REMARK    6  A    between atoms: C_19  and  O_20
REMARK    7  A    between atoms: O_20  and  C_21
REMARK    8  A    between atoms: C_21  and  C_22
REMARK                            x       y       z     vdW  Elec       q    Type
REMARK                         _______ _______ _______ _____ _____    ______ ____
ROOT
ATOM      1  C   UNL     1      45.492   7.101  11.966  0.00  0.00    +0.000 A 
ATOM      2  N   UNL     1      46.346   7.406  12.922  0.00  0.00    +0.000 NA
ATOM      3  C   UNL     1      46.604   6.226  13.558  0.00  0.00    +0.000 A 
ATOM      4  C   UNL     1      47.463   5.940  14.631  0.00  0.00    +0.000 A 
ATOM      5  C   UNL     1      47.519   4.610  15.070  0.00  0.00    +0.000 A 
ATOM      6  C   UNL     1      46.728   3.663  14.410  0.00  0.00    +0.000 A 
ATOM      7  N   UNL     1      45.882   3.890  13.364  0.00  0.00    +0.000 NA
ATOM      8  C   UNL     1      45.873   5.185  12.993  0.00  0.00    +0.000 A 
ATOM      9  N   UNL     1      45.145   5.772  11.985  0.00  0.00    +0.000 N 
ENDROOT
BRANCH   5  10
ATOM     10  C   UNL     1      48.358   4.145  16.204  0.00  0.00    +0.000 C 
ATOM     11  N   UNL     1      48.068   2.954  16.810  0.00  0.00    +0.000 N 
ATOM     12  O   UNL     1      49.308   4.809  16.596  0.00  0.00    +0.000 OA
ATOM     13  H   UNL     1      47.311   2.335  16.553  0.00  0.00    +0.000 HD
ATOM     14  H   UNL     1      48.673   2.666  17.568  0.00  0.00    +0.000 HD
ENDBRANCH   5  10
BRANCH   1  16
ATOM     15  C   UNL     1      44.757   9.261  11.538  0.00  0.00    +0.000 C 
ATOM     16  O   UNL     1      45.036   7.952  11.049  0.00  0.00    +0.000 OA
ENDBRANCH   1  16
BRANCH   9  17
ATOM     17  C   UNL     1      44.134   5.109  11.183  0.00  0.00    +0.000 C 
BRANCH  17  18
ATOM     18  C   UNL     1      44.677   4.254  10.070  0.00  0.00    +0.000 A 
ATOM     19  C   UNL     1      45.445   4.800   9.040  0.00  0.00    +0.000 A 
ATOM     20  C   UNL     1      46.050   3.954   8.115  0.00  0.00    +0.000 A 
ATOM     21  C   UNL     1      45.819   2.593   8.216  0.00  0.00    +0.000 A 
ATOM     22  N   UNL     1      45.050   2.027   9.167  0.00  0.00    +0.000 NA
ATOM     23  C   UNL     1      44.504   2.869  10.074  0.00  0.00    +0.000 A 
BRANCH  21  24
ATOM     24  O   UNL     1      46.515   1.788   7.343  0.00  0.00    +0.000 OA
BRANCH  24  25
ATOM     25  C   UNL     1      47.771   2.349   6.955  0.00  0.00    +0.000 C 
BRANCH  25  26
ATOM     26  C   UNL     1      47.754   2.521   5.446  0.00  0.00    +0.000 C 
ATOM     27  F   UNL     1      46.467   2.625   5.013  0.00  0.00    +0.000 F 
ENDBRANCH  25  26
ENDBRANCH  24  25
ENDBRANCH  21  24
ENDBRANCH  17  18
ENDBRANCH   9  17
TORSDOF 7
ENDMDL
MODEL 5
REMARK VINA RESULT:    -6.239      2.867      7.140
REMARK INTER + INTRA:          -9.569
REMARK INTER:                  -8.925
REMARK INTRA:                  -0.644
REMARK UNBOUND:                -0.777
REMARK  Name = 
REMARK  8 active torsions:
REMARK  status: ('A' for Active; 'I' for Inactive)
REMARK    1  A    between atoms: C_1  and  O_2
REMARK    2  A    between atoms: O_2  and  C_3
REMARK    3  A    between atoms: C_7  and  C_8
REMARK    4  A    between atoms: N_14  and  C_15
REMARK    5  A    between atoms: C_15  and  C_16
REMARK    6  A    between atoms: C_19  and  O_20
REMARK    7  A    between atoms: O_20  and  C_21
REMARK    8  A    between atoms: C_21  and  C_22
REMARK                            x       y       z     vdW  Elec       q    Type
REMARK                         _______ _______ _______ _____ _____    ______ ____
ROOT
ATOM      1  C   UNL     1      44.753   8.225  11.795  0.00  0.00    +0.000 A 
ATOM      2  N   UNL     1      45.717   8.949  12.328  0.00  0.00    +0.000 NA
ATOM      3  C   UNL     1      46.503   8.057  12.999  0.00  0.00    +0.000 A 
ATOM      4  C   UNL     1      47.687   8.256  13.725  0.00  0.00    +0.000 A 
ATOM      5  C   UNL     1      48.277   7.127  14.310  0.00  0.00    +0.000 A 
ATOM      6  C   UNL     1      47.657   5.887  14.125  0.00  0.00    +0.000 A 
ATOM      7  N   UNL     1      46.509   5.643  13.428  0.00  0.00    +0.000 NA
ATOM      8  C   UNL     1      45.993   6.767  12.894  0.00  0.00    +0.000 A 
ATOM      9  N   UNL     1      44.853   6.898  12.136  0.00  0.00    +0.000 N 
ENDROOT
BRANCH   5  10
ATOM     10  C   UNL     1      49.518   7.168  15.126  0.00  0.00    +0.000 C 
ATOM     11  N   UNL     1      50.714   7.431  14.518  0.00  0.00    +0.000 N 
ATOM     12  O   UNL     1      49.482   6.974  16.334  0.00  0.00    +0.000 OA
ATOM     13  H   UNL     1      50.843   7.610  13.531  0.00  0.00    +0.000 HD
ATOM     14  H   UNL     1      51.532   7.464  15.112  0.00  0.00    +0.000 HD
ENDBRANCH   5  10
BRANCH   1  16
ATOM     15  C   UNL     1      43.863  10.094  10.746  0.00  0.00    +0.000 C 
ATOM     16  O   UNL     1      43.805   8.691  10.985  0.00  0.00    +0.000 OA
ENDBRANCH   1  16
BRANCH   9  17
ATOM     17  C   UNL     1      43.904   5.838  11.856  0.00  0.00    +0.000 C 
BRANCH  17  18
ATOM     18  C   UNL     1      44.298   4.924  10.727  0.00  0.00    +0.000 A 
ATOM     19  C   UNL     1      45.221   5.321   9.757  0.00  0.00    +0.000 A 
ATOM     20  C   UNL     1      45.668   4.395   8.819  0.00  0.00    +0.000 A 
ATOM     21  C   UNL     1      45.133   3.118   8.844  0.00  0.00    +0.000 A 
ATOM     22  N   UNL     1      44.209   2.706   9.734  0.00  0.00    +0.000 NA
ATOM     23  C   UNL     1      43.819   3.615  10.656  0.00  0.00    +0.000 A 
BRANCH  21  24
ATOM     24  O   UNL     1      45.675   2.210   7.963  0.00  0.00    +0.000 OA
BRANCH  24  25
ATOM     25  C   UNL     1      46.429   2.834   6.921  0.00  0.00    +0.000 C 
BRANCH  25  26
ATOM     26  C   UNL     1      47.775   2.136   6.844  0.00  0.00    +0.000 C 
ATOM     27  F   UNL     1      48.128   1.969   5.538  0.00  0.00    +0.000 F 
ENDBRANCH  25  26
ENDBRANCH  24  25
ENDBRANCH  21  24
ENDBRANCH  17  18
ENDBRANCH   9  17
TORSDOF 7
ENDMDL
MODEL 6
REMARK VINA RESULT:    -5.859      3.056      6.982
REMARK INTER + INTRA:          -9.033
REMARK INTER:                  -8.212
REMARK INTRA:                  -0.821
REMARK UNBOUND:                -0.777
REMARK  Name = 
REMARK  8 active torsions:
REMARK  status: ('A' for Active; 'I' for Inactive)
REMARK    1  A    between atoms: C_1  and  O_2
REMARK    2  A    between atoms: O_2  and  C_3
REMARK    3  A    between atoms: C_7  and  C_8
REMARK    4  A    between atoms: N_14  and  C_15
REMARK    5  A    between atoms: C_15  and  C_16
REMARK    6  A    between atoms: C_19  and  O_20
REMARK    7  A    between atoms: O_20  and  C_21
REMARK    8  A    between atoms: C_21  and  C_22
REMARK                            x       y       z     vdW  Elec       q    Type
REMARK                         _______ _______ _______ _____ _____    ______ ____
ROOT
ATOM      1  C   UNL     1      47.213   5.876  13.725  0.00  0.00    +0.000 A 
ATOM      2  N   UNL     1      48.498   6.139  13.855  0.00  0.00    +0.000 NA
ATOM      3  C   UNL     1      48.684   7.333  13.219  0.00  0.00    +0.000 A 
ATOM      4  C   UNL     1      49.841   8.111  13.067  0.00  0.00    +0.000 A 
ATOM      5  C   UNL     1      49.717   9.311  12.354  0.00  0.00    +0.000 A 
ATOM      6  C   UNL     1      48.457   9.654  11.852  0.00  0.00    +0.000 A 
ATOM      7  N   UNL     1      47.305   8.934  11.975  0.00  0.00    +0.000 NA
ATOM      8  C   UNL     1      47.492   7.794  12.668  0.00  0.00    +0.000 A 
ATOM      9  N   UNL     1      46.562   6.832  12.983  0.00  0.00    +0.000 N 
ENDROOT
BRANCH   5  10
ATOM     10  C   UNL     1      50.847  10.238  12.085  0.00  0.00    +0.000 C 
ATOM     11  N   UNL     1      51.059  11.298  12.922  0.00  0.00    +0.000 N 
ATOM     12  O   UNL     1      51.591  10.062  11.130  0.00  0.00    +0.000 OA
ATOM     13  H   UNL     1      50.504  11.522  13.737  0.00  0.00    +0.000 HD
ATOM     14  H   UNL     1      51.847  11.896  12.712  0.00  0.00    +0.000 HD
ENDBRANCH   5  10
BRANCH   1  16
ATOM     15  C   UNL     1      47.198   3.575  14.024  0.00  0.00    +0.000 C 
ATOM     16  O   UNL     1      46.585   4.838  14.271  0.00  0.00    +0.000 OA
ENDBRANCH   1  16
BRANCH   9  17
ATOM     17  C   UNL     1      45.188   6.807  12.517  0.00  0.00    +0.000 C 
BRANCH  17  18
ATOM     18  C   UNL     1      44.943   5.914  11.331  0.00  0.00    +0.000 A 
ATOM     19  C   UNL     1      45.790   5.928  10.221  0.00  0.00    +0.000 A 
ATOM     20  C   UNL     1      45.614   4.983   9.214  0.00  0.00    +0.000 A 
ATOM     21  C   UNL     1      44.559   4.093   9.321  0.00  0.00    +0.000 A 
ATOM     22  N   UNL     1      43.692   4.073  10.352  0.00  0.00    +0.000 NA
ATOM     23  C   UNL     1      43.908   4.978  11.333  0.00  0.00    +0.000 A 
BRANCH  21  24
ATOM     24  O   UNL     1      44.482   3.117   8.354  0.00  0.00    +0.000 OA
BRANCH  24  25
ATOM     25  C   UNL     1      45.720   2.921   7.666  0.00  0.00    +0.000 C 
BRANCH  25  26
ATOM     26  C   UNL     1      46.318   1.614   8.154  0.00  0.00    +0.000 C 
ATOM     27  F   UNL     1      45.325   0.796   8.601  0.00  0.00    +0.000 F 
ENDBRANCH  25  26
ENDBRANCH  24  25
ENDBRANCH  21  24
ENDBRANCH  17  18
ENDBRANCH   9  17
TORSDOF 7
ENDMDL
MODEL 7
REMARK VINA RESULT:    -5.798      3.274      5.216
REMARK INTER + INTRA:          -8.947
REMARK INTER:                  -8.347
REMARK INTRA:                  -0.600
REMARK UNBOUND:                -0.777
REMARK  Name = 
REMARK  8 active torsions:
REMARK  status: ('A' for Active; 'I' for Inactive)
REMARK    1  A    between atoms: C_1  and  O_2
REMARK    2  A    between atoms: O_2  and  C_3
REMARK    3  A    between atoms: C_7  and  C_8
REMARK    4  A    between atoms: N_14  and  C_15
REMARK    5  A    between atoms: C_15  and  C_16
REMARK    6  A    between atoms: C_19  and  O_20
REMARK    7  A    between atoms: O_20  and  C_21
REMARK    8  A    between atoms: C_21  and  C_22
REMARK                            x       y       z     vdW  Elec       q    Type
REMARK                         _______ _______ _______ _____ _____    ______ ____
ROOT
ATOM      1  C   UNL     1      47.481   4.868  14.838  0.00  0.00    +0.000 A 
ATOM      2  N   UNL     1      46.787   3.833  14.411  0.00  0.00    +0.000 NA
ATOM      3  C   UNL     1      46.258   4.227  13.215  0.00  0.00    +0.000 A 
ATOM      4  C   UNL     1      45.461   3.526  12.298  0.00  0.00    +0.000 A 
ATOM      5  C   UNL     1      45.069   4.207  11.138  0.00  0.00    +0.000 A 
ATOM      6  C   UNL     1      45.502   5.526  10.968  0.00  0.00    +0.000 A 
ATOM      7  N   UNL     1      46.277   6.249  11.827  0.00  0.00    +0.000 NA
ATOM      8  C   UNL     1      46.618   5.539  12.920  0.00  0.00    +0.000 A 
ATOM      9  N   UNL     1      47.384   5.943  13.987  0.00  0.00    +0.000 N 
ENDROOT
BRANCH   5  10
ATOM     10  C   UNL     1      44.209   3.617  10.079  0.00  0.00    +0.000 C 
ATOM     11  N   UNL     1      43.942   4.341   8.950  0.00  0.00    +0.000 N 
ATOM     12  O   UNL     1      43.744   2.492  10.201  0.00  0.00    +0.000 OA
ATOM     13  H   UNL     1      44.285   5.273   8.756  0.00  0.00    +0.000 HD
ATOM     14  H   UNL     1      43.365   3.897   8.247  0.00  0.00    +0.000 HD
ENDBRANCH   5  10
BRANCH   1  16
ATOM     15  C   UNL     1      47.528   4.585  17.141  0.00  0.00    +0.000 C 
ATOM     16  O   UNL     1      48.230   4.886  15.938  0.00  0.00    +0.000 OA
ENDBRANCH   1  16
BRANCH   9  17
ATOM     17  C   UNL     1      47.892   7.286  14.196  0.00  0.00    +0.000 C 
BRANCH  17  18
ATOM     18  C   UNL     1      49.180   7.590  13.480  0.00  0.00    +0.000 A 
ATOM     19  C   UNL     1      49.229   7.714  12.090  0.00  0.00    +0.000 A 
ATOM     20  C   UNL     1      50.406   8.142  11.483  0.00  0.00    +0.000 A 
ATOM     21  C   UNL     1      51.513   8.375  12.280  0.00  0.00    +0.000 A 
ATOM     22  N   UNL     1      51.523   8.226  13.619  0.00  0.00    +0.000 NA
ATOM     23  C   UNL     1      50.357   7.843  14.187  0.00  0.00    +0.000 A 
BRANCH  21  24
ATOM     24  O   UNL     1      52.623   8.889  11.649  0.00  0.00    +0.000 OA
BRANCH  24  25
ATOM     25  C   UNL     1      52.488   8.917  10.227  0.00  0.00    +0.000 C 
BRANCH  25  26
ATOM     26  C   UNL     1      53.411   7.856   9.654  0.00  0.00    +0.000 C 
ATOM     27  F   UNL     1      52.683   6.763   9.293  0.00  0.00    +0.000 F 
ENDBRANCH  25  26
ENDBRANCH  24  25
ENDBRANCH  21  24
ENDBRANCH  17  18
ENDBRANCH   9  17
TORSDOF 7
ENDMDL
MODEL 8
REMARK VINA RESULT:    -5.555      4.432      7.037
REMARK INTER + INTRA:          -8.604
REMARK INTER:                  -7.796
REMARK INTRA:                  -0.808
REMARK UNBOUND:                -0.777
REMARK  Name = 
REMARK  8 active torsions:
REMARK  status: ('A' for Active; 'I' for Inactive)
REMARK    1  A    between atoms: C_1  and  O_2
REMARK    2  A    between atoms: O_2  and  C_3
REMARK    3  A    between atoms: C_7  and  C_8
REMARK    4  A    between atoms: N_14  and  C_15
REMARK    5  A    between atoms: C_15  and  C_16
REMARK    6  A    between atoms: C_19  and  O_20
REMARK    7  A    between atoms: O_20  and  C_21
REMARK    8  A    between atoms: C_21  and  C_22
REMARK                            x       y       z     vdW  Elec       q    Type
REMARK                         _______ _______ _______ _____ _____    ______ ____
ROOT
ATOM      1  C   UNL     1      46.214   4.420  13.165  0.00  0.00    +0.000 A 
ATOM      2  N   UNL     1      46.315   3.710  14.271  0.00  0.00    +0.000 NA
ATOM      3  C   UNL     1      47.171   4.414  15.068  0.00  0.00    +0.000 A 
ATOM      4  C   UNL     1      47.621   4.154  16.371  0.00  0.00    +0.000 A 
ATOM      5  C   UNL     1      48.510   5.077  16.939  0.00  0.00    +0.000 A 
ATOM      6  C   UNL     1      48.880   6.191  16.178  0.00  0.00    +0.000 A 
ATOM      7  N   UNL     1      48.470   6.489  14.911  0.00  0.00    +0.000 NA
ATOM      8  C   UNL     1      47.620   5.564  14.424  0.00  0.00    +0.000 A 
ATOM      9  N   UNL     1      47.012   5.538  13.191  0.00  0.00    +0.000 N 
ENDROOT
BRANCH   5  10
ATOM     10  C   UNL     1      49.095   4.939  18.298  0.00  0.00    +0.000 C 
ATOM     11  N   UNL     1      49.515   3.711  18.727  0.00  0.00    +0.000 N 
ATOM     12  O   UNL     1      49.211   5.911  19.033  0.00  0.00    +0.000 OA
ATOM     13  H   UNL     1      49.467   2.855  18.191  0.00  0.00    +0.000 HD
ATOM     14  H   UNL     1      49.921   3.664  19.652  0.00  0.00    +0.000 HD
ENDBRANCH   5  10
BRANCH   1  16
ATOM     15  C   UNL     1      44.048   3.912  12.502  0.00  0.00    +0.000 C 
ATOM     16  O   UNL     1      45.409   4.134  12.144  0.00  0.00    +0.000 OA
ENDBRANCH   1  16
BRANCH   9  17
ATOM     17  C   UNL     1      47.267   6.470  12.110  0.00  0.00    +0.000 C 
BRANCH  17  18
ATOM     18  C   UNL     1      46.270   7.592  11.999  0.00  0.00    +0.000 A 
ATOM     19  C   UNL     1      46.588   8.891  12.399  0.00  0.00    +0.000 A 
ATOM     20  C   UNL     1      45.692   9.925  12.141  0.00  0.00    +0.000 A 
ATOM     21  C   UNL     1      44.482   9.617  11.544  0.00  0.00    +0.000 A 
ATOM     22  N   UNL     1      44.116   8.371  11.182  0.00  0.00    +0.000 NA
ATOM     23  C   UNL     1      45.019   7.391  11.412  0.00  0.00    +0.000 A 
BRANCH  21  24
ATOM     24  O   UNL     1      43.671  10.680  11.220  0.00  0.00    +0.000 OA
BRANCH  24  25
ATOM     25  C   UNL     1      42.950  10.474  10.003  0.00  0.00    +0.000 C 
BRANCH  25  26
ATOM     26  C   UNL     1      41.478  10.713  10.292  0.00  0.00    +0.000 C 
ATOM     27  F   UNL     1      41.044   9.815  11.220  0.00  0.00    +0.000 F 
ENDBRANCH  25  26
ENDBRANCH  24  25
ENDBRANCH  21  24
ENDBRANCH  17  18
ENDBRANCH   9  17
TORSDOF 7
ENDMDL
MODEL 9
REMARK VINA RESULT:    -5.502      3.244      5.415
REMARK INTER + INTRA:          -8.531
REMARK INTER:                  -7.687
REMARK INTRA:                  -0.843
REMARK UNBOUND:                -0.777
REMARK  Name = 
REMARK  8 active torsions:
REMARK  status: ('A' for Active; 'I' for Inactive)
REMARK    1  A    between atoms: C_1  and  O_2
REMARK    2  A    between atoms: O_2  and  C_3
REMARK    3  A    between atoms: C_7  and  C_8
REMARK    4  A    between atoms: N_14  and  C_15
REMARK    5  A    between atoms: C_15  and  C_16
REMARK    6  A    between atoms: C_19  and  O_20
REMARK    7  A    between atoms: O_20  and  C_21
REMARK    8  A    between atoms: C_21  and  C_22
REMARK                            x       y       z     vdW  Elec       q    Type
REMARK                         _______ _______ _______ _____ _____    ______ ____
ROOT
ATOM      1  C   UNL     1      45.062   8.582  12.037  0.00  0.00    +0.000 A 
ATOM      2  N   UNL     1      44.181   7.905  11.327  0.00  0.00    +0.000 NA
ATOM      3  C   UNL     1      44.480   6.591  11.548  0.00  0.00    +0.000 A 
ATOM      4  C   UNL     1      43.856   5.426  11.077  0.00  0.00    +0.000 A 
ATOM      5  C   UNL     1      44.398   4.200  11.486  0.00  0.00    +0.000 A 
ATOM      6  C   UNL     1      45.509   4.219  12.335  0.00  0.00    +0.000 A 
ATOM      7  N   UNL     1      46.149   5.322  12.820  0.00  0.00    +0.000 NA
ATOM      8  C   UNL     1      45.581   6.466  12.390  0.00  0.00    +0.000 A 
ATOM      9  N   UNL     1      45.957   7.757  12.674  0.00  0.00    +0.000 N 
ENDROOT
BRANCH   5  10
ATOM     10  C   UNL     1      43.871   2.876  11.062  0.00  0.00    +0.000 C 
ATOM     11  N   UNL     1      44.453   2.227  10.009  0.00  0.00    +0.000 N 
ATOM     12  O   UNL     1      42.929   2.359  11.647  0.00  0.00    +0.000 OA
ATOM     13  H   UNL     1      45.237   2.571   9.470  0.00  0.00    +0.000 HD
ATOM     14  H   UNL     1      44.074   1.323   9.762  0.00  0.00    +0.000 HD
ENDBRANCH   5  10
BRANCH   1  16
ATOM     15  C   UNL     1      44.479  10.622  11.097  0.00  0.00    +0.000 C 
ATOM     16  O   UNL     1      45.081   9.906  12.172  0.00  0.00    +0.000 OA
ENDBRANCH   1  16
BRANCH   9  17
ATOM     17  C   UNL     1      47.139   8.142  13.422  0.00  0.00    +0.000 C 
BRANCH  17  18
ATOM     18  C   UNL     1      48.380   8.317  12.589  0.00  0.00    +0.000 A 
ATOM     19  C   UNL     1      48.722   9.556  12.042  0.00  0.00    +0.000 A 
ATOM     20  C   UNL     1      49.950   9.708  11.406  0.00  0.00    +0.000 A 
ATOM     21  C   UNL     1      50.773   8.601  11.287  0.00  0.00    +0.000 A 
ATOM     22  N   UNL     1      50.465   7.378  11.761  0.00  0.00    +0.000 NA
ATOM     23  C   UNL     1      49.281   7.267  12.405  0.00  0.00    +0.000 A 
BRANCH  21  24
ATOM     24  O   UNL     1      52.017   8.820  10.739  0.00  0.00    +0.000 OA
BRANCH  24  25
ATOM     25  C   UNL     1      52.666   7.610  10.343  0.00  0.00    +0.000 C 
BRANCH  25  26
ATOM     26  C   UNL     1      52.793   7.627   8.830  0.00  0.00    +0.000 C 
ATOM     27  F   UNL     1      52.651   8.903   8.375  0.00  0.00    +0.000 F 
ENDBRANCH  25  26
ENDBRANCH  24  25
ENDBRANCH  21  24
ENDBRANCH  17  18
ENDBRANCH   9  17
TORSDOF 7
ENDMDL
