MODEL 1
REMARK VINA RESULT:    -8.027      0.000      0.000
REMARK INTER + INTRA:         -12.296
REMARK INTER:                 -11.311
REMARK INTRA:                  -0.985
REMARK UNBOUND:                -0.985
REMARK  Name = 
REMARK  8 active torsions:
REMARK  status: ('A' for Active; 'I' for Inactive)
REMARK    1  A    between atoms: C_1  and  O_2
REMARK    2  A    between atoms: O_2  and  C_3
REMARK    3  A    between atoms: C_5  and  C_6
REMARK    4  A    between atoms: C_11  and  N_12
REMARK    5  A    between atoms: N_12  and  C_13
REMARK    6  A    between atoms: C_13  and  C_14
REMARK    7  A    between atoms: C_17  and  O_18
REMARK    8  A    between atoms: O_18  and  C_19
REMARK                            x       y       z     vdW  Elec       q    Type
REMARK                         _______ _______ _______ _____ _____    ______ ____
ROOT
ATOM      1  N   UNL     1      43.881   5.184   9.825  0.00  0.00    +0.000 N 
ATOM      2  H   UNL     1      43.187   5.483   9.147  0.00  0.00    +0.000 HD
ENDROOT
BRANCH   1   8
ATOM      3  C   UNL     1      44.523   2.774   9.512  0.00  0.00    +0.000 A 
ATOM      4  C   UNL     1      45.387   1.913   8.811  0.00  0.00    +0.000 A 
ATOM      5  C   UNL     1      46.344   2.420   7.924  0.00  0.00    +0.000 A 
ATOM      6  C   UNL     1      46.381   3.786   7.762  0.00  0.00    +0.000 A 
ATOM      7  N   UNL     1      45.553   4.646   8.402  0.00  0.00    +0.000 NA
ATOM      8  C   UNL     1      44.623   4.153   9.262  0.00  0.00    +0.000 A 
BRANCH   5   9
ATOM      9  C   UNL     1      47.261   1.481   7.234  0.00  0.00    +0.000 C 
ATOM     10  N   UNL     1      48.332   1.984   6.548  0.00  0.00    +0.000 N 
ATOM     11  O   UNL     1      47.076   0.274   7.278  0.00  0.00    +0.000 OA
ATOM     12  H   UNL     1      48.572   2.955   6.435  0.00  0.00    +0.000 HD
ATOM     13  H   UNL     1      48.934   1.302   6.099  0.00  0.00    +0.000 HD
ENDBRANCH   5   9
BRANCH   3  15
ATOM     14  C   UNL     1      44.054   2.187  11.777  0.00  0.00    +0.000 C 
ATOM     15  O   UNL     1      43.611   2.308  10.425  0.00  0.00    +0.000 OA
ENDBRANCH   3  15
ENDBRANCH   1   8
BRANCH   1  16
ATOM     16  C   UNL     1      43.719   5.601  11.209  0.00  0.00    +0.000 C 
ATOM     17  C   UNL     1      42.548   5.180  12.074  0.00  0.00    +0.000 C 
ATOM     18  C   UNL     1      42.556   6.557  11.513  0.00  0.00    +0.000 C 
BRANCH  16  19
ATOM     19  C   UNL     1      45.033   5.933  11.909  0.00  0.00    +0.000 A 
ATOM     20  C   UNL     1      45.426   5.286  13.094  0.00  0.00    +0.000 A 
ATOM     21  C   UNL     1      46.732   5.386  13.581  0.00  0.00    +0.000 A 
ATOM     22  C   UNL     1      47.668   6.142  12.885  0.00  0.00    +0.000 A 
ATOM     23  C   UNL     1      47.248   6.934  11.816  0.00  0.00    +0.000 A 
ATOM     24  C   UNL     1      45.942   6.831  11.337  0.00  0.00    +0.000 A 
BRANCH  22  25
ATOM     25  O   UNL     1      48.992   6.213  13.189  0.00  0.00    +0.000 OA
BRANCH  25  26
ATOM     26  C   UNL     1      49.444   7.346  13.925  0.00  0.00    +0.000 C 
ATOM     27  F   UNL     1      48.481   8.000  14.610  0.00  0.00    +0.000 F 
ATOM     28  F   UNL     1      50.379   6.943  14.818  0.00  0.00    +0.000 F 
ATOM     29  F   UNL     1      50.027   8.215  13.072  0.00  0.00    +0.000 F 
ENDBRANCH  25  26
ENDBRANCH  22  25
ENDBRANCH  16  19
ENDBRANCH   1  16
TORSDOF 7
ENDMDL
MODEL 2
REMARK VINA RESULT:    -7.688      4.276      7.304
REMARK INTER + INTRA:         -11.818
REMARK INTER:                 -10.975
REMARK INTRA:                  -0.844
REMARK UNBOUND:                -0.985
REMARK  Name = 
REMARK  8 active torsions:
REMARK  status: ('A' for Active; 'I' for Inactive)
REMARK    1  A    between atoms: C_1  and  O_2
REMARK    2  A    between atoms: O_2  and  C_3
REMARK    3  A    between atoms: C_5  and  C_6
REMARK    4  A    between atoms: C_11  and  N_12
REMARK    5  A    between atoms: N_12  and  C_13
REMARK    6  A    between atoms: C_13  and  C_14
REMARK    7  A    between atoms: C_17  and  O_18
REMARK    8  A    between atoms: O_18  and  C_19
REMARK                            x       y       z     vdW  Elec       q    Type
REMARK                         _______ _______ _______ _____ _____    ______ ____
ROOT
ATOM      1  N   UNL     1      45.962   3.530  12.689  0.00  0.00    +0.000 N 
ATOM      2  H   UNL     1      46.279   2.569  12.777  0.00  0.00    +0.000 HD
ENDROOT
BRANCH   1   8
ATOM      3  C   UNL     1      47.234   5.579  13.399  0.00  0.00    +0.000 A 
ATOM      4  C   UNL     1      47.910   6.175  14.479  0.00  0.00    +0.000 A 
ATOM      5  C   UNL     1      48.052   5.502  15.699  0.00  0.00    +0.000 A 
ATOM      6  C   UNL     1      47.488   4.250  15.789  0.00  0.00    +0.000 A 
ATOM      7  N   UNL     1      46.812   3.651  14.780  0.00  0.00    +0.000 NA
ATOM      8  C   UNL     1      46.672   4.306  13.597  0.00  0.00    +0.000 A 
BRANCH   5   9
ATOM      9  C   UNL     1      48.805   6.150  16.799  0.00  0.00    +0.000 C 
ATOM     10  N   UNL     1      48.136   6.960  17.675  0.00  0.00    +0.000 N 
ATOM     11  O   UNL     1      50.005   5.965  16.936  0.00  0.00    +0.000 OA
ATOM     12  H   UNL     1      47.157   7.192  17.651  0.00  0.00    +0.000 HD
ATOM     13  H   UNL     1      48.693   7.374  18.414  0.00  0.00    +0.000 HD
ENDBRANCH   5   9
BRANCH   3  15
ATOM     14  C   UNL     1      46.356   7.398  12.130  0.00  0.00    +0.000 C 
ATOM     15  O   UNL     1      47.123   6.194  12.178  0.00  0.00    +0.000 OA
ENDBRANCH   3  15
ENDBRANCH   1   8
BRANCH   1  16
ATOM     16  C   UNL     1      44.719   3.785  11.977  0.00  0.00    +0.000 C 
ATOM     17  C   UNL     1      43.596   4.633  12.540  0.00  0.00    +0.000 C 
ATOM     18  C   UNL     1      43.446   3.153  12.557  0.00  0.00    +0.000 C 
BRANCH  16  19
ATOM     19  C   UNL     1      44.853   3.704  10.460  0.00  0.00    +0.000 A 
ATOM     20  C   UNL     1      45.320   4.789   9.696  0.00  0.00    +0.000 A 
ATOM     21  C   UNL     1      45.698   4.632   8.362  0.00  0.00    +0.000 A 
ATOM     22  C   UNL     1      45.613   3.379   7.766  0.00  0.00    +0.000 A 
ATOM     23  C   UNL     1      44.983   2.339   8.449  0.00  0.00    +0.000 A 
ATOM     24  C   UNL     1      44.605   2.504   9.782  0.00  0.00    +0.000 A 
BRANCH  22  25
ATOM     25  O   UNL     1      46.067   3.078   6.520  0.00  0.00    +0.000 OA
BRANCH  25  26
ATOM     26  C   UNL     1      47.244   2.281   6.417  0.00  0.00    +0.000 C 
ATOM     27  F   UNL     1      47.059   0.963   6.644  0.00  0.00    +0.000 F 
ATOM     28  F   UNL     1      47.755   2.414   5.171  0.00  0.00    +0.000 F 
ATOM     29  F   UNL     1      48.160   2.741   7.297  0.00  0.00    +0.000 F 
ENDBRANCH  25  26
ENDBRANCH  22  25
ENDBRANCH  16  19
ENDBRANCH   1  16
TORSDOF 7
ENDMDL
MODEL 3
REMARK VINA RESULT:    -7.495      4.086      6.838
REMARK INTER + INTRA:         -11.547
REMARK INTER:                 -10.754
REMARK INTRA:                  -0.793
REMARK UNBOUND:                -0.985
REMARK  Name = 
REMARK  8 active torsions:
REMARK  status: ('A' for Active; 'I' for Inactive)
REMARK    1  A    between atoms: C_1  and  O_2
REMARK    2  A    between atoms: O_2  and  C_3
REMARK    3  A    between atoms: C_5  and  C_6
REMARK    4  A    between atoms: C_11  and  N_12
REMARK    5  A    between atoms: N_12  and  C_13
REMARK    6  A    between atoms: C_13  and  C_14
REMARK    7  A    between atoms: C_17  and  O_18
REMARK    8  A    between atoms: O_18  and  C_19
REMARK                            x       y       z     vdW  Elec       q    Type
REMARK                         _______ _______ _______ _____ _____    ______ ____
ROOT
ATOM      1  N   UNL     1      44.948   4.780  12.835  0.00  0.00    +0.000 N 
ATOM      2  H   UNL     1      44.506   4.341  13.638  0.00  0.00    +0.000 HD
ENDROOT
BRANCH   1   8
ATOM      3  C   UNL     1      47.006   5.035  14.256  0.00  0.00    +0.000 A 
ATOM      4  C   UNL     1      48.095   5.881  14.530  0.00  0.00    +0.000 A 
ATOM      5  C   UNL     1      48.235   7.111  13.875  0.00  0.00    +0.000 A 
ATOM      6  C   UNL     1      47.271   7.434  12.947  0.00  0.00    +0.000 A 
ATOM      7  N   UNL     1      46.220   6.638  12.640  0.00  0.00    +0.000 NA
ATOM      8  C   UNL     1      46.087   5.444  13.275  0.00  0.00    +0.000 A 
BRANCH   5   9
ATOM      9  C   UNL     1      49.376   7.991  14.221  0.00  0.00    +0.000 C 
ATOM     10  N   UNL     1      50.583   7.423  14.531  0.00  0.00    +0.000 N 
ATOM     11  O   UNL     1      49.256   9.206  14.227  0.00  0.00    +0.000 OA
ATOM     12  H   UNL     1      50.791   6.439  14.570  0.00  0.00    +0.000 HD
ATOM     13  H   UNL     1      51.334   8.066  14.754  0.00  0.00    +0.000 HD
ENDBRANCH   5   9
BRANCH   3  15
ATOM     14  C   UNL     1      47.569   3.654  16.118  0.00  0.00    +0.000 C 
ATOM     15  O   UNL     1      46.818   3.849  14.919  0.00  0.00    +0.000 OA
ENDBRANCH   3  15
ENDBRANCH   1   8
BRANCH   1  16
ATOM     16  C   UNL     1      44.177   4.911  11.608  0.00  0.00    +0.000 C 
ATOM     17  C   UNL     1      43.151   6.003  11.381  0.00  0.00    +0.000 C 
ATOM     18  C   UNL     1      42.670   4.633  11.703  0.00  0.00    +0.000 C 
BRANCH  16  19
ATOM     19  C   UNL     1      44.871   4.325  10.382  0.00  0.00    +0.000 A 
ATOM     20  C   UNL     1      44.771   2.961  10.053  0.00  0.00    +0.000 A 
ATOM     21  C   UNL     1      45.169   2.482   8.804  0.00  0.00    +0.000 A 
ATOM     22  C   UNL     1      45.678   3.365   7.859  0.00  0.00    +0.000 A 
ATOM     23  C   UNL     1      45.953   4.680   8.232  0.00  0.00    +0.000 A 
ATOM     24  C   UNL     1      45.556   5.152   9.483  0.00  0.00    +0.000 A 
BRANCH  22  25
ATOM     25  O   UNL     1      45.980   3.040   6.573  0.00  0.00    +0.000 OA
BRANCH  25  26
ATOM     26  C   UNL     1      47.175   2.299   6.339  0.00  0.00    +0.000 C 
ATOM     27  F   UNL     1      48.184   2.562   7.197  0.00  0.00    +0.000 F 
ATOM     28  F   UNL     1      46.895   0.978   6.429  0.00  0.00    +0.000 F 
ATOM     29  F   UNL     1      47.605   2.552   5.084  0.00  0.00    +0.000 F 
ENDBRANCH  25  26
ENDBRANCH  22  25
ENDBRANCH  16  19
ENDBRANCH   1  16
TORSDOF 7
ENDMDL
MODEL 4
REMARK VINA RESULT:    -6.747      2.334      2.998
REMARK INTER + INTRA:         -10.493
REMARK INTER:                 -10.204
REMARK INTRA:                  -0.289
REMARK UNBOUND:                -0.985
REMARK  Name = 
REMARK  8 active torsions:
REMARK  status: ('A' for Active; 'I' for Inactive)
REMARK    1  A    between atoms: C_1  and  O_2
REMARK    2  A    between atoms: O_2  and  C_3
REMARK    3  A    between atoms: C_5  and  C_6
REMARK    4  A    between atoms: C_11  and  N_12
REMARK    5  A    between atoms: N_12  and  C_13
REMARK    6  A    between atoms: C_13  and  C_14
REMARK    7  A    between atoms: C_17  and  O_18
REMARK    8  A    between atoms: O_18  and  C_19
REMARK                            x       y       z     vdW  Elec       q    Type
REMARK                         _______ _______ _______ _____ _____    ______ ____
ROOT
ATOM      1  N   UNL     1      43.650   3.765  10.543  0.00  0.00    +0.000 N 
ATOM      2  H   UNL     1      42.903   3.077  10.561  0.00  0.00    +0.000 HD
ENDROOT
BRANCH   1   8
ATOM      3  C   UNL     1      45.452   4.146   8.833  0.00  0.00    +0.000 A 
ATOM      4  C   UNL     1      46.343   3.494   7.961  0.00  0.00    +0.000 A 
ATOM      5  C   UNL     1      46.349   2.098   7.849  0.00  0.00    +0.000 A 
ATOM      6  C   UNL     1      45.461   1.407   8.641  0.00  0.00    +0.000 A 
ATOM      7  N   UNL     1      44.603   1.996   9.508  0.00  0.00    +0.000 NA
ATOM      8  C   UNL     1      44.600   3.351   9.618  0.00  0.00    +0.000 A 
BRANCH   5   9
ATOM      9  C   UNL     1      47.277   1.453   6.890  0.00  0.00    +0.000 C 
ATOM     10  N   UNL     1      48.370   2.149   6.452  0.00  0.00    +0.000 N 
ATOM     11  O   UNL     1      47.081   0.313   6.495  0.00  0.00    +0.000 OA
ATOM     12  H   UNL     1      48.620   3.092   6.699  0.00  0.00    +0.000 HD
ATOM     13  H   UNL     1      48.977   1.662   5.802  0.00  0.00    +0.000 HD
ENDBRANCH   5   9
BRANCH   3  15
ATOM     14  C   UNL     1      46.477   6.165   9.585  0.00  0.00    +0.000 C 
ATOM     15  O   UNL     1      45.391   5.513   8.925  0.00  0.00    +0.000 OA
ENDBRANCH   3  15
ENDBRANCH   1   8
BRANCH   1  16
ATOM     16  C   UNL     1      43.730   4.727  11.632  0.00  0.00    +0.000 C 
ATOM     17  C   UNL     1      42.514   5.253  12.368  0.00  0.00    +0.000 C 
ATOM     18  C   UNL     1      43.167   6.129  11.360  0.00  0.00    +0.000 C 
BRANCH  16  19
ATOM     19  C   UNL     1      45.055   4.692  12.387  0.00  0.00    +0.000 A 
ATOM     20  C   UNL     1      45.648   5.860  12.900  0.00  0.00    +0.000 A 
ATOM     21  C   UNL     1      46.702   5.801  13.813  0.00  0.00    +0.000 A 
ATOM     22  C   UNL     1      47.184   4.564  14.227  0.00  0.00    +0.000 A 
ATOM     23  C   UNL     1      46.733   3.407  13.592  0.00  0.00    +0.000 A 
ATOM     24  C   UNL     1      45.681   3.474  12.679  0.00  0.00    +0.000 A 
BRANCH  22  25
ATOM     25  O   UNL     1      48.116   4.379  15.200  0.00  0.00    +0.000 OA
BRANCH  25  26
ATOM     26  C   UNL     1      47.666   3.925  16.474  0.00  0.00    +0.000 C 
ATOM     27  F   UNL     1      48.269   4.509  17.531  0.00  0.00    +0.000 F 
ATOM     28  F   UNL     1      46.337   4.163  16.578  0.00  0.00    +0.000 F 
ATOM     29  F   UNL     1      47.860   2.591  16.553  0.00  0.00    +0.000 F 
ENDBRANCH  25  26
ENDBRANCH  22  25
ENDBRANCH  16  19
ENDBRANCH   1  16
TORSDOF 7
ENDMDL
MODEL 5
REMARK VINA RESULT:    -6.548      2.089      2.656
REMARK INTER + INTRA:         -10.212
REMARK INTER:                  -9.336
REMARK INTRA:                  -0.876
REMARK UNBOUND:                -0.985
REMARK  Name = 
REMARK  8 active torsions:
REMARK  status: ('A' for Active; 'I' for Inactive)
REMARK    1  A    between atoms: C_1  and  O_2
REMARK    2  A    between atoms: O_2  and  C_3
REMARK    3  A    between atoms: C_5  and  C_6
REMARK    4  A    between atoms: C_11  and  N_12
REMARK    5  A    between atoms: N_12  and  C_13
REMARK    6  A    between atoms: C_13  and  C_14
REMARK    7  A    between atoms: C_17  and  O_18
REMARK    8  A    between atoms: O_18  and  C_19
REMARK                            x       y       z     vdW  Elec       q    Type
REMARK                         _______ _______ _______ _____ _____    ______ ____
ROOT
ATOM      1  N   UNL     1      44.274   5.975  10.263  0.00  0.00    +0.000 N 
ATOM      2  H   UNL     1      43.300   6.098  10.004  0.00  0.00    +0.000 HD
ENDROOT
BRANCH   1   8
ATOM      3  C   UNL     1      44.261   3.474  10.016  0.00  0.00    +0.000 A 
ATOM      4  C   UNL     1      44.867   2.399   9.339  0.00  0.00    +0.000 A 
ATOM      5  C   UNL     1      45.919   2.615   8.440  0.00  0.00    +0.000 A 
ATOM      6  C   UNL     1      46.311   3.919   8.243  0.00  0.00    +0.000 A 
ATOM      7  N   UNL     1      45.740   4.982   8.859  0.00  0.00    +0.000 NA
ATOM      8  C   UNL     1      44.718   4.772   9.729  0.00  0.00    +0.000 A 
BRANCH   5   9
ATOM      9  C   UNL     1      46.555   1.452   7.778  0.00  0.00    +0.000 C 
ATOM     10  N   UNL     1      47.492   1.672   6.805  0.00  0.00    +0.000 N 
ATOM     11  O   UNL     1      46.260   0.308   8.092  0.00  0.00    +0.000 OA
ATOM     12  H   UNL     1      47.800   2.565   6.459  0.00  0.00    +0.000 HD
ATOM     13  H   UNL     1      47.903   0.844   6.387  0.00  0.00    +0.000 HD
ENDBRANCH   5   9
BRANCH   3  15
ATOM     14  C   UNL     1      43.420   2.194  11.845  0.00  0.00    +0.000 C 
ATOM     15  O   UNL     1      43.264   3.287  10.938  0.00  0.00    +0.000 OA
ENDBRANCH   3  15
ENDBRANCH   1   8
BRANCH   1  16
ATOM     16  C   UNL     1      44.817   6.809  11.325  0.00  0.00    +0.000 C 
ATOM     17  C   UNL     1      44.254   8.169  11.686  0.00  0.00    +0.000 C 
ATOM     18  C   UNL     1      45.513   8.110  10.897  0.00  0.00    +0.000 C 
BRANCH  16  19
ATOM     19  C   UNL     1      45.527   6.022  12.422  0.00  0.00    +0.000 A 
ATOM     20  C   UNL     1      44.819   5.226  13.341  0.00  0.00    +0.000 A 
ATOM     21  C   UNL     1      45.472   4.303  14.160  0.00  0.00    +0.000 A 
ATOM     22  C   UNL     1      46.852   4.164  14.073  0.00  0.00    +0.000 A 
ATOM     23  C   UNL     1      47.584   5.069  13.305  0.00  0.00    +0.000 A 
ATOM     24  C   UNL     1      46.925   5.991  12.491  0.00  0.00    +0.000 A 
BRANCH  22  25
ATOM     25  O   UNL     1      47.580   3.217  14.724  0.00  0.00    +0.000 OA
BRANCH  25  26
ATOM     26  C   UNL     1      47.875   3.437  16.101  0.00  0.00    +0.000 C 
ATOM     27  F   UNL     1      48.805   2.608  16.622  0.00  0.00    +0.000 F 
ATOM     28  F   UNL     1      48.324   4.705  16.255  0.00  0.00    +0.000 F 
ATOM     29  F   UNL     1      46.737   3.306  16.816  0.00  0.00    +0.000 F 
ENDBRANCH  25  26
ENDBRANCH  22  25
ENDBRANCH  16  19
ENDBRANCH   1  16
TORSDOF 7
ENDMDL
MODEL 6
REMARK VINA RESULT:    -6.296      4.804      8.052
REMARK INTER + INTRA:          -9.858
REMARK INTER:                  -9.286
REMARK INTRA:                  -0.572
REMARK UNBOUND:                -0.985
REMARK  Name = 
REMARK  8 active torsions:
REMARK  status: ('A' for Active; 'I' for Inactive)
REMARK    1  A    between atoms: C_1  and  O_2
REMARK    2  A    between atoms: O_2  and  C_3
REMARK    3  A    between atoms: C_5  and  C_6
REMARK    4  A    between atoms: C_11  and  N_12
REMARK    5  A    between atoms: N_12  and  C_13
REMARK    6  A    between atoms: C_13  and  C_14
REMARK    7  A    between atoms: C_17  and  O_18
REMARK    8  A    between atoms: O_18  and  C_19
REMARK                            x       y       z     vdW  Elec       q    Type
REMARK                         _______ _______ _______ _____ _____    ______ ____
ROOT
ATOM      1  N   UNL     1      48.096   6.058  13.530  0.00  0.00    +0.000 N 
ATOM      2  H   UNL     1      48.666   5.368  13.050  0.00  0.00    +0.000 HD
ENDROOT
BRANCH   1   8
ATOM      3  C   UNL     1      48.873   6.682  15.838  0.00  0.00    +0.000 A 
ATOM      4  C   UNL     1      48.879   6.268  17.182  0.00  0.00    +0.000 A 
ATOM      5  C   UNL     1      48.301   5.050  17.563  0.00  0.00    +0.000 A 
ATOM      6  C   UNL     1      47.719   4.299  16.567  0.00  0.00    +0.000 A 
ATOM      7  N   UNL     1      47.674   4.674  15.266  0.00  0.00    +0.000 NA
ATOM      8  C   UNL     1      48.233   5.856  14.898  0.00  0.00    +0.000 A 
BRANCH   5   9
ATOM      9  C   UNL     1      48.363   4.633  18.984  0.00  0.00    +0.000 C 
ATOM     10  N   UNL     1      48.345   3.298  19.285  0.00  0.00    +0.000 N 
ATOM     11  O   UNL     1      48.436   5.459  19.881  0.00  0.00    +0.000 OA
ATOM     12  H   UNL     1      48.275   2.536  18.632  0.00  0.00    +0.000 HD
ATOM     13  H   UNL     1      48.396   3.063  20.270  0.00  0.00    +0.000 HD
ENDBRANCH   5   9
BRANCH   3  15
ATOM     14  C   UNL     1      50.860   7.770  15.091  0.00  0.00    +0.000 C 
ATOM     15  O   UNL     1      49.475   7.845  15.430  0.00  0.00    +0.000 OA
ENDBRANCH   3  15
ENDBRANCH   1   8
BRANCH   1  16
ATOM     16  C   UNL     1      47.091   6.779  12.764  0.00  0.00    +0.000 C 
ATOM     17  C   UNL     1      47.342   8.130  12.125  0.00  0.00    +0.000 C 
ATOM     18  C   UNL     1      46.549   8.076  13.381  0.00  0.00    +0.000 C 
BRANCH  16  19
ATOM     19  C   UNL     1      46.043   5.876  12.122  0.00  0.00    +0.000 A 
ATOM     20  C   UNL     1      45.579   6.092  10.812  0.00  0.00    +0.000 A 
ATOM     21  C   UNL     1      44.836   5.124  10.133  0.00  0.00    +0.000 A 
ATOM     22  C   UNL     1      44.543   3.918  10.760  0.00  0.00    +0.000 A 
ATOM     23  C   UNL     1      44.836   3.763  12.115  0.00  0.00    +0.000 A 
ATOM     24  C   UNL     1      45.576   4.736  12.788  0.00  0.00    +0.000 A 
BRANCH  22  25
ATOM     25  O   UNL     1      43.940   2.856  10.161  0.00  0.00    +0.000 OA
BRANCH  25  26
ATOM     26  C   UNL     1      44.611   2.244   9.062  0.00  0.00    +0.000 C 
ATOM     27  F   UNL     1      44.438   2.864   7.875  0.00  0.00    +0.000 F 
ATOM     28  F   UNL     1      45.939   2.219   9.321  0.00  0.00    +0.000 F 
ATOM     29  F   UNL     1      44.182   0.969   8.946  0.00  0.00    +0.000 F 
ENDBRANCH  25  26
ENDBRANCH  22  25
ENDBRANCH  16  19
ENDBRANCH   1  16
TORSDOF 7
ENDMDL
MODEL 7
REMARK VINA RESULT:    -6.244      4.388      7.323
REMARK INTER + INTRA:          -9.784
REMARK INTER:                  -9.686
REMARK INTRA:                  -0.098
REMARK UNBOUND:                -0.985
REMARK  Name = 
REMARK  8 active torsions:
REMARK  status: ('A' for Active; 'I' for Inactive)
REMARK    1  A    between atoms: C_1  and  O_2
REMARK    2  A    between atoms: O_2  and  C_3
REMARK    3  A    between atoms: C_5  and  C_6
REMARK    4  A    between atoms: C_11  and  N_12
REMARK    5  A    between atoms: N_12  and  C_13
REMARK    6  A    between atoms: C_13  and  C_14
REMARK    7  A    between atoms: C_17  and  O_18
REMARK    8  A    between atoms: O_18  and  C_19
REMARK                            x       y       z     vdW  Elec       q    Type
REMARK                         _______ _______ _______ _____ _____    ______ ____
ROOT
ATOM      1  N   UNL     1      46.858   6.022  12.233  0.00  0.00    +0.000 N 
ATOM      2  H   UNL     1      47.696   6.010  11.660  0.00  0.00    +0.000 HD
ENDROOT
BRANCH   1   8
ATOM      3  C   UNL     1      47.938   6.283  14.488  0.00  0.00    +0.000 A 
ATOM      4  C   UNL     1      48.155   5.642  15.721  0.00  0.00    +0.000 A 
ATOM      5  C   UNL     1      47.685   4.343  15.951  0.00  0.00    +0.000 A 
ATOM      6  C   UNL     1      46.992   3.742  14.924  0.00  0.00    +0.000 A 
ATOM      7  N   UNL     1      46.744   4.333  13.731  0.00  0.00    +0.000 NA
ATOM      8  C   UNL     1      47.199   5.595  13.511  0.00  0.00    +0.000 A 
BRANCH   5   9
ATOM      9  C   UNL     1      47.969   3.689  17.250  0.00  0.00    +0.000 C 
ATOM     10  N   UNL     1      47.399   4.195  18.387  0.00  0.00    +0.000 N 
ATOM     11  O   UNL     1      48.694   2.708  17.316  0.00  0.00    +0.000 OA
ATOM     12  H   UNL     1      46.800   5.001  18.451  0.00  0.00    +0.000 HD
ATOM     13  H   UNL     1      47.618   3.709  19.249  0.00  0.00    +0.000 HD
ENDBRANCH   5   9
BRANCH   3  15
ATOM     14  C   UNL     1      48.467   8.460  15.306  0.00  0.00    +0.000 C 
ATOM     15  O   UNL     1      48.430   7.534  14.219  0.00  0.00    +0.000 OA
ENDBRANCH   3  15
ENDBRANCH   1   8
BRANCH   1  16
ATOM     16  C   UNL     1      45.566   6.116  11.569  0.00  0.00    +0.000 C 
ATOM     17  C   UNL     1      44.780   7.406  11.458  0.00  0.00    +0.000 C 
ATOM     18  C   UNL     1      44.348   6.396  12.460  0.00  0.00    +0.000 C 
BRANCH  16  19
ATOM     19  C   UNL     1      45.354   5.061  10.488  0.00  0.00    +0.000 A 
ATOM     20  C   UNL     1      45.736   5.280   9.152  0.00  0.00    +0.000 A 
ATOM     21  C   UNL     1      45.795   4.234   8.230  0.00  0.00    +0.000 A 
ATOM     22  C   UNL     1      45.467   2.944   8.632  0.00  0.00    +0.000 A 
ATOM     23  C   UNL     1      44.913   2.743   9.896  0.00  0.00    +0.000 A 
ATOM     24  C   UNL     1      44.855   3.794  10.812  0.00  0.00    +0.000 A 
BRANCH  22  25
ATOM     25  O   UNL     1      45.606   1.830   7.864  0.00  0.00    +0.000 OA
BRANCH  25  26
ATOM     26  C   UNL     1      46.738   1.756   7.000  0.00  0.00    +0.000 C 
ATOM     27  F   UNL     1      47.858   2.337   7.482  0.00  0.00    +0.000 F 
ATOM     28  F   UNL     1      47.021   0.455   6.762  0.00  0.00    +0.000 F 
ATOM     29  F   UNL     1      46.426   2.340   5.823  0.00  0.00    +0.000 F 
ENDBRANCH  25  26
ENDBRANCH  22  25
ENDBRANCH  16  19
ENDBRANCH   1  16
TORSDOF 7
ENDMDL
MODEL 8
REMARK VINA RESULT:    -6.151      4.798      7.586
REMARK INTER + INTRA:          -9.653
REMARK INTER:                  -8.347
REMARK INTRA:                  -1.307
REMARK UNBOUND:                -0.985
REMARK  Name = 
REMARK  8 active torsions:
REMARK  status: ('A' for Active; 'I' for Inactive)
REMARK    1  A    between atoms: C_1  and  O_2
REMARK    2  A    between atoms: O_2  and  C_3
REMARK    3  A    between atoms: C_5  and  C_6
REMARK    4  A    between atoms: C_11  and  N_12
REMARK    5  A    between atoms: N_12  and  C_13
REMARK    6  A    between atoms: C_13  and  C_14
REMARK    7  A    between atoms: C_17  and  O_18
REMARK    8  A    between atoms: O_18  and  C_19
REMARK                            x       y       z     vdW  Elec       q    Type
REMARK                         _______ _______ _______ _____ _____    ______ ____
ROOT
ATOM      1  N   UNL     1      47.643   7.193  14.703  0.00  0.00    +0.000 N 
ATOM      2  H   UNL     1      47.227   7.909  15.291  0.00  0.00    +0.000 HD
ENDROOT
BRANCH   1   8
ATOM      3  C   UNL     1      47.896   4.933  15.774  0.00  0.00    +0.000 A 
ATOM      4  C   UNL     1      48.697   4.178  16.650  0.00  0.00    +0.000 A 
ATOM      5  C   UNL     1      49.807   4.750  17.285  0.00  0.00    +0.000 A 
ATOM      6  C   UNL     1      50.079   6.068  16.996  0.00  0.00    +0.000 A 
ATOM      7  N   UNL     1      49.345   6.822  16.142  0.00  0.00    +0.000 NA
ATOM      8  C   UNL     1      48.270   6.265  15.525  0.00  0.00    +0.000 A 
BRANCH   5   9
ATOM      9  C   UNL     1      50.602   3.931  18.230  0.00  0.00    +0.000 C 
ATOM     10  N   UNL     1      50.711   2.584  18.013  0.00  0.00    +0.000 N 
ATOM     11  O   UNL     1      51.161   4.441  19.190  0.00  0.00    +0.000 OA
ATOM     12  H   UNL     1      50.285   2.060  17.268  0.00  0.00    +0.000 HD
ATOM     13  H   UNL     1      51.271   2.069  18.684  0.00  0.00    +0.000 HD
ENDBRANCH   5   9
BRANCH   3  15
ATOM     14  C   UNL     1      46.977   3.619  14.008  0.00  0.00    +0.000 C 
ATOM     15  O   UNL     1      46.776   4.414  15.178  0.00  0.00    +0.000 OA
ENDBRANCH   3  15
ENDBRANCH   1   8
BRANCH   1  16
ATOM     16  C   UNL     1      47.791   7.467  13.281  0.00  0.00    +0.000 C 
ATOM     17  C   UNL     1      49.131   7.692  12.612  0.00  0.00    +0.000 C 
ATOM     18  C   UNL     1      48.272   8.872  12.893  0.00  0.00    +0.000 C 
BRANCH  16  19
ATOM     19  C   UNL     1      46.657   6.908  12.427  0.00  0.00    +0.000 A 
ATOM     20  C   UNL     1      46.856   6.524  11.088  0.00  0.00    +0.000 A 
ATOM     21  C   UNL     1      45.907   5.769  10.398  0.00  0.00    +0.000 A 
ATOM     22  C   UNL     1      44.735   5.385  11.040  0.00  0.00    +0.000 A 
ATOM     23  C   UNL     1      44.442   5.910  12.299  0.00  0.00    +0.000 A 
ATOM     24  C   UNL     1      45.394   6.667  12.982  0.00  0.00    +0.000 A 
BRANCH  22  25
ATOM     25  O   UNL     1      43.799   4.549  10.516  0.00  0.00    +0.000 OA
BRANCH  25  26
ATOM     26  C   UNL     1      43.973   3.149  10.716  0.00  0.00    +0.000 C 
ATOM     27  F   UNL     1      45.141   2.800  11.297  0.00  0.00    +0.000 F 
ATOM     28  F   UNL     1      42.972   2.692  11.504  0.00  0.00    +0.000 F 
ATOM     29  F   UNL     1      43.885   2.524   9.522  0.00  0.00    +0.000 F 
ENDBRANCH  25  26
ENDBRANCH  22  25
ENDBRANCH  16  19
ENDBRANCH   1  16
TORSDOF 7
ENDMDL
MODEL 9
REMARK VINA RESULT:    -5.921      4.742      7.750
REMARK INTER + INTRA:          -9.329
REMARK INTER:                  -8.390
REMARK INTRA:                  -0.939
REMARK UNBOUND:                -0.985
REMARK  Name = 
REMARK  8 active torsions:
REMARK  status: ('A' for Active; 'I' for Inactive)
REMARK    1  A    between atoms: C_1  and  O_2
REMARK    2  A    between atoms: O_2  and  C_3
REMARK    3  A    between atoms: C_5  and  C_6
REMARK    4  A    between atoms: C_11  and  N_12
REMARK    5  A    between atoms: N_12  and  C_13
REMARK    6  A    between atoms: C_13  and  C_14
REMARK    7  A    between atoms: C_17  and  O_18
REMARK    8  A    between atoms: O_18  and  C_19
REMARK                            x       y       z     vdW  Elec       q    Type
REMARK                         _______ _______ _______ _____ _____    ______ ____
ROOT
ATOM      1  N   UNL     1      48.821   7.849  14.380  0.00  0.00    +0.000 N 
ATOM      2  H   UNL     1      49.274   8.631  14.844  0.00  0.00    +0.000 HD
ENDROOT
BRANCH   1   8
ATOM      3  C   UNL     1      48.975   6.839  16.677  0.00  0.00    +0.000 A 
ATOM      4  C   UNL     1      48.610   5.722  17.450  0.00  0.00    +0.000 A 
ATOM      5  C   UNL     1      47.913   4.649  16.881  0.00  0.00    +0.000 A 
ATOM      6  C   UNL     1      47.593   4.753  15.546  0.00  0.00    +0.000 A 
ATOM      7  N   UNL     1      47.907   5.820  14.774  0.00  0.00    +0.000 NA
ATOM      8  C   UNL     1      48.582   6.862  15.328  0.00  0.00    +0.000 A 
BRANCH   5   9
ATOM      9  C   UNL     1      47.581   3.474  17.721  0.00  0.00    +0.000 C 
ATOM     10  N   UNL     1      48.391   3.165  18.780  0.00  0.00    +0.000 N 
ATOM     11  O   UNL     1      46.597   2.789  17.486  0.00  0.00    +0.000 OA
ATOM     12  H   UNL     1      49.228   3.649  19.057  0.00  0.00    +0.000 HD
ATOM     13  H   UNL     1      48.118   2.357  19.328  0.00  0.00    +0.000 HD
ENDBRANCH   5   9
BRANCH   3  15
ATOM     14  C   UNL     1      49.253   8.422  18.439  0.00  0.00    +0.000 C 
ATOM     15  O   UNL     1      49.701   7.880  17.196  0.00  0.00    +0.000 OA
ENDBRANCH   3  15
ENDBRANCH   1   8
BRANCH   1  16
ATOM     16  C   UNL     1      48.857   7.793  12.927  0.00  0.00    +0.000 C 
ATOM     17  C   UNL     1      50.056   7.298  12.142  0.00  0.00    +0.000 C 
ATOM     18  C   UNL     1      49.813   8.763  12.219  0.00  0.00    +0.000 C 
BRANCH  16  19
ATOM     19  C   UNL     1      47.481   7.650  12.283  0.00  0.00    +0.000 A 
ATOM     20  C   UNL     1      47.205   6.644  11.339  0.00  0.00    +0.000 A 
ATOM     21  C   UNL     1      45.895   6.342  10.959  0.00  0.00    +0.000 A 
ATOM     22  C   UNL     1      44.837   7.048  11.520  0.00  0.00    +0.000 A 
ATOM     23  C   UNL     1      45.103   8.163  12.313  0.00  0.00    +0.000 A 
ATOM     24  C   UNL     1      46.414   8.461  12.687  0.00  0.00    +0.000 A 
BRANCH  22  25
ATOM     25  O   UNL     1      43.521   6.762  11.325  0.00  0.00    +0.000 OA
BRANCH  25  26
ATOM     26  C   UNL     1      43.011   5.561  11.899  0.00  0.00    +0.000 C 
ATOM     27  F   UNL     1      43.427   4.425  11.301  0.00  0.00    +0.000 F 
ATOM     28  F   UNL     1      43.388   5.503  13.197  0.00  0.00    +0.000 F 
ATOM     29  F   UNL     1      41.661   5.598  11.855  0.00  0.00    +0.000 F 
ENDBRANCH  25  26
ENDBRANCH  22  25
ENDBRANCH  16  19
ENDBRANCH   1  16
TORSDOF 7
ENDMDL
