MODEL 1
REMARK VINA RESULT:    -8.330      0.000      0.000
REMARK INTER + INTRA:         -13.240
REMARK INTER:                 -12.226
REMARK INTRA:                  -1.015
REMARK UNBOUND:                -1.015
REMARK  Name = 
REMARK  9 active torsions:
REMARK  status: ('A' for Active; 'I' for Inactive)
REMARK    1  A    between atoms: C_1  and  C_2
REMARK    2  A    between atoms: C_2  and  O_3
REMARK    3  A    between atoms: O_3  and  C_4
REMARK    4  A    between atoms: C_4  and  C_5
REMARK    5  A    between atoms: C_4  and  C_19
REMARK    6  A    between atoms: C_5  and  N_6
REMARK    7  A    between atoms: C_7  and  C_9
REMARK    8  A    between atoms: C_22  and  O_23
REMARK    9  A    between atoms: O_23  and  C_24
REMARK                            x       y       z     vdW  Elec       q    Type
REMARK                         _______ _______ _______ _____ _____    ______ ____
ROOT
ATOM      1  C   UNL     1      46.288   5.987  13.192  0.00  0.00    +0.000 C 
ENDROOT
BRANCH   1   2
ATOM      2  C   UNL     1      45.878   5.262  11.906  0.00  0.00    +0.000 A 
ATOM      3  C   UNL     1      45.300   3.983  11.981  0.00  0.00    +0.000 A 
ATOM      4  C   UNL     1      44.921   3.290  10.829  0.00  0.00    +0.000 A 
ATOM      5  C   UNL     1      45.054   3.885   9.575  0.00  0.00    +0.000 A 
ATOM      6  C   UNL     1      45.635   5.145   9.474  0.00  0.00    +0.000 A 
ATOM      7  C   UNL     1      46.027   5.834  10.630  0.00  0.00    +0.000 A 
BRANCH   5   8
ATOM      8  O   UNL     1      44.697   3.262   8.401  0.00  0.00    +0.000 OA
BRANCH   8   9
ATOM      9  C   UNL     1      45.709   2.670   7.652  0.00  0.00    +0.000 A 
ATOM     10  C   UNL     1      46.100   3.334   6.499  0.00  0.00    +0.000 A 
ATOM     11  C   UNL     1      47.139   2.790   5.749  0.00  0.00    +0.000 A 
ATOM     12  C   UNL     1      47.744   1.610   6.173  0.00  0.00    +0.000 A 
ATOM     13  C   UNL     1      47.264   1.002   7.320  0.00  0.00    +0.000 A 
ATOM     14  N   UNL     1      46.253   1.499   8.058  0.00  0.00    +0.000 NA
ENDBRANCH   8   9
ENDBRANCH   5   8
ENDBRANCH   1   2
BRANCH   1  15
ATOM     15  O   UNL     1      45.458   7.164  13.305  0.00  0.00    +0.000 OA
BRANCH  15  17
ATOM     16  C   UNL     1      45.427   9.328  12.304  0.00  0.00    +0.000 C 
ATOM     17  C   UNL     1      46.165   8.397  13.248  0.00  0.00    +0.000 C 
ENDBRANCH  15  17
ENDBRANCH   1  15
BRANCH   1  18
ATOM     18  C   UNL     1      46.196   5.131  14.482  0.00  0.00    +0.000 C 
BRANCH  18  19
ATOM     19  N   UNL     1      47.441   5.118  15.232  0.00  0.00    +0.000 N 
ATOM     20  C   UNL     1      47.596   4.400  16.391  0.00  0.00    +0.000 C 
ATOM     21  O   UNL     1      46.721   3.659  16.826  0.00  0.00    +0.000 OA
ATOM     22  H   UNL     1      48.113   5.838  14.995  0.00  0.00    +0.000 HD
BRANCH  20  23
ATOM     23  C   UNL     1      48.917   4.501  17.021  0.00  0.00    +0.000 A 
ATOM     24  C   UNL     1      49.345   5.695  17.580  0.00  0.00    +0.000 A 
ATOM     25  S   UNL     1      50.839   5.557  18.401  0.00  0.00    +0.000 S 
ATOM     26  C   UNL     1      50.988   3.915  17.979  0.00  0.00    +0.000 A 
ATOM     27  N   UNL     1      52.040   3.159  18.398  0.00  0.00    +0.000 NA
ATOM     28  C   UNL     1      52.020   1.938  17.975  0.00  0.00    +0.000 A 
ATOM     29  N   UNL     1      51.062   1.411  17.148  0.00  0.00    +0.000 N 
ATOM     30  C   UNL     1      50.016   2.151  16.664  0.00  0.00    +0.000 A 
ATOM     31  O   UNL     1      49.226   1.692  15.848  0.00  0.00    +0.000 OA
ATOM     32  C   UNL     1      49.938   3.498  17.182  0.00  0.00    +0.000 A 
ATOM     33  H   UNL     1      51.123   0.459  16.813  0.00  0.00    +0.000 HD
ENDBRANCH  20  23
ENDBRANCH  18  19
ENDBRANCH   1  18
TORSDOF 8
ENDMDL
MODEL 2
REMARK VINA RESULT:    -7.717      1.887      2.582
REMARK INTER + INTRA:         -12.341
REMARK INTER:                 -11.189
REMARK INTRA:                  -1.152
REMARK UNBOUND:                -1.015
REMARK  Name = 
REMARK  9 active torsions:
REMARK  status: ('A' for Active; 'I' for Inactive)
REMARK    1  A    between atoms: C_1  and  C_2
REMARK    2  A    between atoms: C_2  and  O_3
REMARK    3  A    between atoms: O_3  and  C_4
REMARK    4  A    between atoms: C_4  and  C_5
REMARK    5  A    between atoms: C_4  and  C_19
REMARK    6  A    between atoms: C_5  and  N_6
REMARK    7  A    between atoms: C_7  and  C_9
REMARK    8  A    between atoms: C_22  and  O_23
REMARK    9  A    between atoms: O_23  and  C_24
REMARK                            x       y       z     vdW  Elec       q    Type
REMARK                         _______ _______ _______ _____ _____    ______ ____
ROOT
ATOM      1  C   UNL     1      48.286   6.682  14.566  0.00  0.00    +0.000 C 
ENDROOT
BRANCH   1   2
ATOM      2  C   UNL     1      47.337   6.229  13.453  0.00  0.00    +0.000 A 
ATOM      3  C   UNL     1      46.480   5.136  13.669  0.00  0.00    +0.000 A 
ATOM      4  C   UNL     1      45.606   4.691  12.674  0.00  0.00    +0.000 A 
ATOM      5  C   UNL     1      45.523   5.367  11.458  0.00  0.00    +0.000 A 
ATOM      6  C   UNL     1      46.369   6.445  11.216  0.00  0.00    +0.000 A 
ATOM      7  C   UNL     1      47.254   6.882  12.210  0.00  0.00    +0.000 A 
BRANCH   5   8
ATOM      8  O   UNL     1      44.682   4.987  10.437  0.00  0.00    +0.000 OA
BRANCH   8   9
ATOM      9  C   UNL     1      45.190   4.124   9.472  0.00  0.00    +0.000 A 
ATOM     10  C   UNL     1      45.032   2.766   9.706  0.00  0.00    +0.000 A 
ATOM     11  C   UNL     1      45.493   1.877   8.739  0.00  0.00    +0.000 A 
ATOM     12  C   UNL     1      46.095   2.371   7.585  0.00  0.00    +0.000 A 
ATOM     13  C   UNL     1      46.237   3.741   7.454  0.00  0.00    +0.000 A 
ATOM     14  N   UNL     1      45.811   4.624   8.379  0.00  0.00    +0.000 NA
ENDBRANCH   8   9
ENDBRANCH   5   8
ENDBRANCH   1   2
BRANCH   1  15
ATOM     15  O   UNL     1      48.115   8.109  14.723  0.00  0.00    +0.000 OA
BRANCH  15  17
ATOM     16  C   UNL     1      50.377   8.172  13.976  0.00  0.00    +0.000 C 
ATOM     17  C   UNL     1      49.328   8.843  14.842  0.00  0.00    +0.000 C 
ENDBRANCH  15  17
ENDBRANCH   1  15
BRANCH   1  18
ATOM     18  C   UNL     1      48.093   5.959  15.924  0.00  0.00    +0.000 C 
BRANCH  18  19
ATOM     19  N   UNL     1      49.338   5.430  16.456  0.00  0.00    +0.000 N 
ATOM     20  C   UNL     1      49.390   4.670  17.597  0.00  0.00    +0.000 C 
ATOM     21  O   UNL     1      48.379   4.319  18.198  0.00  0.00    +0.000 OA
ATOM     22  H   UNL     1      50.190   5.834  16.085  0.00  0.00    +0.000 HD
BRANCH  20  23
ATOM     23  C   UNL     1      50.728   4.220  17.994  0.00  0.00    +0.000 A 
ATOM     24  C   UNL     1      51.584   5.067  18.682  0.00  0.00    +0.000 A 
ATOM     25  S   UNL     1      53.026   4.300  19.189  0.00  0.00    +0.000 S 
ATOM     26  C   UNL     1      52.577   2.834  18.448  0.00  0.00    +0.000 A 
ATOM     27  N   UNL     1      53.359   1.722  18.529  0.00  0.00    +0.000 NA
ATOM     28  C   UNL     1      52.891   0.696  17.896  0.00  0.00    +0.000 A 
ATOM     29  N   UNL     1      51.732   0.688  17.165  0.00  0.00    +0.000 N 
ATOM     30  C   UNL     1      50.944   1.800  17.019  0.00  0.00    +0.000 A 
ATOM     31  O   UNL     1      49.965   1.802  16.282  0.00  0.00    +0.000 OA
ATOM     32  C   UNL     1      51.371   2.949  17.784  0.00  0.00    +0.000 A 
ATOM     33  H   UNL     1      51.438  -0.132  16.654  0.00  0.00    +0.000 HD
ENDBRANCH  20  23
ENDBRANCH  18  19
ENDBRANCH   1  18
TORSDOF 8
ENDMDL
MODEL 3
REMARK VINA RESULT:    -7.468      3.193      4.741
REMARK INTER + INTRA:         -11.976
REMARK INTER:                 -10.933
REMARK INTRA:                  -1.043
REMARK UNBOUND:                -1.015
REMARK  Name = 
REMARK  9 active torsions:
REMARK  status: ('A' for Active; 'I' for Inactive)
REMARK    1  A    between atoms: C_1  and  C_2
REMARK    2  A    between atoms: C_2  and  O_3
REMARK    3  A    between atoms: O_3  and  C_4
REMARK    4  A    between atoms: C_4  and  C_5
REMARK    5  A    between atoms: C_4  and  C_19
REMARK    6  A    between atoms: C_5  and  N_6
REMARK    7  A    between atoms: C_7  and  C_9
REMARK    8  A    between atoms: C_22  and  O_23
REMARK    9  A    between atoms: O_23  and  C_24
REMARK                            x       y       z     vdW  Elec       q    Type
REMARK                         _______ _______ _______ _____ _____    ______ ____
ROOT
ATOM      1  C   UNL     1      46.367   5.469  13.936  0.00  0.00    +0.000 C 
ENDROOT
BRANCH   1   2
ATOM      2  C   UNL     1      45.908   4.998  12.553  0.00  0.00    +0.000 A 
ATOM      3  C   UNL     1      45.328   3.725  12.407  0.00  0.00    +0.000 A 
ATOM      4  C   UNL     1      44.904   3.260  11.161  0.00  0.00    +0.000 A 
ATOM      5  C   UNL     1      44.993   4.081  10.037  0.00  0.00    +0.000 A 
ATOM      6  C   UNL     1      45.574   5.339  10.154  0.00  0.00    +0.000 A 
ATOM      7  C   UNL     1      46.011   5.800  11.403  0.00  0.00    +0.000 A 
BRANCH   5   8
ATOM      8  O   UNL     1      44.590   3.688   8.780  0.00  0.00    +0.000 OA
BRANCH   8   9
ATOM      9  C   UNL     1      45.531   3.064   7.969  0.00  0.00    +0.000 A 
ATOM     10  C   UNL     1      45.939   1.795   8.352  0.00  0.00    +0.000 A 
ATOM     11  C   UNL     1      46.850   1.126   7.539  0.00  0.00    +0.000 A 
ATOM     12  C   UNL     1      47.319   1.743   6.383  0.00  0.00    +0.000 A 
ATOM     13  C   UNL     1      46.878   3.024   6.098  0.00  0.00    +0.000 A 
ATOM     14  N   UNL     1      46.007   3.700   6.874  0.00  0.00    +0.000 NA
ENDBRANCH   8   9
ENDBRANCH   5   8
ENDBRANCH   1   2
BRANCH   1  15
ATOM     15  O   UNL     1      46.253   4.343  14.835  0.00  0.00    +0.000 OA
BRANCH  15  17
ATOM     16  C   UNL     1      47.128   4.010  17.027  0.00  0.00    +0.000 C 
ATOM     17  C   UNL     1      47.445   4.027  15.544  0.00  0.00    +0.000 C 
ENDBRANCH  15  17
ENDBRANCH   1  15
BRANCH   1  18
ATOM     18  C   UNL     1      47.801   6.059  13.983  0.00  0.00    +0.000 C 
BRANCH  18  19
ATOM     19  N   UNL     1      47.863   7.319  14.704  0.00  0.00    +0.000 N 
ATOM     20  C   UNL     1      48.856   7.606  15.606  0.00  0.00    +0.000 C 
ATOM     21  O   UNL     1      49.801   6.849  15.804  0.00  0.00    +0.000 OA
ATOM     22  H   UNL     1      47.022   7.884  14.688  0.00  0.00    +0.000 HD
BRANCH  20  23
ATOM     23  C   UNL     1      48.765   8.922  16.245  0.00  0.00    +0.000 A 
ATOM     24  C   UNL     1      49.277  10.049  15.620  0.00  0.00    +0.000 A 
ATOM     25  S   UNL     1      48.927  11.500  16.456  0.00  0.00    +0.000 S 
ATOM     26  C   UNL     1      48.139  10.659  17.709  0.00  0.00    +0.000 A 
ATOM     27  N   UNL     1      47.557  11.310  18.753  0.00  0.00    +0.000 NA
ATOM     28  C   UNL     1      47.019  10.530  19.633  0.00  0.00    +0.000 A 
ATOM     29  N   UNL     1      47.035   9.160  19.580  0.00  0.00    +0.000 N 
ATOM     30  C   UNL     1      47.654   8.468  18.572  0.00  0.00    +0.000 A 
ATOM     31  O   UNL     1      47.745   7.246  18.593  0.00  0.00    +0.000 OA
ATOM     32  C   UNL     1      48.189   9.292  17.513  0.00  0.00    +0.000 A 
ATOM     33  H   UNL     1      46.636   8.601  20.321  0.00  0.00    +0.000 HD
ENDBRANCH  20  23
ENDBRANCH  18  19
ENDBRANCH   1  18
TORSDOF 8
ENDMDL
MODEL 4
REMARK VINA RESULT:    -7.406      1.858      2.266
REMARK INTER + INTRA:         -11.885
REMARK INTER:                 -10.640
REMARK INTRA:                  -1.244
REMARK UNBOUND:                -1.015
REMARK  Name = 
REMARK  9 active torsions:
REMARK  status: ('A' for Active; 'I' for Inactive)
REMARK    1  A    between atoms: C_1  and  C_2
REMARK    2  A    between atoms: C_2  and  O_3
REMARK    3  A    between atoms: O_3  and  C_4
REMARK    4  A    between atoms: C_4  and  C_5
REMARK    5  A    between atoms: C_4  and  C_19
REMARK    6  A    between atoms: C_5  and  N_6
REMARK    7  A    between atoms: C_7  and  C_9
REMARK    8  A    between atoms: C_22  and  O_23
REMARK    9  A    between atoms: O_23  and  C_24
REMARK                            x       y       z     vdW  Elec       q    Type
REMARK                         _______ _______ _______ _____ _____    ______ ____
ROOT
ATOM      1  C   UNL     1      45.977   5.932  12.924  0.00  0.00    +0.000 C 
ENDROOT
BRANCH   1   2
ATOM      2  C   UNL     1      45.703   5.339  11.539  0.00  0.00    +0.000 A 
ATOM      3  C   UNL     1      44.838   4.239  11.410  0.00  0.00    +0.000 A 
ATOM      4  C   UNL     1      44.570   3.668  10.164  0.00  0.00    +0.000 A 
ATOM      5  C   UNL     1      45.114   4.223   9.006  0.00  0.00    +0.000 A 
ATOM      6  C   UNL     1      45.982   5.304   9.109  0.00  0.00    +0.000 A 
ATOM      7  C   UNL     1      46.260   5.868  10.361  0.00  0.00    +0.000 A 
BRANCH   5   8
ATOM      8  O   UNL     1      44.888   3.715   7.746  0.00  0.00    +0.000 OA
BRANCH   8   9
ATOM      9  C   UNL     1      45.893   2.940   7.176  0.00  0.00    +0.000 A 
ATOM     10  C   UNL     1      46.419   3.391   5.974  0.00  0.00    +0.000 A 
ATOM     11  C   UNL     1      47.454   2.661   5.397  0.00  0.00    +0.000 A 
ATOM     12  C   UNL     1      47.921   1.514   6.034  0.00  0.00    +0.000 A 
ATOM     13  C   UNL     1      47.313   1.125   7.215  0.00  0.00    +0.000 A 
ATOM     14  N   UNL     1      46.301   1.806   7.789  0.00  0.00    +0.000 NA
ENDBRANCH   8   9
ENDBRANCH   5   8
ENDBRANCH   1   2
BRANCH   1  15
ATOM     15  O   UNL     1      44.940   6.903  13.190  0.00  0.00    +0.000 OA
BRANCH  15  17
ATOM     16  C   UNL     1      46.651   8.557  13.335  0.00  0.00    +0.000 C 
ATOM     17  C   UNL     1      45.264   8.236  12.811  0.00  0.00    +0.000 C 
ENDBRANCH  15  17
ENDBRANCH   1  15
BRANCH   1  18
ATOM     18  C   UNL     1      46.057   4.895  14.075  0.00  0.00    +0.000 C 
BRANCH  18  19
ATOM     19  N   UNL     1      46.946   5.316  15.145  0.00  0.00    +0.000 N 
ATOM     20  C   UNL     1      47.517   4.430  16.022  0.00  0.00    +0.000 C 
ATOM     21  O   UNL     1      47.379   3.215  15.911  0.00  0.00    +0.000 OA
ATOM     22  H   UNL     1      46.946   6.306  15.362  0.00  0.00    +0.000 HD
BRANCH  20  23
ATOM     23  C   UNL     1      48.386   5.025  17.042  0.00  0.00    +0.000 A 
ATOM     24  C   UNL     1      48.219   4.715  18.384  0.00  0.00    +0.000 A 
ATOM     25  S   UNL     1      49.430   5.386  19.387  0.00  0.00    +0.000 S 
ATOM     26  C   UNL     1      50.176   6.163  18.068  0.00  0.00    +0.000 A 
ATOM     27  N   UNL     1      51.314   6.895  18.218  0.00  0.00    +0.000 NA
ATOM     28  C   UNL     1      51.744   7.439  17.126  0.00  0.00    +0.000 A 
ATOM     29  N   UNL     1      51.125   7.344  15.907  0.00  0.00    +0.000 N 
ATOM     30  C   UNL     1      49.953   6.658  15.726  0.00  0.00    +0.000 A 
ATOM     31  O   UNL     1      49.362   6.667  14.652  0.00  0.00    +0.000 OA
ATOM     32  C   UNL     1      49.479   5.952  16.894  0.00  0.00    +0.000 A 
ATOM     33  H   UNL     1      51.484   7.829  15.096  0.00  0.00    +0.000 HD
ENDBRANCH  20  23
ENDBRANCH  18  19
ENDBRANCH   1  18
TORSDOF 8
ENDMDL
MODEL 5
REMARK VINA RESULT:    -7.281      2.251      3.408
REMARK INTER + INTRA:         -11.701
REMARK INTER:                 -10.691
REMARK INTRA:                  -1.010
REMARK UNBOUND:                -1.015
REMARK  Name = 
REMARK  9 active torsions:
REMARK  status: ('A' for Active; 'I' for Inactive)
REMARK    1  A    between atoms: C_1  and  C_2
REMARK    2  A    between atoms: C_2  and  O_3
REMARK    3  A    between atoms: O_3  and  C_4
REMARK    4  A    between atoms: C_4  and  C_5
REMARK    5  A    between atoms: C_4  and  C_19
REMARK    6  A    between atoms: C_5  and  N_6
REMARK    7  A    between atoms: C_7  and  C_9
REMARK    8  A    between atoms: C_22  and  O_23
REMARK    9  A    between atoms: O_23  and  C_24
REMARK                            x       y       z     vdW  Elec       q    Type
REMARK                         _______ _______ _______ _____ _____    ______ ____
ROOT
ATOM      1  C   UNL     1      46.703   5.466  14.093  0.00  0.00    +0.000 C 
ENDROOT
BRANCH   1   2
ATOM      2  C   UNL     1      46.114   4.907  12.795  0.00  0.00    +0.000 A 
ATOM      3  C   UNL     1      46.039   5.726  11.655  0.00  0.00    +0.000 A 
ATOM      4  C   UNL     1      45.501   5.252  10.456  0.00  0.00    +0.000 A 
ATOM      5  C   UNL     1      45.081   3.926  10.349  0.00  0.00    +0.000 A 
ATOM      6  C   UNL     1      45.134   3.101  11.467  0.00  0.00    +0.000 A 
ATOM      7  C   UNL     1      45.662   3.581  12.674  0.00  0.00    +0.000 A 
BRANCH   5   8
ATOM      8  O   UNL     1      44.547   3.393   9.198  0.00  0.00    +0.000 OA
BRANCH   8   9
ATOM      9  C   UNL     1      45.420   2.769   8.313  0.00  0.00    +0.000 A 
ATOM     10  C   UNL     1      45.815   3.506   7.207  0.00  0.00    +0.000 A 
ATOM     11  C   UNL     1      46.721   2.927   6.322  0.00  0.00    +0.000 A 
ATOM     12  C   UNL     1      47.194   1.641   6.571  0.00  0.00    +0.000 A 
ATOM     13  C   UNL     1      46.718   0.971   7.685  0.00  0.00    +0.000 A 
ATOM     14  N   UNL     1      45.832   1.502   8.550  0.00  0.00    +0.000 NA
ENDBRANCH   8   9
ENDBRANCH   5   8
ENDBRANCH   1   2
BRANCH   1  15
ATOM     15  O   UNL     1      47.467   4.406  14.711  0.00  0.00    +0.000 OA
BRANCH  15  17
ATOM     16  C   UNL     1      47.945   2.958  16.543  0.00  0.00    +0.000 C 
ATOM     17  C   UNL     1      47.137   4.152  16.072  0.00  0.00    +0.000 C 
ENDBRANCH  15  17
ENDBRANCH   1  15
BRANCH   1  18
ATOM     18  C   UNL     1      47.577   6.736  13.921  0.00  0.00    +0.000 C 
BRANCH  18  19
ATOM     19  N   UNL     1      48.163   7.184  15.173  0.00  0.00    +0.000 N 
ATOM     20  C   UNL     1      49.501   7.457  15.306  0.00  0.00    +0.000 C 
ATOM     21  O   UNL     1      50.277   7.419  14.356  0.00  0.00    +0.000 OA
ATOM     22  H   UNL     1      47.592   7.066  16.002  0.00  0.00    +0.000 HD
BRANCH  20  23
ATOM     23  C   UNL     1      49.925   7.896  16.640  0.00  0.00    +0.000 A 
ATOM     24  C   UNL     1      49.936   9.243  16.971  0.00  0.00    +0.000 A 
ATOM     25  S   UNL     1      50.306   9.528  18.616  0.00  0.00    +0.000 S 
ATOM     26  C   UNL     1      50.525   7.867  18.917  0.00  0.00    +0.000 A 
ATOM     27  N   UNL     1      50.827   7.398  20.160  0.00  0.00    +0.000 NA
ATOM     28  C   UNL     1      50.982   6.116  20.220  0.00  0.00    +0.000 A 
ATOM     29  N   UNL     1      50.896   5.264  19.150  0.00  0.00    +0.000 N 
ATOM     30  C   UNL     1      50.644   5.703  17.876  0.00  0.00    +0.000 A 
ATOM     31  O   UNL     1      50.669   4.941  16.917  0.00  0.00    +0.000 OA
ATOM     32  C   UNL     1      50.367   7.117  17.768  0.00  0.00    +0.000 A 
ATOM     33  H   UNL     1      51.072   4.274  19.250  0.00  0.00    +0.000 HD
ENDBRANCH  20  23
ENDBRANCH  18  19
ENDBRANCH   1  18
TORSDOF 8
ENDMDL
MODEL 6
REMARK VINA RESULT:    -7.070      3.616      5.014
REMARK INTER + INTRA:         -11.391
REMARK INTER:                 -10.233
REMARK INTRA:                  -1.158
REMARK UNBOUND:                -1.015
REMARK  Name = 
REMARK  9 active torsions:
REMARK  status: ('A' for Active; 'I' for Inactive)
REMARK    1  A    between atoms: C_1  and  C_2
REMARK    2  A    between atoms: C_2  and  O_3
REMARK    3  A    between atoms: O_3  and  C_4
REMARK    4  A    between atoms: C_4  and  C_5
REMARK    5  A    between atoms: C_4  and  C_19
REMARK    6  A    between atoms: C_5  and  N_6
REMARK    7  A    between atoms: C_7  and  C_9
REMARK    8  A    between atoms: C_22  and  O_23
REMARK    9  A    between atoms: O_23  and  C_24
REMARK                            x       y       z     vdW  Elec       q    Type
REMARK                         _______ _______ _______ _____ _____    ______ ____
ROOT
ATOM      1  C   UNL     1      45.231   6.587  12.800  0.00  0.00    +0.000 C 
ENDROOT
BRANCH   1   2
ATOM      2  C   UNL     1      45.046   5.800  11.500  0.00  0.00    +0.000 A 
ATOM      3  C   UNL     1      46.000   5.912  10.475  0.00  0.00    +0.000 A 
ATOM      4  C   UNL     1      45.860   5.214   9.273  0.00  0.00    +0.000 A 
ATOM      5  C   UNL     1      44.791   4.337   9.091  0.00  0.00    +0.000 A 
ATOM      6  C   UNL     1      43.827   4.219  10.086  0.00  0.00    +0.000 A 
ATOM      7  C   UNL     1      43.962   4.929  11.286  0.00  0.00    +0.000 A 
BRANCH   5   8
ATOM      8  O   UNL     1      44.595   3.615   7.935  0.00  0.00    +0.000 OA
BRANCH   8   9
ATOM      9  C   UNL     1      45.654   2.840   7.473  0.00  0.00    +0.000 A 
ATOM     10  C   UNL     1      46.313   3.299   6.343  0.00  0.00    +0.000 A 
ATOM     11  C   UNL     1      47.403   2.568   5.879  0.00  0.00    +0.000 A 
ATOM     12  C   UNL     1      47.791   1.413   6.552  0.00  0.00    +0.000 A 
ATOM     13  C   UNL     1      47.052   1.016   7.653  0.00  0.00    +0.000 A 
ATOM     14  N   UNL     1      45.985   1.697   8.116  0.00  0.00    +0.000 NA
ENDBRANCH   8   9
ENDBRANCH   5   8
ENDBRANCH   1   2
BRANCH   1  15
ATOM     15  O   UNL     1      46.267   5.926  13.560  0.00  0.00    +0.000 OA
BRANCH  15  17
ATOM     16  C   UNL     1      47.108   3.707  13.785  0.00  0.00    +0.000 C 
ATOM     17  C   UNL     1      45.925   4.625  14.025  0.00  0.00    +0.000 C 
ENDBRANCH  15  17
ENDBRANCH   1  15
BRANCH   1  18
ATOM     18  C   UNL     1      45.570   8.089  12.612  0.00  0.00    +0.000 C 
BRANCH  18  19
ATOM     19  N   UNL     1      46.984   8.316  12.365  0.00  0.00    +0.000 N 
ATOM     20  C   UNL     1      47.535   9.571  12.323  0.00  0.00    +0.000 C 
ATOM     21  O   UNL     1      46.884  10.582  12.572  0.00  0.00    +0.000 OA
ATOM     22  H   UNL     1      47.505   7.528  11.996  0.00  0.00    +0.000 HD
BRANCH  20  23
ATOM     23  C   UNL     1      48.976   9.619  12.059  0.00  0.00    +0.000 A 
ATOM     24  C   UNL     1      49.477  10.344  10.989  0.00  0.00    +0.000 A 
ATOM     25  S   UNL     1      51.186  10.400  10.953  0.00  0.00    +0.000 S 
ATOM     26  C   UNL     1      51.307   9.404  12.328  0.00  0.00    +0.000 A 
ATOM     27  N   UNL     1      52.512   9.077  12.872  0.00  0.00    +0.000 NA
ATOM     28  C   UNL     1      52.436   8.296  13.900  0.00  0.00    +0.000 A 
ATOM     29  N   UNL     1      51.272   7.788  14.415  0.00  0.00    +0.000 N 
ATOM     30  C   UNL     1      50.045   8.053  13.866  0.00  0.00    +0.000 A 
ATOM     31  O   UNL     1      49.026   7.512  14.277  0.00  0.00    +0.000 OA
ATOM     32  C   UNL     1      50.063   8.997  12.772  0.00  0.00    +0.000 A 
ATOM     33  H   UNL     1      51.278   7.145  15.194  0.00  0.00    +0.000 HD
ENDBRANCH  20  23
ENDBRANCH  18  19
ENDBRANCH   1  18
TORSDOF 8
ENDMDL
MODEL 7
REMARK VINA RESULT:    -7.070      3.498      4.880
REMARK INTER + INTRA:         -11.391
REMARK INTER:                  -9.982
REMARK INTRA:                  -1.409
REMARK UNBOUND:                -1.015
REMARK  Name = 
REMARK  9 active torsions:
REMARK  status: ('A' for Active; 'I' for Inactive)
REMARK    1  A    between atoms: C_1  and  C_2
REMARK    2  A    between atoms: C_2  and  O_3
REMARK    3  A    between atoms: O_3  and  C_4
REMARK    4  A    between atoms: C_4  and  C_5
REMARK    5  A    between atoms: C_4  and  C_19
REMARK    6  A    between atoms: C_5  and  N_6
REMARK    7  A    between atoms: C_7  and  C_9
REMARK    8  A    between atoms: C_22  and  O_23
REMARK    9  A    between atoms: O_23  and  C_24
REMARK                            x       y       z     vdW  Elec       q    Type
REMARK                         _______ _______ _______ _____ _____    ______ ____
ROOT
ATOM      1  C   UNL     1      46.330   5.847  13.618  0.00  0.00    +0.000 C 
ENDROOT
BRANCH   1   2
ATOM      2  C   UNL     1      45.875   5.188  12.312  0.00  0.00    +0.000 A 
ATOM      3  C   UNL     1      45.326   3.894  12.339  0.00  0.00    +0.000 A 
ATOM      4  C   UNL     1      44.907   3.260  11.167  0.00  0.00    +0.000 A 
ATOM      5  C   UNL     1      44.970   3.929   9.945  0.00  0.00    +0.000 A 
ATOM      6  C   UNL     1      45.521   5.205   9.892  0.00  0.00    +0.000 A 
ATOM      7  C   UNL     1      45.953   5.835  11.066  0.00  0.00    +0.000 A 
BRANCH   5   8
ATOM      8  O   UNL     1      44.570   3.366   8.754  0.00  0.00    +0.000 OA
BRANCH   8   9
ATOM      9  C   UNL     1      45.561   2.882   7.906  0.00  0.00    +0.000 A 
ATOM     10  C   UNL     1      46.101   1.645   8.224  0.00  0.00    +0.000 A 
ATOM     11  C   UNL     1      47.066   1.113   7.373  0.00  0.00    +0.000 A 
ATOM     12  C   UNL     1      47.456   1.831   6.246  0.00  0.00    +0.000 A 
ATOM     13  C   UNL     1      46.883   3.072   6.028  0.00  0.00    +0.000 A 
ATOM     14  N   UNL     1      45.957   3.616   6.841  0.00  0.00    +0.000 NA
ENDBRANCH   8   9
ENDBRANCH   5   8
ENDBRANCH   1   2
BRANCH   1  15
ATOM     15  O   UNL     1      47.431   5.066  14.134  0.00  0.00    +0.000 OA
BRANCH  15  17
ATOM     16  C   UNL     1      48.215   5.136  16.384  0.00  0.00    +0.000 C 
ATOM     17  C   UNL     1      47.214   4.516  15.428  0.00  0.00    +0.000 C 
ENDBRANCH  15  17
ENDBRANCH   1  15
BRANCH   1  18
ATOM     18  C   UNL     1      46.735   7.338  13.491  0.00  0.00    +0.000 C 
BRANCH  18  19
ATOM     19  N   UNL     1      48.176   7.524  13.451  0.00  0.00    +0.000 N 
ATOM     20  C   UNL     1      48.851   8.264  14.389  0.00  0.00    +0.000 C 
ATOM     21  O   UNL     1      48.293   8.750  15.368  0.00  0.00    +0.000 OA
ATOM     22  H   UNL     1      48.634   7.282  12.581  0.00  0.00    +0.000 HD
BRANCH  20  23
ATOM     23  C   UNL     1      50.302   8.350  14.197  0.00  0.00    +0.000 A 
ATOM     24  C   UNL     1      51.171   8.114  15.252  0.00  0.00    +0.000 A 
ATOM     25  S   UNL     1      52.815   8.108  14.781  0.00  0.00    +0.000 S 
ATOM     26  C   UNL     1      52.418   8.484  13.169  0.00  0.00    +0.000 A 
ATOM     27  N   UNL     1      53.371   8.593  12.203  0.00  0.00    +0.000 NA
ATOM     28  C   UNL     1      52.911   8.905  11.036  0.00  0.00    +0.000 A 
ATOM     29  N   UNL     1      51.592   9.148  10.752  0.00  0.00    +0.000 N 
ATOM     30  C   UNL     1      50.611   9.098  11.707  0.00  0.00    +0.000 A 
ATOM     31  O   UNL     1      49.454   9.415  11.457  0.00  0.00    +0.000 OA
ATOM     32  C   UNL     1      51.057   8.661  13.010  0.00  0.00    +0.000 A 
ATOM     33  H   UNL     1      51.297   9.432   9.828  0.00  0.00    +0.000 HD
ENDBRANCH  20  23
ENDBRANCH  18  19
ENDBRANCH   1  18
TORSDOF 8
ENDMDL
MODEL 8
REMARK VINA RESULT:    -6.968      3.274      5.875
REMARK INTER + INTRA:         -11.242
REMARK INTER:                  -9.160
REMARK INTRA:                  -2.081
REMARK UNBOUND:                -1.015
REMARK  Name = 
REMARK  9 active torsions:
REMARK  status: ('A' for Active; 'I' for Inactive)
REMARK    1  A    between atoms: C_1  and  C_2
REMARK    2  A    between atoms: C_2  and  O_3
REMARK    3  A    between atoms: O_3  and  C_4
REMARK    4  A    between atoms: C_4  and  C_5
REMARK    5  A    between atoms: C_4  and  C_19
REMARK    6  A    between atoms: C_5  and  N_6
REMARK    7  A    between atoms: C_7  and  C_9
REMARK    8  A    between atoms: C_22  and  O_23
REMARK    9  A    between atoms: O_23  and  C_24
REMARK                            x       y       z     vdW  Elec       q    Type
REMARK                         _______ _______ _______ _____ _____    ______ ____
ROOT
ATOM      1  C   UNL     1      44.822   6.148  12.820  0.00  0.00    +0.000 C 
ENDROOT
BRANCH   1   2
ATOM      2  C   UNL     1      45.983   7.110  12.551  0.00  0.00    +0.000 A 
ATOM      3  C   UNL     1      47.085   6.678  11.793  0.00  0.00    +0.000 A 
ATOM      4  C   UNL     1      48.164   7.526  11.533  0.00  0.00    +0.000 A 
ATOM      5  C   UNL     1      48.140   8.849  11.974  0.00  0.00    +0.000 A 
ATOM      6  C   UNL     1      47.066   9.296  12.735  0.00  0.00    +0.000 A 
ATOM      7  C   UNL     1      45.989   8.441  13.006  0.00  0.00    +0.000 A 
BRANCH   5   8
ATOM      8  O   UNL     1      49.166   9.739  11.749  0.00  0.00    +0.000 OA
BRANCH   8   9
ATOM      9  C   UNL     1      50.448   9.352  12.124  0.00  0.00    +0.000 A 
ATOM     10  C   UNL     1      50.682   9.213  13.484  0.00  0.00    +0.000 A 
ATOM     11  C   UNL     1      51.943   8.786  13.891  0.00  0.00    +0.000 A 
ATOM     12  C   UNL     1      52.918   8.519  12.934  0.00  0.00    +0.000 A 
ATOM     13  C   UNL     1      52.601   8.717  11.601  0.00  0.00    +0.000 A 
ATOM     14  N   UNL     1      51.393   9.141  11.180  0.00  0.00    +0.000 NA
ENDBRANCH   8   9
ENDBRANCH   5   8
ENDBRANCH   1   2
BRANCH   1  15
ATOM     15  O   UNL     1      44.067   6.030  11.594  0.00  0.00    +0.000 OA
BRANCH  15  17
ATOM     16  C   UNL     1      44.123   4.407   9.849  0.00  0.00    +0.000 C 
ATOM     17  C   UNL     1      43.671   4.703  11.266  0.00  0.00    +0.000 C 
ENDBRANCH  15  17
ENDBRANCH   1  15
BRANCH   1  18
ATOM     18  C   UNL     1      45.241   4.748  13.338  0.00  0.00    +0.000 C 
BRANCH  18  19
ATOM     19  N   UNL     1      45.967   4.811  14.595  0.00  0.00    +0.000 N 
ATOM     20  C   UNL     1      47.002   3.961  14.894  0.00  0.00    +0.000 C 
ATOM     21  O   UNL     1      47.435   3.145  14.086  0.00  0.00    +0.000 OA
ATOM     22  H   UNL     1      45.533   5.351  15.335  0.00  0.00    +0.000 HD
BRANCH  20  23
ATOM     23  C   UNL     1      47.622   4.162  16.207  0.00  0.00    +0.000 A 
ATOM     24  C   UNL     1      47.411   3.256  17.235  0.00  0.00    +0.000 A 
ATOM     25  S   UNL     1      48.348   3.586  18.627  0.00  0.00    +0.000 S 
ATOM     26  C   UNL     1      49.014   4.984  17.920  0.00  0.00    +0.000 A 
ATOM     27  N   UNL     1      49.942   5.742  18.568  0.00  0.00    +0.000 NA
ATOM     28  C   UNL     1      50.333   6.782  17.907  0.00  0.00    +0.000 A 
ATOM     29  N   UNL     1      49.862   7.151  16.674  0.00  0.00    +0.000 N 
ATOM     30  C   UNL     1      48.893   6.442  16.012  0.00  0.00    +0.000 A 
ATOM     31  O   UNL     1      48.413   6.841  14.958  0.00  0.00    +0.000 OA
ATOM     32  C   UNL     1      48.488   5.218  16.664  0.00  0.00    +0.000 A 
ATOM     33  H   UNL     1      50.173   8.000  16.224  0.00  0.00    +0.000 HD
ENDBRANCH  20  23
ENDBRANCH  18  19
ENDBRANCH   1  18
TORSDOF 8
ENDMDL
MODEL 9
REMARK VINA RESULT:    -6.629      2.740      3.717
REMARK INTER + INTRA:         -10.744
REMARK INTER:                  -9.398
REMARK INTRA:                  -1.347
REMARK UNBOUND:                -1.015
REMARK  Name = 
REMARK  9 active torsions:
REMARK  status: ('A' for Active; 'I' for Inactive)
REMARK    1  A    between atoms: C_1  and  C_2
REMARK    2  A    between atoms: C_2  and  O_3
REMARK    3  A    between atoms: O_3  and  C_4
REMARK    4  A    between atoms: C_4  and  C_5
REMARK    5  A    between atoms: C_4  and  C_19
REMARK    6  A    between atoms: C_5  and  N_6
REMARK    7  A    between atoms: C_7  and  C_9
REMARK    8  A    between atoms: C_22  and  O_23
REMARK    9  A    between atoms: O_23  and  C_24
REMARK                            x       y       z     vdW  Elec       q    Type
REMARK                         _______ _______ _______ _____ _____    ______ ____
ROOT
ATOM      1  C   UNL     1      48.237   8.515  13.360  0.00  0.00    +0.000 C 
ENDROOT
BRANCH   1   2
ATOM      2  C   UNL     1      47.152   7.615  12.759  0.00  0.00    +0.000 A 
ATOM      3  C   UNL     1      46.054   8.193  12.100  0.00  0.00    +0.000 A 
ATOM      4  C   UNL     1      45.043   7.404  11.546  0.00  0.00    +0.000 A 
ATOM      5  C   UNL     1      45.137   6.013  11.585  0.00  0.00    +0.000 A 
ATOM      6  C   UNL     1      46.208   5.418  12.242  0.00  0.00    +0.000 A 
ATOM      7  C   UNL     1      47.215   6.211  12.809  0.00  0.00    +0.000 A 
BRANCH   5   8
ATOM      8  O   UNL     1      44.180   5.176  11.055  0.00  0.00    +0.000 OA
BRANCH   8   9
ATOM      9  C   UNL     1      44.591   4.256  10.095  0.00  0.00    +0.000 A 
ATOM     10  C   UNL     1      45.352   4.750   9.047  0.00  0.00    +0.000 A 
ATOM     11  C   UNL     1      45.813   3.849   8.091  0.00  0.00    +0.000 A 
ATOM     12  C   UNL     1      45.498   2.498   8.214  0.00  0.00    +0.000 A 
ATOM     13  C   UNL     1      44.706   2.104   9.278  0.00  0.00    +0.000 A 
ATOM     14  N   UNL     1      44.236   2.956  10.210  0.00  0.00    +0.000 NA
ENDBRANCH   8   9
ENDBRANCH   5   8
ENDBRANCH   1   2
BRANCH   1  15
ATOM     15  O   UNL     1      48.606   9.478  12.348  0.00  0.00    +0.000 OA
BRANCH  15  17
ATOM     16  C   UNL     1      50.605   8.199  12.573  0.00  0.00    +0.000 C 
ATOM     17  C   UNL     1      49.890   9.270  11.771  0.00  0.00    +0.000 C 
ENDBRANCH  15  17
ENDBRANCH   1  15
BRANCH   1  18
ATOM     18  C   UNL     1      47.835   9.234  14.674  0.00  0.00    +0.000 C 
BRANCH  18  19
ATOM     19  N   UNL     1      47.881   8.353  15.829  0.00  0.00    +0.000 N 
ATOM     20  C   UNL     1      48.439   8.731  17.024  0.00  0.00    +0.000 C 
ATOM     21  O   UNL     1      48.864   9.865  17.221  0.00  0.00    +0.000 OA
ATOM     22  H   UNL     1      47.695   7.373  15.651  0.00  0.00    +0.000 HD
BRANCH  20  23
ATOM     23  C   UNL     1      48.403   7.718  18.084  0.00  0.00    +0.000 A 
ATOM     24  C   UNL     1      47.978   8.046  19.363  0.00  0.00    +0.000 A 
ATOM     25  S   UNL     1      47.859   6.693  20.401  0.00  0.00    +0.000 S 
ATOM     26  C   UNL     1      48.433   5.640  19.193  0.00  0.00    +0.000 A 
ATOM     27  N   UNL     1      48.545   4.299  19.405  0.00  0.00    +0.000 NA
ATOM     28  C   UNL     1      49.016   3.640  18.397  0.00  0.00    +0.000 A 
ATOM     29  N   UNL     1      49.414   4.199  17.211  0.00  0.00    +0.000 N 
ATOM     30  C   UNL     1      49.363   5.548  16.978  0.00  0.00    +0.000 A 
ATOM     31  O   UNL     1      49.815   6.040  15.951  0.00  0.00    +0.000 OA
ATOM     32  C   UNL     1      48.756   6.322  18.036  0.00  0.00    +0.000 A 
ATOM     33  H   UNL     1      49.817   3.637  16.474  0.00  0.00    +0.000 HD
ENDBRANCH  20  23
ENDBRANCH  18  19
ENDBRANCH   1  18
TORSDOF 8
ENDMDL
