MODEL 1
REMARK VINA RESULT:    -8.864      0.000      0.000
REMARK INTER + INTRA:         -13.737
REMARK INTER:                 -12.491
REMARK INTRA:                  -1.246
REMARK UNBOUND:                -1.246
REMARK  Name = 
REMARK  8 active torsions:
REMARK  status: ('A' for Active; 'I' for Inactive)
REMARK    1  A    between atoms: C_1  and  O_2
REMARK    2  A    between atoms: O_2  and  C_3
REMARK    3  A    between atoms: C_10  and  C_11
REMARK    4  A    between atoms: N_13  and  C_14
REMARK    5  A    between atoms: C_14  and  C_15
REMARK    6  A    between atoms: C_18  and  N_19
REMARK    7  A    between atoms: N_19  and  C_20
REMARK    8  A    between atoms: C_20  and  C_21
REMARK                            x       y       z     vdW  Elec       q    Type
REMARK                         _______ _______ _______ _____ _____    ______ ____
ROOT
ATOM      1  C   UNL     1      45.963   7.832  12.814  0.00  0.00    +0.000 C 
ENDROOT
BRANCH   1   2
ATOM      2  C   UNL     1      45.422   6.802  11.856  0.00  0.00    +0.000 A 
ATOM      3  C   UNL     1      46.174   6.374  10.755  0.00  0.00    +0.000 A 
ATOM      4  C   UNL     1      45.696   5.361   9.910  0.00  0.00    +0.000 A 
ATOM      5  C   UNL     1      44.464   4.744  10.157  0.00  0.00    +0.000 A 
ATOM      6  C   UNL     1      43.669   5.258  11.186  0.00  0.00    +0.000 A 
ATOM      7  C   UNL     1      44.143   6.263  12.037  0.00  0.00    +0.000 A 
BRANCH   5   8
ATOM      8  N   UNL     1      43.940   3.697   9.387  0.00  0.00    +0.000 N 
ATOM      9  H   UNL     1      43.773   4.005   8.431  0.00  0.00    +0.000 HD
BRANCH   8  10
ATOM     10  C   UNL     1      44.652   2.420   9.417  0.00  0.00    +0.000 C 
BRANCH  10  11
ATOM     11  C   UNL     1      45.574   2.264   8.223  0.00  0.00    +0.000 A 
ATOM     12  C   UNL     1      45.683   3.314   7.295  0.00  0.00    +0.000 A 
ATOM     13  C   UNL     1      46.592   3.244   6.237  0.00  0.00    +0.000 A 
ATOM     14  C   UNL     1      47.404   2.126   6.105  0.00  0.00    +0.000 A 
ATOM     15  F   UNL     1      48.284   2.065   5.095  0.00  0.00    +0.000 F 
ATOM     16  C   UNL     1      47.328   1.078   7.012  0.00  0.00    +0.000 A 
ATOM     17  C   UNL     1      46.421   1.149   8.073  0.00  0.00    +0.000 A 
ENDBRANCH  10  11
ENDBRANCH   8  10
ENDBRANCH   5   8
ENDBRANCH   1   2
BRANCH   1  20
ATOM     18  C   UNL     1      48.020   7.136  13.959  0.00  0.00    +0.000 C 
ATOM     19  O   UNL     1      48.716   7.577  13.046  0.00  0.00    +0.000 OA
ATOM     20  N   UNL     1      46.655   7.217  13.915  0.00  0.00    +0.000 N 
ATOM     21  H   UNL     1      46.094   6.800  14.646  0.00  0.00    +0.000 HD
BRANCH  18  29
ATOM     22  C   UNL     1      47.242   4.342  15.827  0.00  0.00    +0.000 A 
ATOM     23  N   UNL     1      47.129   3.374  16.758  0.00  0.00    +0.000 NA
ATOM     24  C   UNL     1      48.001   3.364  17.769  0.00  0.00    +0.000 A 
ATOM     25  N   UNL     1      49.005   4.213  17.966  0.00  0.00    +0.000 NA
ATOM     26  C   UNL     1      49.081   5.167  17.023  0.00  0.00    +0.000 A 
ATOM     27  S   UNL     1      50.313   6.329  17.111  0.00  0.00    +0.000 S 
ATOM     28  C   UNL     1      49.749   7.105  15.709  0.00  0.00    +0.000 A 
ATOM     29  C   UNL     1      48.621   6.510  15.151  0.00  0.00    +0.000 A 
ATOM     30  C   UNL     1      48.241   5.330  15.923  0.00  0.00    +0.000 A 
BRANCH  22  32
ATOM     31  C   UNL     1      46.838   3.622  13.627  0.00  0.00    +0.000 C 
ATOM     32  O   UNL     1      46.359   4.336  14.766  0.00  0.00    +0.000 OA
ENDBRANCH  22  32
ENDBRANCH  18  29
ENDBRANCH   1  20
TORSDOF 7
ENDMDL
MODEL 2
REMARK VINA RESULT:    -8.250      1.723      2.113
REMARK INTER + INTRA:         -12.872
REMARK INTER:                 -11.767
REMARK INTRA:                  -1.104
REMARK UNBOUND:                -1.246
REMARK  Name = 
REMARK  8 active torsions:
REMARK  status: ('A' for Active; 'I' for Inactive)
REMARK    1  A    between atoms: C_1  and  O_2
REMARK    2  A    between atoms: O_2  and  C_3
REMARK    3  A    between atoms: C_10  and  C_11
REMARK    4  A    between atoms: N_13  and  C_14
REMARK    5  A    between atoms: C_14  and  C_15
REMARK    6  A    between atoms: C_18  and  N_19
REMARK    7  A    between atoms: N_19  and  C_20
REMARK    8  A    between atoms: C_20  and  C_21
REMARK                            x       y       z     vdW  Elec       q    Type
REMARK                         _______ _______ _______ _____ _____    ______ ____
ROOT
ATOM      1  C   UNL     1      47.678   7.406  13.167  0.00  0.00    +0.000 C 
ENDROOT
BRANCH   1   2
ATOM      2  C   UNL     1      46.833   6.273  12.644  0.00  0.00    +0.000 A 
ATOM      3  C   UNL     1      46.042   6.431  11.500  0.00  0.00    +0.000 A 
ATOM      4  C   UNL     1      45.317   5.350  10.975  0.00  0.00    +0.000 A 
ATOM      5  C   UNL     1      45.379   4.087  11.574  0.00  0.00    +0.000 A 
ATOM      6  C   UNL     1      46.076   3.969  12.781  0.00  0.00    +0.000 A 
ATOM      7  C   UNL     1      46.808   5.040  13.304  0.00  0.00    +0.000 A 
BRANCH   5   8
ATOM      8  N   UNL     1      44.720   2.951  11.085  0.00  0.00    +0.000 N 
ATOM      9  H   UNL     1      44.025   2.625  11.754  0.00  0.00    +0.000 HD
BRANCH   8  10
ATOM     10  C   UNL     1      44.164   3.026   9.735  0.00  0.00    +0.000 C 
BRANCH  10  11
ATOM     11  C   UNL     1      45.204   2.697   8.680  0.00  0.00    +0.000 A 
ATOM     12  C   UNL     1      45.706   3.726   7.863  0.00  0.00    +0.000 A 
ATOM     13  C   UNL     1      46.732   3.478   6.948  0.00  0.00    +0.000 A 
ATOM     14  C   UNL     1      47.268   2.201   6.850  0.00  0.00    +0.000 A 
ATOM     15  F   UNL     1      48.260   1.968   5.979  0.00  0.00    +0.000 F 
ATOM     16  C   UNL     1      46.801   1.168   7.651  0.00  0.00    +0.000 A 
ATOM     17  C   UNL     1      45.777   1.416   8.570  0.00  0.00    +0.000 A 
ENDBRANCH  10  11
ENDBRANCH   8  10
ENDBRANCH   5   8
ENDBRANCH   1   2
BRANCH   1  20
ATOM     18  C   UNL     1      48.802   7.081  15.326  0.00  0.00    +0.000 C 
ATOM     19  O   UNL     1      49.834   6.711  14.769  0.00  0.00    +0.000 OA
ATOM     20  N   UNL     1      47.693   7.434  14.606  0.00  0.00    +0.000 N 
ATOM     21  H   UNL     1      46.834   7.681  15.078  0.00  0.00    +0.000 HD
BRANCH  18  29
ATOM     22  C   UNL     1      48.845   4.748  17.867  0.00  0.00    +0.000 A 
ATOM     23  N   UNL     1      48.758   4.068  19.027  0.00  0.00    +0.000 NA
ATOM     24  C   UNL     1      48.562   4.759  20.152  0.00  0.00    +0.000 A 
ATOM     25  N   UNL     1      48.450   6.079  20.270  0.00  0.00    +0.000 NA
ATOM     26  C   UNL     1      48.534   6.721  19.093  0.00  0.00    +0.000 A 
ATOM     27  S   UNL     1      48.424   8.413  19.057  0.00  0.00    +0.000 S 
ATOM     28  C   UNL     1      48.580   8.438  17.366  0.00  0.00    +0.000 A 
ATOM     29  C   UNL     1      48.711   7.176  16.794  0.00  0.00    +0.000 A 
ATOM     30  C   UNL     1      48.714   6.151  17.835  0.00  0.00    +0.000 A 
BRANCH  22  32
ATOM     31  C   UNL     1      47.965   3.247  16.287  0.00  0.00    +0.000 C 
ATOM     32  O   UNL     1      49.077   4.037  16.707  0.00  0.00    +0.000 OA
ENDBRANCH  22  32
ENDBRANCH  18  29
ENDBRANCH   1  20
TORSDOF 7
ENDMDL
MODEL 3
REMARK VINA RESULT:    -7.912      2.614      3.401
REMARK INTER + INTRA:         -12.395
REMARK INTER:                 -11.200
REMARK INTRA:                  -1.195
REMARK UNBOUND:                -1.246
REMARK  Name = 
REMARK  8 active torsions:
REMARK  status: ('A' for Active; 'I' for Inactive)
REMARK    1  A    between atoms: C_1  and  O_2
REMARK    2  A    between atoms: O_2  and  C_3
REMARK    3  A    between atoms: C_10  and  C_11
REMARK    4  A    between atoms: N_13  and  C_14
REMARK    5  A    between atoms: C_14  and  C_15
REMARK    6  A    between atoms: C_18  and  N_19
REMARK    7  A    between atoms: N_19  and  C_20
REMARK    8  A    between atoms: C_20  and  C_21
REMARK                            x       y       z     vdW  Elec       q    Type
REMARK                         _______ _______ _______ _____ _____    ______ ____
ROOT
ATOM      1  C   UNL     1      48.120   6.829  13.919  0.00  0.00    +0.000 C 
ENDROOT
BRANCH   1   2
ATOM      2  C   UNL     1      47.073   6.077  13.138  0.00  0.00    +0.000 A 
ATOM      3  C   UNL     1      46.579   6.575  11.925  0.00  0.00    +0.000 A 
ATOM      4  C   UNL     1      45.660   5.835  11.167  0.00  0.00    +0.000 A 
ATOM      5  C   UNL     1      45.228   4.575  11.595  0.00  0.00    +0.000 A 
ATOM      6  C   UNL     1      45.634   4.139  12.860  0.00  0.00    +0.000 A 
ATOM      7  C   UNL     1      46.556   4.869  13.618  0.00  0.00    +0.000 A 
BRANCH   5   8
ATOM      8  N   UNL     1      44.348   3.757  10.873  0.00  0.00    +0.000 N 
ATOM      9  H   UNL     1      43.451   3.688  11.350  0.00  0.00    +0.000 HD
BRANCH   8  10
ATOM     10  C   UNL     1      44.173   4.051   9.452  0.00  0.00    +0.000 C 
BRANCH  10  11
ATOM     11  C   UNL     1      45.168   3.291   8.595  0.00  0.00    +0.000 A 
ATOM     12  C   UNL     1      45.963   3.997   7.674  0.00  0.00    +0.000 A 
ATOM     13  C   UNL     1      46.956   3.346   6.938  0.00  0.00    +0.000 A 
ATOM     14  C   UNL     1      47.165   1.986   7.123  0.00  0.00    +0.000 A 
ATOM     15  F   UNL     1      48.125   1.365   6.424  0.00  0.00    +0.000 F 
ATOM     16  C   UNL     1      46.403   1.265   8.032  0.00  0.00    +0.000 A 
ATOM     17  C   UNL     1      45.412   1.916   8.773  0.00  0.00    +0.000 A 
ENDBRANCH  10  11
ENDBRANCH   8  10
ENDBRANCH   5   8
ENDBRANCH   1   2
BRANCH   1  20
ATOM     18  C   UNL     1      49.010   6.383  16.163  0.00  0.00    +0.000 C 
ATOM     19  O   UNL     1      50.154   6.276  15.723  0.00  0.00    +0.000 OA
ATOM     20  N   UNL     1      47.953   6.648  15.336  0.00  0.00    +0.000 N 
ATOM     21  H   UNL     1      47.011   6.677  15.704  0.00  0.00    +0.000 HD
BRANCH  18  29
ATOM     22  C   UNL     1      47.826   8.552  18.570  0.00  0.00    +0.000 A 
ATOM     23  N   UNL     1      47.463   9.186  19.703  0.00  0.00    +0.000 NA
ATOM     24  C   UNL     1      47.487   8.500  20.847  0.00  0.00    +0.000 A 
ATOM     25  N   UNL     1      47.826   7.223  21.007  0.00  0.00    +0.000 NA
ATOM     26  C   UNL     1      48.189   6.628  19.858  0.00  0.00    +0.000 A 
ATOM     27  S   UNL     1      48.641   4.993  19.874  0.00  0.00    +0.000 S 
ATOM     28  C   UNL     1      48.948   5.011  18.204  0.00  0.00    +0.000 A 
ATOM     29  C   UNL     1      48.724   6.246  17.603  0.00  0.00    +0.000 A 
ATOM     30  C   UNL     1      48.239   7.205  18.591  0.00  0.00    +0.000 A 
BRANCH  22  32
ATOM     31  C   UNL     1      47.918  10.663  17.543  0.00  0.00    +0.000 C 
ATOM     32  O   UNL     1      47.773   9.253  17.382  0.00  0.00    +0.000 OA
ENDBRANCH  22  32
ENDBRANCH  18  29
ENDBRANCH   1  20
TORSDOF 7
ENDMDL
MODEL 4
REMARK VINA RESULT:    -7.792      2.239      3.505
REMARK INTER + INTRA:         -12.227
REMARK INTER:                 -11.045
REMARK INTRA:                  -1.182
REMARK UNBOUND:                -1.246
REMARK  Name = 
REMARK  8 active torsions:
REMARK  status: ('A' for Active; 'I' for Inactive)
REMARK    1  A    between atoms: C_1  and  O_2
REMARK    2  A    between atoms: O_2  and  C_3
REMARK    3  A    between atoms: C_10  and  C_11
REMARK    4  A    between atoms: N_13  and  C_14
REMARK    5  A    between atoms: C_14  and  C_15
REMARK    6  A    between atoms: C_18  and  N_19
REMARK    7  A    between atoms: N_19  and  C_20
REMARK    8  A    between atoms: C_20  and  C_21
REMARK                            x       y       z     vdW  Elec       q    Type
REMARK                         _______ _______ _______ _____ _____    ______ ____
ROOT
ATOM      1  C   UNL     1      47.199   3.751  14.925  0.00  0.00    +0.000 C 
ENDROOT
BRANCH   1   2
ATOM      2  C   UNL     1      46.530   4.224  13.660  0.00  0.00    +0.000 A 
ATOM      3  C   UNL     1      46.739   5.521  13.174  0.00  0.00    +0.000 A 
ATOM      4  C   UNL     1      46.173   5.930  11.957  0.00  0.00    +0.000 A 
ATOM      5  C   UNL     1      45.401   5.049  11.194  0.00  0.00    +0.000 A 
ATOM      6  C   UNL     1      45.100   3.798  11.742  0.00  0.00    +0.000 A 
ATOM      7  C   UNL     1      45.668   3.381  12.951  0.00  0.00    +0.000 A 
BRANCH   5   8
ATOM      8  N   UNL     1      44.840   5.368   9.949  0.00  0.00    +0.000 N 
ATOM      9  H   UNL     1      45.515   5.865   9.370  0.00  0.00    +0.000 HD
BRANCH   8  10
ATOM     10  C   UNL     1      44.196   4.287   9.205  0.00  0.00    +0.000 C 
BRANCH  10  11
ATOM     11  C   UNL     1      45.207   3.448   8.446  0.00  0.00    +0.000 A 
ATOM     12  C   UNL     1      46.123   4.083   7.588  0.00  0.00    +0.000 A 
ATOM     13  C   UNL     1      47.128   3.355   6.948  0.00  0.00    +0.000 A 
ATOM     14  C   UNL     1      47.229   1.988   7.167  0.00  0.00    +0.000 A 
ATOM     15  F   UNL     1      48.201   1.292   6.561  0.00  0.00    +0.000 F 
ATOM     16  C   UNL     1      46.347   1.335   8.017  0.00  0.00    +0.000 A 
ATOM     17  C   UNL     1      45.343   2.064   8.662  0.00  0.00    +0.000 A 
ENDBRANCH  10  11
ENDBRANCH   8  10
ENDBRANCH   5   8
ENDBRANCH   1   2
BRANCH   1  20
ATOM     18  C   UNL     1      47.824   4.641  17.126  0.00  0.00    +0.000 C 
ATOM     19  O   UNL     1      47.914   3.507  17.594  0.00  0.00    +0.000 OA
ATOM     20  N   UNL     1      47.469   4.844  15.821  0.00  0.00    +0.000 N 
ATOM     21  H   UNL     1      47.343   5.783  15.465  0.00  0.00    +0.000 HD
BRANCH  18  29
ATOM     22  C   UNL     1      49.919   7.353  16.731  0.00  0.00    +0.000 A 
ATOM     23  N   UNL     1      50.680   8.457  16.872  0.00  0.00    +0.000 NA
ATOM     24  C   UNL     1      50.550   9.176  17.989  0.00  0.00    +0.000 A 
ATOM     25  N   UNL     1      49.727   8.933  19.005  0.00  0.00    +0.000 NA
ATOM     26  C   UNL     1      48.992   7.822  18.832  0.00  0.00    +0.000 A 
ATOM     27  S   UNL     1      47.877   7.366  20.026  0.00  0.00    +0.000 S 
ATOM     28  C   UNL     1      47.424   5.985  19.148  0.00  0.00    +0.000 A 
ATOM     29  C   UNL     1      48.105   5.835  17.943  0.00  0.00    +0.000 A 
ATOM     30  C   UNL     1      49.022   6.954  17.742  0.00  0.00    +0.000 A 
BRANCH  22  32
ATOM     31  C   UNL     1      49.764   7.387  14.387  0.00  0.00    +0.000 C 
ATOM     32  O   UNL     1      50.031   6.625  15.563  0.00  0.00    +0.000 OA
ENDBRANCH  22  32
ENDBRANCH  18  29
ENDBRANCH   1  20
TORSDOF 7
ENDMDL
MODEL 5
REMARK VINA RESULT:    -7.683      2.701      3.420
REMARK INTER + INTRA:         -12.073
REMARK INTER:                 -10.820
REMARK INTRA:                  -1.253
REMARK UNBOUND:                -1.246
REMARK  Name = 
REMARK  8 active torsions:
REMARK  status: ('A' for Active; 'I' for Inactive)
REMARK    1  A    between atoms: C_1  and  O_2
REMARK    2  A    between atoms: O_2  and  C_3
REMARK    3  A    between atoms: C_10  and  C_11
REMARK    4  A    between atoms: N_13  and  C_14
REMARK    5  A    between atoms: C_14  and  C_15
REMARK    6  A    between atoms: C_18  and  N_19
REMARK    7  A    between atoms: N_19  and  C_20
REMARK    8  A    between atoms: C_20  and  C_21
REMARK                            x       y       z     vdW  Elec       q    Type
REMARK                         _______ _______ _______ _____ _____    ______ ____
ROOT
ATOM      1  C   UNL     1      47.508   4.469  15.169  0.00  0.00    +0.000 C 
ENDROOT
BRANCH   1   2
ATOM      2  C   UNL     1      46.779   4.801  13.893  0.00  0.00    +0.000 A 
ATOM      3  C   UNL     1      47.169   5.887  13.099  0.00  0.00    +0.000 A 
ATOM      4  C   UNL     1      46.535   6.145  11.875  0.00  0.00    +0.000 A 
ATOM      5  C   UNL     1      45.509   5.315  11.411  0.00  0.00    +0.000 A 
ATOM      6  C   UNL     1      45.048   4.305  12.261  0.00  0.00    +0.000 A 
ATOM      7  C   UNL     1      45.681   4.038  13.480  0.00  0.00    +0.000 A 
BRANCH   5   8
ATOM      8  N   UNL     1      44.858   5.480  10.180  0.00  0.00    +0.000 N 
ATOM      9  H   UNL     1      45.482   5.914   9.502  0.00  0.00    +0.000 HD
BRANCH   8  10
ATOM     10  C   UNL     1      44.186   4.312   9.614  0.00  0.00    +0.000 C 
BRANCH  10  11
ATOM     11  C   UNL     1      45.126   3.483   8.758  0.00  0.00    +0.000 A 
ATOM     12  C   UNL     1      46.027   4.135   7.897  0.00  0.00    +0.000 A 
ATOM     13  C   UNL     1      46.971   3.410   7.166  0.00  0.00    +0.000 A 
ATOM     14  C   UNL     1      47.025   2.029   7.298  0.00  0.00    +0.000 A 
ATOM     15  F   UNL     1      47.939   1.335   6.604  0.00  0.00    +0.000 F 
ATOM     16  C   UNL     1      46.157   1.359   8.148  0.00  0.00    +0.000 A 
ATOM     17  C   UNL     1      45.214   2.085   8.883  0.00  0.00    +0.000 A 
ENDBRANCH  10  11
ENDBRANCH   8  10
ENDBRANCH   5   8
ENDBRANCH   1   2
BRANCH   1  20
ATOM     18  C   UNL     1      48.713   6.256  16.346  0.00  0.00    +0.000 C 
ATOM     19  O   UNL     1      49.784   5.900  15.855  0.00  0.00    +0.000 OA
ATOM     20  N   UNL     1      47.548   5.597  16.063  0.00  0.00    +0.000 N 
ATOM     21  H   UNL     1      46.686   5.865  16.517  0.00  0.00    +0.000 HD
BRANCH  18  29
ATOM     22  C   UNL     1      47.815   6.628  19.655  0.00  0.00    +0.000 A 
ATOM     23  N   UNL     1      47.451   7.069  20.876  0.00  0.00    +0.000 NA
ATOM     24  C   UNL     1      47.502   8.380  21.117  0.00  0.00    +0.000 A 
ATOM     25  N   UNL     1      47.892   9.333  20.274  0.00  0.00    +0.000 NA
ATOM     26  C   UNL     1      48.240   8.856  19.067  0.00  0.00    +0.000 A 
ATOM     27  S   UNL     1      48.776   9.932  17.870  0.00  0.00    +0.000 S 
ATOM     28  C   UNL     1      48.970   8.669  16.751  0.00  0.00    +0.000 A 
ATOM     29  C   UNL     1      48.630   7.415  17.252  0.00  0.00    +0.000 A 
ATOM     30  C   UNL     1      48.222   7.527  18.650  0.00  0.00    +0.000 A 
BRANCH  22  32
ATOM     31  C   UNL     1      49.021   4.612  19.716  0.00  0.00    +0.000 C 
ATOM     32  O   UNL     1      47.790   5.269  19.415  0.00  0.00    +0.000 OA
ENDBRANCH  22  32
ENDBRANCH  18  29
ENDBRANCH   1  20
TORSDOF 7
ENDMDL
MODEL 6
REMARK VINA RESULT:    -7.512      1.752      2.299
REMARK INTER + INTRA:         -11.832
REMARK INTER:                 -10.624
REMARK INTRA:                  -1.208
REMARK UNBOUND:                -1.246
REMARK  Name = 
REMARK  8 active torsions:
REMARK  status: ('A' for Active; 'I' for Inactive)
REMARK    1  A    between atoms: C_1  and  O_2
REMARK    2  A    between atoms: O_2  and  C_3
REMARK    3  A    between atoms: C_10  and  C_11
REMARK    4  A    between atoms: N_13  and  C_14
REMARK    5  A    between atoms: C_14  and  C_15
REMARK    6  A    between atoms: C_18  and  N_19
REMARK    7  A    between atoms: N_19  and  C_20
REMARK    8  A    between atoms: C_20  and  C_21
REMARK                            x       y       z     vdW  Elec       q    Type
REMARK                         _______ _______ _______ _____ _____    ______ ____
ROOT
ATOM      1  C   UNL     1      47.490   7.667  13.527  0.00  0.00    +0.000 C 
ENDROOT
BRANCH   1   2
ATOM      2  C   UNL     1      46.601   6.590  12.959  0.00  0.00    +0.000 A 
ATOM      3  C   UNL     1      45.554   6.903  12.084  0.00  0.00    +0.000 A 
ATOM      4  C   UNL     1      44.779   5.890  11.501  0.00  0.00    +0.000 A 
ATOM      5  C   UNL     1      45.043   4.542  11.769  0.00  0.00    +0.000 A 
ATOM      6  C   UNL     1      46.011   4.244  12.733  0.00  0.00    +0.000 A 
ATOM      7  C   UNL     1      46.793   5.249  13.312  0.00  0.00    +0.000 A 
BRANCH   5   8
ATOM      8  N   UNL     1      44.344   3.473  11.192  0.00  0.00    +0.000 N 
ATOM      9  H   UNL     1      43.561   3.198  11.783  0.00  0.00    +0.000 HD
BRANCH   8  10
ATOM     10  C   UNL     1      43.932   3.615   9.796  0.00  0.00    +0.000 C 
BRANCH  10  11
ATOM     11  C   UNL     1      44.997   3.105   8.843  0.00  0.00    +0.000 A 
ATOM     12  C   UNL     1      45.704   4.024   8.047  0.00  0.00    +0.000 A 
ATOM     13  C   UNL     1      46.755   3.602   7.229  0.00  0.00    +0.000 A 
ATOM     14  C   UNL     1      47.109   2.260   7.207  0.00  0.00    +0.000 A 
ATOM     15  F   UNL     1      48.125   1.858   6.430  0.00  0.00    +0.000 F 
ATOM     16  C   UNL     1      46.437   1.332   7.990  0.00  0.00    +0.000 A 
ATOM     17  C   UNL     1      45.388   1.754   8.812  0.00  0.00    +0.000 A 
ENDBRANCH  10  11
ENDBRANCH   8  10
ENDBRANCH   5   8
ENDBRANCH   1   2
BRANCH   1  20
ATOM     18  C   UNL     1      49.234   7.692  15.255  0.00  0.00    +0.000 C 
ATOM     19  O   UNL     1      48.784   8.730  15.739  0.00  0.00    +0.000 OA
ATOM     20  N   UNL     1      48.656   7.111  14.159  0.00  0.00    +0.000 N 
ATOM     21  H   UNL     1      49.071   6.290  13.738  0.00  0.00    +0.000 HD
BRANCH  18  29
ATOM     22  C   UNL     1      49.621   5.027  17.409  0.00  0.00    +0.000 A 
ATOM     23  N   UNL     1      50.056   4.089  18.274  0.00  0.00    +0.000 NA
ATOM     24  C   UNL     1      51.369   3.993  18.495  0.00  0.00    +0.000 A 
ATOM     25  N   UNL     1      52.329   4.727  17.938  0.00  0.00    +0.000 NA
ATOM     26  C   UNL     1      51.855   5.655  17.089  0.00  0.00    +0.000 A 
ATOM     27  S   UNL     1      52.943   6.673  16.278  0.00  0.00    +0.000 S 
ATOM     28  C   UNL     1      51.674   7.490  15.498  0.00  0.00    +0.000 A 
ATOM     29  C   UNL     1      50.409   7.018  15.837  0.00  0.00    +0.000 A 
ATOM     30  C   UNL     1      50.522   5.898  16.766  0.00  0.00    +0.000 A 
BRANCH  22  32
ATOM     31  C   UNL     1      47.712   3.907  16.618  0.00  0.00    +0.000 C 
ATOM     32  O   UNL     1      48.265   5.106  17.158  0.00  0.00    +0.000 OA
ENDBRANCH  22  32
ENDBRANCH  18  29
ENDBRANCH   1  20
TORSDOF 7
ENDMDL
MODEL 7
REMARK VINA RESULT:    -7.444      1.505      2.656
REMARK INTER + INTRA:         -11.736
REMARK INTER:                 -10.992
REMARK INTRA:                  -0.743
REMARK UNBOUND:                -1.246
REMARK  Name = 
REMARK  8 active torsions:
REMARK  status: ('A' for Active; 'I' for Inactive)
REMARK    1  A    between atoms: C_1  and  O_2
REMARK    2  A    between atoms: O_2  and  C_3
REMARK    3  A    between atoms: C_10  and  C_11
REMARK    4  A    between atoms: N_13  and  C_14
REMARK    5  A    between atoms: C_14  and  C_15
REMARK    6  A    between atoms: C_18  and  N_19
REMARK    7  A    between atoms: N_19  and  C_20
REMARK    8  A    between atoms: C_20  and  C_21
REMARK                            x       y       z     vdW  Elec       q    Type
REMARK                         _______ _______ _______ _____ _____    ______ ____
ROOT
ATOM      1  C   UNL     1      46.563   7.166  13.010  0.00  0.00    +0.000 C 
ENDROOT
BRANCH   1   2
ATOM      2  C   UNL     1      45.851   6.267  12.032  0.00  0.00    +0.000 A 
ATOM      3  C   UNL     1      46.153   6.304  10.664  0.00  0.00    +0.000 A 
ATOM      4  C   UNL     1      45.541   5.413   9.771  0.00  0.00    +0.000 A 
ATOM      5  C   UNL     1      44.628   4.456  10.226  0.00  0.00    +0.000 A 
ATOM      6  C   UNL     1      44.245   4.504  11.570  0.00  0.00    +0.000 A 
ATOM      7  C   UNL     1      44.857   5.385  12.468  0.00  0.00    +0.000 A 
BRANCH   5   8
ATOM      8  N   UNL     1      44.010   3.504   9.404  0.00  0.00    +0.000 N 
ATOM      9  H   UNL     1      43.760   3.915   8.506  0.00  0.00    +0.000 HD
BRANCH   8  10
ATOM     10  C   UNL     1      44.692   2.223   9.230  0.00  0.00    +0.000 C 
BRANCH  10  11
ATOM     11  C   UNL     1      45.714   2.278   8.110  0.00  0.00    +0.000 A 
ATOM     12  C   UNL     1      46.603   1.203   7.936  0.00  0.00    +0.000 A 
ATOM     13  C   UNL     1      47.492   1.176   6.858  0.00  0.00    +0.000 A 
ATOM     14  C   UNL     1      47.492   2.221   5.944  0.00  0.00    +0.000 A 
ATOM     15  F   UNL     1      48.338   2.188   4.904  0.00  0.00    +0.000 F 
ATOM     16  C   UNL     1      46.618   3.290   6.083  0.00  0.00    +0.000 A 
ATOM     17  C   UNL     1      45.725   3.316   7.159  0.00  0.00    +0.000 A 
ENDBRANCH  10  11
ENDBRANCH   8  10
ENDBRANCH   5   8
ENDBRANCH   1   2
BRANCH   1  20
ATOM     18  C   UNL     1      48.116   6.117  14.596  0.00  0.00    +0.000 C 
ATOM     19  O   UNL     1      49.074   6.346  13.858  0.00  0.00    +0.000 OA
ATOM     20  N   UNL     1      46.846   6.484  14.245  0.00  0.00    +0.000 N 
ATOM     21  H   UNL     1      46.062   6.239  14.835  0.00  0.00    +0.000 HD
BRANCH  18  29
ATOM     22  C   UNL     1      50.030   6.804  17.383  0.00  0.00    +0.000 A 
ATOM     23  N   UNL     1      50.708   6.786  18.547  0.00  0.00    +0.000 NA
ATOM     24  C   UNL     1      50.497   5.770  19.387  0.00  0.00    +0.000 A 
ATOM     25  N   UNL     1      49.664   4.749  19.211  0.00  0.00    +0.000 NA
ATOM     26  C   UNL     1      49.012   4.797  18.037  0.00  0.00    +0.000 A 
ATOM     27  S   UNL     1      47.897   3.578  17.653  0.00  0.00    +0.000 S 
ATOM     28  C   UNL     1      47.566   4.287  16.145  0.00  0.00    +0.000 A 
ATOM     29  C   UNL     1      48.291   5.450  15.899  0.00  0.00    +0.000 A 
ATOM     30  C   UNL     1      49.134   5.770  17.048  0.00  0.00    +0.000 A 
BRANCH  22  32
ATOM     31  C   UNL     1      50.514   9.096  17.198  0.00  0.00    +0.000 C 
ATOM     32  O   UNL     1      50.226   7.870  16.527  0.00  0.00    +0.000 OA
ENDBRANCH  22  32
ENDBRANCH  18  29
ENDBRANCH   1  20
TORSDOF 7
ENDMDL
MODEL 8
REMARK VINA RESULT:    -6.767      4.157      8.789
REMARK INTER + INTRA:         -10.782
REMARK INTER:                  -9.565
REMARK INTRA:                  -1.217
REMARK UNBOUND:                -1.246
REMARK  Name = 
REMARK  8 active torsions:
REMARK  status: ('A' for Active; 'I' for Inactive)
REMARK    1  A    between atoms: C_1  and  O_2
REMARK    2  A    between atoms: O_2  and  C_3
REMARK    3  A    between atoms: C_10  and  C_11
REMARK    4  A    between atoms: N_13  and  C_14
REMARK    5  A    between atoms: C_14  and  C_15
REMARK    6  A    between atoms: C_18  and  N_19
REMARK    7  A    between atoms: N_19  and  C_20
REMARK    8  A    between atoms: C_20  and  C_21
REMARK                            x       y       z     vdW  Elec       q    Type
REMARK                         _______ _______ _______ _____ _____    ______ ____
ROOT
ATOM      1  C   UNL     1      47.245   3.316  16.899  0.00  0.00    +0.000 C 
ENDROOT
BRANCH   1   2
ATOM      2  C   UNL     1      48.705   3.247  17.266  0.00  0.00    +0.000 A 
ATOM      3  C   UNL     1      49.490   2.146  16.899  0.00  0.00    +0.000 A 
ATOM      4  C   UNL     1      50.865   2.123  17.178  0.00  0.00    +0.000 A 
ATOM      5  C   UNL     1      51.486   3.203  17.814  0.00  0.00    +0.000 A 
ATOM      6  C   UNL     1      50.675   4.242  18.280  0.00  0.00    +0.000 A 
ATOM      7  C   UNL     1      49.305   4.276  17.999  0.00  0.00    +0.000 A 
BRANCH   5   8
ATOM      8  N   UNL     1      52.859   3.273  18.086  0.00  0.00    +0.000 N 
ATOM      9  H   UNL     1      53.393   2.805  17.355  0.00  0.00    +0.000 HD
BRANCH   8  10
ATOM     10  C   UNL     1      53.417   4.589  18.391  0.00  0.00    +0.000 C 
BRANCH  10  11
ATOM     11  C   UNL     1      54.036   5.235  17.166  0.00  0.00    +0.000 A 
ATOM     12  C   UNL     1      55.228   4.707  16.638  0.00  0.00    +0.000 A 
ATOM     13  C   UNL     1      55.775   5.214  15.457  0.00  0.00    +0.000 A 
ATOM     14  C   UNL     1      55.129   6.248  14.792  0.00  0.00    +0.000 A 
ATOM     15  F   UNL     1      55.649   6.726  13.653  0.00  0.00    +0.000 F 
ATOM     16  C   UNL     1      53.945   6.781  15.282  0.00  0.00    +0.000 A 
ATOM     17  C   UNL     1      53.395   6.271  16.462  0.00  0.00    +0.000 A 
ENDBRANCH  10  11
ENDBRANCH   8  10
ENDBRANCH   5   8
ENDBRANCH   1   2
BRANCH   1  20
ATOM     18  C   UNL     1      47.009   4.230  14.632  0.00  0.00    +0.000 C 
ATOM     19  O   UNL     1      47.278   3.140  14.131  0.00  0.00    +0.000 OA
ATOM     20  N   UNL     1      46.979   4.399  15.990  0.00  0.00    +0.000 N 
ATOM     21  H   UNL     1      46.812   5.314  16.387  0.00  0.00    +0.000 HD
BRANCH  18  29
ATOM     22  C   UNL     1      44.277   5.125  12.726  0.00  0.00    +0.000 A 
ATOM     23  N   UNL     1      43.400   5.681  11.866  0.00  0.00    +0.000 NA
ATOM     24  C   UNL     1      43.734   6.833  11.280  0.00  0.00    +0.000 A 
ATOM     25  N   UNL     1      44.856   7.524  11.456  0.00  0.00    +0.000 NA
ATOM     26  C   UNL     1      45.707   6.935  12.314  0.00  0.00    +0.000 A 
ATOM     27  S   UNL     1      47.186   7.686  12.667  0.00  0.00    +0.000 S 
ATOM     28  C   UNL     1      47.639   6.419  13.703  0.00  0.00    +0.000 A 
ATOM     29  C   UNL     1      46.692   5.403  13.798  0.00  0.00    +0.000 A 
ATOM     30  C   UNL     1      45.521   5.731  12.989  0.00  0.00    +0.000 A 
BRANCH  22  32
ATOM     31  C   UNL     1      43.751   2.850  12.461  0.00  0.00    +0.000 C 
ATOM     32  O   UNL     1      43.920   3.949  13.356  0.00  0.00    +0.000 OA
ENDBRANCH  22  32
ENDBRANCH  18  29
ENDBRANCH   1  20
TORSDOF 7
ENDMDL
MODEL 9
REMARK VINA RESULT:    -6.503      4.260      8.067
REMARK INTER + INTRA:         -10.411
REMARK INTER:                  -8.971
REMARK INTRA:                  -1.439
REMARK UNBOUND:                -1.246
REMARK  Name = 
REMARK  8 active torsions:
REMARK  status: ('A' for Active; 'I' for Inactive)
REMARK    1  A    between atoms: C_1  and  O_2
REMARK    2  A    between atoms: O_2  and  C_3
REMARK    3  A    between atoms: C_10  and  C_11
REMARK    4  A    between atoms: N_13  and  C_14
REMARK    5  A    between atoms: C_14  and  C_15
REMARK    6  A    between atoms: C_18  and  N_19
REMARK    7  A    between atoms: N_19  and  C_20
REMARK    8  A    between atoms: C_20  and  C_21
REMARK                            x       y       z     vdW  Elec       q    Type
REMARK                         _______ _______ _______ _____ _____    ______ ____
ROOT
ATOM      1  C   UNL     1      47.982   9.046  13.702  0.00  0.00    +0.000 C 
ENDROOT
BRANCH   1   2
ATOM      2  C   UNL     1      48.622   8.468  14.938  0.00  0.00    +0.000 A 
ATOM      3  C   UNL     1      48.240   8.896  16.216  0.00  0.00    +0.000 A 
ATOM      4  C   UNL     1      48.786   8.300  17.363  0.00  0.00    +0.000 A 
ATOM      5  C   UNL     1      49.712   7.257  17.258  0.00  0.00    +0.000 A 
ATOM      6  C   UNL     1      50.174   6.918  15.982  0.00  0.00    +0.000 A 
ATOM      7  C   UNL     1      49.628   7.502  14.834  0.00  0.00    +0.000 A 
BRANCH   5   8
ATOM      8  N   UNL     1      50.267   6.583  18.355  0.00  0.00    +0.000 N 
ATOM      9  H   UNL     1      50.403   7.223  19.135  0.00  0.00    +0.000 HD
BRANCH   8  10
ATOM     10  C   UNL     1      49.611   5.350  18.786  0.00  0.00    +0.000 C 
BRANCH  10  11
ATOM     11  C   UNL     1      50.293   4.121  18.213  0.00  0.00    +0.000 A 
ATOM     12  C   UNL     1      51.659   3.909  18.474  0.00  0.00    +0.000 A 
ATOM     13  C   UNL     1      52.297   2.742  18.044  0.00  0.00    +0.000 A 
ATOM     14  C   UNL     1      51.571   1.778  17.357  0.00  0.00    +0.000 A 
ATOM     15  F   UNL     1      52.182   0.655  16.955  0.00  0.00    +0.000 F 
ATOM     16  C   UNL     1      50.220   1.955  17.095  0.00  0.00    +0.000 A 
ATOM     17  C   UNL     1      49.579   3.120  17.529  0.00  0.00    +0.000 A 
ENDBRANCH  10  11
ENDBRANCH   8  10
ENDBRANCH   5   8
ENDBRANCH   1   2
BRANCH   1  20
ATOM     18  C   UNL     1      46.785   7.371  12.363  0.00  0.00    +0.000 C 
ATOM     19  O   UNL     1      47.809   7.092  11.740  0.00  0.00    +0.000 OA
ATOM     20  N   UNL     1      46.788   8.329  13.340  0.00  0.00    +0.000 N 
ATOM     21  H   UNL     1      45.928   8.587  13.804  0.00  0.00    +0.000 HD
BRANCH  18  29
ATOM     22  C   UNL     1      45.682   4.140  12.859  0.00  0.00    +0.000 A 
ATOM     23  N   UNL     1      45.027   2.963  12.867  0.00  0.00    +0.000 NA
ATOM     24  C   UNL     1      43.795   2.921  12.355  0.00  0.00    +0.000 A 
ATOM     25  N   UNL     1      43.113   3.936  11.831  0.00  0.00    +0.000 NA
ATOM     26  C   UNL     1      43.801   5.090  11.834  0.00  0.00    +0.000 A 
ATOM     27  S   UNL     1      43.077   6.493  11.215  0.00  0.00    +0.000 S 
ATOM     28  C   UNL     1      44.471   7.411  11.528  0.00  0.00    +0.000 A 
ATOM     29  C   UNL     1      45.510   6.680  12.098  0.00  0.00    +0.000 A 
ATOM     30  C   UNL     1      45.094   5.296  12.309  0.00  0.00    +0.000 A 
BRANCH  22  32
ATOM     31  C   UNL     1      46.946   4.540  14.800  0.00  0.00    +0.000 C 
ATOM     32  O   UNL     1      46.945   4.191  13.416  0.00  0.00    +0.000 OA
ENDBRANCH  22  32
ENDBRANCH  18  29
ENDBRANCH   1  20
TORSDOF 7
ENDMDL
