MODEL 1
REMARK VINA RESULT:    -8.544      0.000      0.000
REMARK INTER + INTRA:         -13.969
REMARK INTER:                 -12.540
REMARK INTRA:                  -1.428
REMARK UNBOUND:                -1.428
REMARK  Name = 
REMARK  9 active torsions:
REMARK  status: ('A' for Active; 'I' for Inactive)
REMARK    1  A    between atoms: C_1  and  O_2
REMARK    2  A    between atoms: O_2  and  C_3
REMARK    3  A    between atoms: C_10  and  C_11
REMARK    4  A    between atoms: N_13  and  C_14
REMARK    5  A    between atoms: C_14  and  C_15
REMARK    6  A    between atoms: C_18  and  N_19
REMARK    7  A    between atoms: N_19  and  C_20
REMARK    8  A    between atoms: C_20  and  C_21
REMARK    9  A    between atoms: C_21  and  C_22
REMARK                            x       y       z     vdW  Elec       q    Type
REMARK                         _______ _______ _______ _____ _____    ______ ____
ROOT
ATOM      1  C   UNL     1      47.487   8.415  13.446  0.00  0.00    +0.000 C 
ENDROOT
BRANCH   1   2
ATOM      2  C   UNL     1      46.561   7.692  12.502  0.00  0.00    +0.000 A 
ATOM      3  C   UNL     1      47.047   6.674  11.675  0.00  0.00    +0.000 A 
ATOM      4  C   UNL     1      46.167   5.895  10.914  0.00  0.00    +0.000 A 
ATOM      5  C   UNL     1      44.787   6.104  10.976  0.00  0.00    +0.000 A 
ATOM      6  C   UNL     1      44.324   7.219  11.681  0.00  0.00    +0.000 A 
ATOM      7  C   UNL     1      45.198   7.999  12.449  0.00  0.00    +0.000 A 
BRANCH   5   8
ATOM      8  N   UNL     1      43.845   5.288  10.334  0.00  0.00    +0.000 N 
ATOM      9  H   UNL     1      43.331   5.831   9.640  0.00  0.00    +0.000 HD
BRANCH   8  10
ATOM     10  C   UNL     1      44.286   3.990   9.803  0.00  0.00    +0.000 C 
BRANCH  10  11
ATOM     11  C   UNL     1      44.604   4.074   8.302  0.00  0.00    +0.000 C 
BRANCH  11  12
ATOM     12  C   UNL     1      45.679   3.113   7.877  0.00  0.00    +0.000 A 
ATOM     13  C   UNL     1      46.679   3.485   6.976  0.00  0.00    +0.000 A 
ATOM     14  C   UNL     1      47.645   2.558   6.599  0.00  0.00    +0.000 A 
ATOM     15  C   UNL     1      47.584   1.285   7.144  0.00  0.00    +0.000 A 
ATOM     16  N   UNL     1      46.640   0.892   8.024  0.00  0.00    +0.000 NA
ATOM     17  C   UNL     1      45.708   1.810   8.366  0.00  0.00    +0.000 A 
ENDBRANCH  11  12
ENDBRANCH  10  11
ENDBRANCH   8  10
ENDBRANCH   5   8
ENDBRANCH   1   2
BRANCH   1  20
ATOM     18  C   UNL     1      48.919   7.020  14.863  0.00  0.00    +0.000 C 
ATOM     19  O   UNL     1      49.829   7.062  14.038  0.00  0.00    +0.000 OA
ATOM     20  N   UNL     1      47.732   7.666  14.650  0.00  0.00    +0.000 N 
ATOM     21  H   UNL     1      46.994   7.628  15.336  0.00  0.00    +0.000 HD
BRANCH  18  29
ATOM     22  C   UNL     1      47.263   4.297  16.152  0.00  0.00    +0.000 A 
ATOM     23  N   UNL     1      46.847   3.215  16.835  0.00  0.00    +0.000 NA
ATOM     24  C   UNL     1      47.466   2.924  17.982  0.00  0.00    +0.000 A 
ATOM     25  N   UNL     1      48.461   3.600  18.552  0.00  0.00    +0.000 NA
ATOM     26  C   UNL     1      48.856   4.662  17.832  0.00  0.00    +0.000 A 
ATOM     27  S   UNL     1      50.107   5.653  18.408  0.00  0.00    +0.000 S 
ATOM     28  C   UNL     1      50.020   6.648  17.033  0.00  0.00    +0.000 A 
ATOM     29  C   UNL     1      49.055   6.252  16.112  0.00  0.00    +0.000 A 
ATOM     30  C   UNL     1      48.339   5.081  16.608  0.00  0.00    +0.000 A 
BRANCH  22  32
ATOM     31  C   UNL     1      46.985   3.735  13.896  0.00  0.00    +0.000 C 
ATOM     32  O   UNL     1      46.630   4.605  14.968  0.00  0.00    +0.000 OA
ENDBRANCH  22  32
ENDBRANCH  18  29
ENDBRANCH   1  20
TORSDOF 8
ENDMDL
MODEL 2
REMARK VINA RESULT:    -8.074      1.661      2.147
REMARK INTER + INTRA:         -13.278
REMARK INTER:                 -12.113
REMARK INTRA:                  -1.165
REMARK UNBOUND:                -1.428
REMARK  Name = 
REMARK  9 active torsions:
REMARK  status: ('A' for Active; 'I' for Inactive)
REMARK    1  A    between atoms: C_1  and  O_2
REMARK    2  A    between atoms: O_2  and  C_3
REMARK    3  A    between atoms: C_10  and  C_11
REMARK    4  A    between atoms: N_13  and  C_14
REMARK    5  A    between atoms: C_14  and  C_15
REMARK    6  A    between atoms: C_18  and  N_19
REMARK    7  A    between atoms: N_19  and  C_20
REMARK    8  A    between atoms: C_20  and  C_21
REMARK    9  A    between atoms: C_21  and  C_22
REMARK                            x       y       z     vdW  Elec       q    Type
REMARK                         _______ _______ _______ _____ _____    ______ ____
ROOT
ATOM      1  C   UNL     1      48.079   6.598  13.319  0.00  0.00    +0.000 C 
ENDROOT
BRANCH   1   2
ATOM      2  C   UNL     1      46.906   5.901  12.679  0.00  0.00    +0.000 A 
ATOM      3  C   UNL     1      46.414   6.332  11.443  0.00  0.00    +0.000 A 
ATOM      4  C   UNL     1      45.431   5.595  10.773  0.00  0.00    +0.000 A 
ATOM      5  C   UNL     1      44.933   4.405  11.312  0.00  0.00    +0.000 A 
ATOM      6  C   UNL     1      45.315   4.067  12.613  0.00  0.00    +0.000 A 
ATOM      7  C   UNL     1      46.301   4.796  13.288  0.00  0.00    +0.000 A 
BRANCH   5   8
ATOM      8  N   UNL     1      44.037   3.560  10.642  0.00  0.00    +0.000 N 
ATOM      9  H   UNL     1      43.080   3.874  10.802  0.00  0.00    +0.000 HD
BRANCH   8  10
ATOM     10  C   UNL     1      44.288   3.251   9.227  0.00  0.00    +0.000 C 
BRANCH  10  11
ATOM     11  C   UNL     1      45.255   2.065   9.073  0.00  0.00    +0.000 C 
BRANCH  11  12
ATOM     12  C   UNL     1      46.143   2.188   7.867  0.00  0.00    +0.000 A 
ATOM     13  C   UNL     1      46.059   3.284   7.005  0.00  0.00    +0.000 A 
ATOM     14  C   UNL     1      46.891   3.349   5.892  0.00  0.00    +0.000 A 
ATOM     15  C   UNL     1      47.789   2.315   5.680  0.00  0.00    +0.000 A 
ATOM     16  N   UNL     1      47.906   1.246   6.495  0.00  0.00    +0.000 NA
ATOM     17  C   UNL     1      47.080   1.204   7.564  0.00  0.00    +0.000 A 
ENDBRANCH  11  12
ENDBRANCH  10  11
ENDBRANCH   8  10
ENDBRANCH   5   8
ENDBRANCH   1   2
BRANCH   1  20
ATOM     18  C   UNL     1      49.005   6.768  15.582  0.00  0.00    +0.000 C 
ATOM     19  O   UNL     1      50.153   6.704  15.150  0.00  0.00    +0.000 OA
ATOM     20  N   UNL     1      47.924   6.729  14.744  0.00  0.00    +0.000 N 
ATOM     21  H   UNL     1      46.986   6.788  15.110  0.00  0.00    +0.000 HD
BRANCH  18  29
ATOM     22  C   UNL     1      48.851   4.456  18.120  0.00  0.00    +0.000 A 
ATOM     23  N   UNL     1      48.814   3.786  19.286  0.00  0.00    +0.000 NA
ATOM     24  C   UNL     1      48.600   4.487  20.404  0.00  0.00    +0.000 A 
ATOM     25  N   UNL     1      48.400   5.799  20.502  0.00  0.00    +0.000 NA
ATOM     26  C   UNL     1      48.460   6.431  19.319  0.00  0.00    +0.000 A 
ATOM     27  S   UNL     1      48.216   8.109  19.246  0.00  0.00    +0.000 S 
ATOM     28  C   UNL     1      48.460   8.122  17.565  0.00  0.00    +0.000 A 
ATOM     29  C   UNL     1      48.736   6.869  17.027  0.00  0.00    +0.000 A 
ATOM     30  C   UNL     1      48.704   5.854  18.075  0.00  0.00    +0.000 A 
BRANCH  22  32
ATOM     31  C   UNL     1      47.874   3.242  16.373  0.00  0.00    +0.000 C 
ATOM     32  O   UNL     1      49.071   3.741  16.963  0.00  0.00    +0.000 OA
ENDBRANCH  22  32
ENDBRANCH  18  29
ENDBRANCH   1  20
TORSDOF 8
ENDMDL
MODEL 3
REMARK VINA RESULT:    -7.515      2.308      3.083
REMARK INTER + INTRA:         -12.458
REMARK INTER:                 -11.179
REMARK INTRA:                  -1.278
REMARK UNBOUND:                -1.428
REMARK  Name = 
REMARK  9 active torsions:
REMARK  status: ('A' for Active; 'I' for Inactive)
REMARK    1  A    between atoms: C_1  and  O_2
REMARK    2  A    between atoms: O_2  and  C_3
REMARK    3  A    between atoms: C_10  and  C_11
REMARK    4  A    between atoms: N_13  and  C_14
REMARK    5  A    between atoms: C_14  and  C_15
REMARK    6  A    between atoms: C_18  and  N_19
REMARK    7  A    between atoms: N_19  and  C_20
REMARK    8  A    between atoms: C_20  and  C_21
REMARK    9  A    between atoms: C_21  and  C_22
REMARK                            x       y       z     vdW  Elec       q    Type
REMARK                         _______ _______ _______ _____ _____    ______ ____
ROOT
ATOM      1  C   UNL     1      48.542   7.001  14.120  0.00  0.00    +0.000 C 
ENDROOT
BRANCH   1   2
ATOM      2  C   UNL     1      47.482   6.321  13.293  0.00  0.00    +0.000 A 
ATOM      3  C   UNL     1      46.862   5.155  13.754  0.00  0.00    +0.000 A 
ATOM      4  C   UNL     1      45.772   4.609  13.067  0.00  0.00    +0.000 A 
ATOM      5  C   UNL     1      45.266   5.225  11.919  0.00  0.00    +0.000 A 
ATOM      6  C   UNL     1      45.985   6.296  11.380  0.00  0.00    +0.000 A 
ATOM      7  C   UNL     1      47.073   6.850  12.064  0.00  0.00    +0.000 A 
BRANCH   5   8
ATOM      8  N   UNL     1      44.108   4.800  11.252  0.00  0.00    +0.000 N 
ATOM      9  H   UNL     1      43.672   5.590  10.778  0.00  0.00    +0.000 HD
BRANCH   8  10
ATOM     10  C   UNL     1      44.192   3.614  10.387  0.00  0.00    +0.000 C 
BRANCH  10  11
ATOM     11  C   UNL     1      44.500   3.999   8.931  0.00  0.00    +0.000 C 
BRANCH  11  12
ATOM     12  C   UNL     1      45.516   3.096   8.290  0.00  0.00    +0.000 A 
ATOM     13  C   UNL     1      46.432   3.575   7.351  0.00  0.00    +0.000 A 
ATOM     14  C   UNL     1      47.345   2.700   6.771  0.00  0.00    +0.000 A 
ATOM     15  C   UNL     1      47.317   1.370   7.158  0.00  0.00    +0.000 A 
ATOM     16  N   UNL     1      46.455   0.872   8.069  0.00  0.00    +0.000 NA
ATOM     17  C   UNL     1      45.574   1.742   8.610  0.00  0.00    +0.000 A 
ENDBRANCH  11  12
ENDBRANCH  10  11
ENDBRANCH   8  10
ENDBRANCH   5   8
ENDBRANCH   1   2
BRANCH   1  20
ATOM     18  C   UNL     1      49.289   6.403  16.377  0.00  0.00    +0.000 C 
ATOM     19  O   UNL     1      50.411   6.120  15.963  0.00  0.00    +0.000 OA
ATOM     20  N   UNL     1      48.310   6.852  15.533  0.00  0.00    +0.000 N 
ATOM     21  H   UNL     1      47.394   7.086  15.884  0.00  0.00    +0.000 HD
BRANCH  18  29
ATOM     22  C   UNL     1      47.854   8.504  18.688  0.00  0.00    +0.000 A 
ATOM     23  N   UNL     1      47.249   9.079  19.744  0.00  0.00    +0.000 NA
ATOM     24  C   UNL     1      47.118   8.355  20.860  0.00  0.00    +0.000 A 
ATOM     25  N   UNL     1      47.536   7.108  21.061  0.00  0.00    +0.000 NA
ATOM     26  C   UNL     1      48.120   6.566  19.980  0.00  0.00    +0.000 A 
ATOM     27  S   UNL     1      48.729   4.984  20.053  0.00  0.00    +0.000 S 
ATOM     28  C   UNL     1      49.225   5.046  18.430  0.00  0.00    +0.000 A 
ATOM     29  C   UNL     1      48.938   6.253  17.799  0.00  0.00    +0.000 A 
ATOM     30  C   UNL     1      48.305   7.172  18.739  0.00  0.00    +0.000 A 
BRANCH  22  32
ATOM     31  C   UNL     1      49.219   9.966  17.473  0.00  0.00    +0.000 C 
ATOM     32  O   UNL     1      47.993   9.242  17.534  0.00  0.00    +0.000 OA
ENDBRANCH  22  32
ENDBRANCH  18  29
ENDBRANCH   1  20
TORSDOF 8
ENDMDL
MODEL 4
REMARK VINA RESULT:    -7.444      2.094      3.516
REMARK INTER + INTRA:         -12.354
REMARK INTER:                 -10.933
REMARK INTRA:                  -1.421
REMARK UNBOUND:                -1.428
REMARK  Name = 
REMARK  9 active torsions:
REMARK  status: ('A' for Active; 'I' for Inactive)
REMARK    1  A    between atoms: C_1  and  O_2
REMARK    2  A    between atoms: O_2  and  C_3
REMARK    3  A    between atoms: C_10  and  C_11
REMARK    4  A    between atoms: N_13  and  C_14
REMARK    5  A    between atoms: C_14  and  C_15
REMARK    6  A    between atoms: C_18  and  N_19
REMARK    7  A    between atoms: N_19  and  C_20
REMARK    8  A    between atoms: C_20  and  C_21
REMARK    9  A    between atoms: C_21  and  C_22
REMARK                            x       y       z     vdW  Elec       q    Type
REMARK                         _______ _______ _______ _____ _____    ______ ____
ROOT
ATOM      1  C   UNL     1      47.200   3.409  14.823  0.00  0.00    +0.000 C 
ENDROOT
BRANCH   1   2
ATOM      2  C   UNL     1      46.549   4.066  13.634  0.00  0.00    +0.000 A 
ATOM      3  C   UNL     1      46.820   5.403  13.326  0.00  0.00    +0.000 A 
ATOM      4  C   UNL     1      46.344   5.970  12.138  0.00  0.00    +0.000 A 
ATOM      5  C   UNL     1      45.605   5.212  11.227  0.00  0.00    +0.000 A 
ATOM      6  C   UNL     1      45.207   3.929  11.614  0.00  0.00    +0.000 A 
ATOM      7  C   UNL     1      45.684   3.353  12.797  0.00  0.00    +0.000 A 
BRANCH   5   8
ATOM      8  N   UNL     1      45.199   5.682   9.969  0.00  0.00    +0.000 N 
ATOM      9  H   UNL     1      45.809   6.443   9.671  0.00  0.00    +0.000 HD
BRANCH   8  10
ATOM     10  C   UNL     1      44.967   4.705   8.896  0.00  0.00    +0.000 C 
BRANCH  10  11
ATOM     11  C   UNL     1      46.222   4.512   8.030  0.00  0.00    +0.000 C 
BRANCH  11  12
ATOM     12  C   UNL     1      46.531   3.065   7.763  0.00  0.00    +0.000 A 
ATOM     13  C   UNL     1      45.819   2.038   8.387  0.00  0.00    +0.000 A 
ATOM     14  C   UNL     1      46.149   0.713   8.122  0.00  0.00    +0.000 A 
ATOM     15  C   UNL     1      47.180   0.457   7.231  0.00  0.00    +0.000 A 
ATOM     16  N   UNL     1      47.883   1.421   6.602  0.00  0.00    +0.000 NA
ATOM     17  C   UNL     1      47.547   2.700   6.885  0.00  0.00    +0.000 A 
ENDBRANCH  11  12
ENDBRANCH  10  11
ENDBRANCH   8  10
ENDBRANCH   5   8
ENDBRANCH   1   2
BRANCH   1  20
ATOM     18  C   UNL     1      47.330   4.230  17.129  0.00  0.00    +0.000 C 
ATOM     19  O   UNL     1      46.676   3.273  17.539  0.00  0.00    +0.000 OA
ATOM     20  N   UNL     1      47.638   4.368  15.803  0.00  0.00    +0.000 N 
ATOM     21  H   UNL     1      48.180   5.155  15.479  0.00  0.00    +0.000 HD
BRANCH  18  29
ATOM     22  C   UNL     1      50.428   5.538  17.840  0.00  0.00    +0.000 A 
ATOM     23  N   UNL     1      51.486   6.269  18.236  0.00  0.00    +0.000 NA
ATOM     24  C   UNL     1      51.271   7.260  19.107  0.00  0.00    +0.000 A 
ATOM     25  N   UNL     1      50.109   7.610  19.652  0.00  0.00    +0.000 NA
ATOM     26  C   UNL     1      49.078   6.867  19.219  0.00  0.00    +0.000 A 
ATOM     27  S   UNL     1      47.517   7.160  19.816  0.00  0.00    +0.000 S 
ATOM     28  C   UNL     1      46.859   5.934  18.842  0.00  0.00    +0.000 A 
ATOM     29  C   UNL     1      47.797   5.285  18.045  0.00  0.00    +0.000 A 
ATOM     30  C   UNL     1      49.129   5.824  18.297  0.00  0.00    +0.000 A 
BRANCH  22  32
ATOM     31  C   UNL     1      50.905   3.262  17.569  0.00  0.00    +0.000 C 
ATOM     32  O   UNL     1      50.641   4.514  16.943  0.00  0.00    +0.000 OA
ENDBRANCH  22  32
ENDBRANCH  18  29
ENDBRANCH   1  20
TORSDOF 8
ENDMDL
MODEL 5
REMARK VINA RESULT:    -7.418      1.893      3.420
REMARK INTER + INTRA:         -12.315
REMARK INTER:                 -10.979
REMARK INTRA:                  -1.337
REMARK UNBOUND:                -1.428
REMARK  Name = 
REMARK  9 active torsions:
REMARK  status: ('A' for Active; 'I' for Inactive)
REMARK    1  A    between atoms: C_1  and  O_2
REMARK    2  A    between atoms: O_2  and  C_3
REMARK    3  A    between atoms: C_10  and  C_11
REMARK    4  A    between atoms: N_13  and  C_14
REMARK    5  A    between atoms: C_14  and  C_15
REMARK    6  A    between atoms: C_18  and  N_19
REMARK    7  A    between atoms: N_19  and  C_20
REMARK    8  A    between atoms: C_20  and  C_21
REMARK    9  A    between atoms: C_21  and  C_22
REMARK                            x       y       z     vdW  Elec       q    Type
REMARK                         _______ _______ _______ _____ _____    ______ ____
ROOT
ATOM      1  C   UNL     1      47.173   4.037  14.674  0.00  0.00    +0.000 C 
ENDROOT
BRANCH   1   2
ATOM      2  C   UNL     1      46.175   4.348  13.589  0.00  0.00    +0.000 A 
ATOM      3  C   UNL     1      45.866   5.674  13.268  0.00  0.00    +0.000 A 
ATOM      4  C   UNL     1      45.063   5.970  12.161  0.00  0.00    +0.000 A 
ATOM      5  C   UNL     1      44.567   4.952  11.342  0.00  0.00    +0.000 A 
ATOM      6  C   UNL     1      44.750   3.630  11.758  0.00  0.00    +0.000 A 
ATOM      7  C   UNL     1      45.556   3.326  12.861  0.00  0.00    +0.000 A 
BRANCH   5   8
ATOM      8  N   UNL     1      43.857   5.182  10.155  0.00  0.00    +0.000 N 
ATOM      9  H   UNL     1      43.889   6.174   9.919  0.00  0.00    +0.000 HD
BRANCH   8  10
ATOM     10  C   UNL     1      44.137   4.329   8.992  0.00  0.00    +0.000 C 
BRANCH  10  11
ATOM     11  C   UNL     1      45.595   4.470   8.528  0.00  0.00    +0.000 C 
BRANCH  11  12
ATOM     12  C   UNL     1      46.155   3.194   7.963  0.00  0.00    +0.000 A 
ATOM     13  C   UNL     1      46.946   3.188   6.812  0.00  0.00    +0.000 A 
ATOM     14  C   UNL     1      47.430   1.982   6.316  0.00  0.00    +0.000 A 
ATOM     15  C   UNL     1      47.113   0.816   6.995  0.00  0.00    +0.000 A 
ATOM     16  N   UNL     1      46.361   0.783   8.115  0.00  0.00    +0.000 NA
ATOM     17  C   UNL     1      45.896   1.968   8.570  0.00  0.00    +0.000 A 
ENDBRANCH  11  12
ENDBRANCH  10  11
ENDBRANCH   8  10
ENDBRANCH   5   8
ENDBRANCH   1   2
BRANCH   1  20
ATOM     18  C   UNL     1      48.404   5.154  16.475  0.00  0.00    +0.000 C 
ATOM     19  O   UNL     1      49.144   4.183  16.613  0.00  0.00    +0.000 OA
ATOM     20  N   UNL     1      47.409   5.165  15.536  0.00  0.00    +0.000 N 
ATOM     21  H   UNL     1      46.811   5.971  15.429  0.00  0.00    +0.000 HD
BRANCH  18  29
ATOM     22  C   UNL     1      48.600   8.522  15.817  0.00  0.00    +0.000 A 
ATOM     23  N   UNL     1      48.612   9.867  15.843  0.00  0.00    +0.000 NA
ATOM     24  C   UNL     1      48.655  10.468  17.036  0.00  0.00    +0.000 A 
ATOM     25  N   UNL     1      48.701   9.881  18.230  0.00  0.00    +0.000 NA
ATOM     26  C   UNL     1      48.671   8.541  18.159  0.00  0.00    +0.000 A 
ATOM     27  S   UNL     1      48.736   7.619  19.582  0.00  0.00    +0.000 S 
ATOM     28  C   UNL     1      48.631   6.167  18.707  0.00  0.00    +0.000 A 
ATOM     29  C   UNL     1      48.540   6.345  17.331  0.00  0.00    +0.000 A 
ATOM     30  C   UNL     1      48.596   7.766  17.003  0.00  0.00    +0.000 A 
BRANCH  22  32
ATOM     31  C   UNL     1      49.843   7.535  14.095  0.00  0.00    +0.000 C 
ATOM     32  O   UNL     1      48.556   7.894  14.591  0.00  0.00    +0.000 OA
ENDBRANCH  22  32
ENDBRANCH  18  29
ENDBRANCH   1  20
TORSDOF 8
ENDMDL
MODEL 6
REMARK VINA RESULT:    -7.079      2.470      3.220
REMARK INTER + INTRA:         -11.819
REMARK INTER:                 -10.598
REMARK INTRA:                  -1.220
REMARK UNBOUND:                -1.428
REMARK  Name = 
REMARK  9 active torsions:
REMARK  status: ('A' for Active; 'I' for Inactive)
REMARK    1  A    between atoms: C_1  and  O_2
REMARK    2  A    between atoms: O_2  and  C_3
REMARK    3  A    between atoms: C_10  and  C_11
REMARK    4  A    between atoms: N_13  and  C_14
REMARK    5  A    between atoms: C_14  and  C_15
REMARK    6  A    between atoms: C_18  and  N_19
REMARK    7  A    between atoms: N_19  and  C_20
REMARK    8  A    between atoms: C_20  and  C_21
REMARK    9  A    between atoms: C_21  and  C_22
REMARK                            x       y       z     vdW  Elec       q    Type
REMARK                         _______ _______ _______ _____ _____    ______ ____
ROOT
ATOM      1  C   UNL     1      47.912   5.015  14.846  0.00  0.00    +0.000 C 
ENDROOT
BRANCH   1   2
ATOM      2  C   UNL     1      46.827   5.115  13.804  0.00  0.00    +0.000 A 
ATOM      3  C   UNL     1      46.525   6.345  13.211  0.00  0.00    +0.000 A 
ATOM      4  C   UNL     1      45.632   6.416  12.136  0.00  0.00    +0.000 A 
ATOM      5  C   UNL     1      45.037   5.261  11.620  0.00  0.00    +0.000 A 
ATOM      6  C   UNL     1      45.222   4.063  12.315  0.00  0.00    +0.000 A 
ATOM      7  C   UNL     1      46.118   3.983  13.388  0.00  0.00    +0.000 A 
BRANCH   5   8
ATOM      8  N   UNL     1      44.228   5.247  10.475  0.00  0.00    +0.000 N 
ATOM      9  H   UNL     1      44.407   6.079   9.913  0.00  0.00    +0.000 HD
BRANCH   8  10
ATOM     10  C   UNL     1      44.189   4.026   9.658  0.00  0.00    +0.000 C 
BRANCH  10  11
ATOM     11  C   UNL     1      44.865   4.241   8.293  0.00  0.00    +0.000 C 
BRANCH  11  12
ATOM     12  C   UNL     1      45.765   3.102   7.902  0.00  0.00    +0.000 A 
ATOM     13  C   UNL     1      46.774   3.261   6.949  0.00  0.00    +0.000 A 
ATOM     14  C   UNL     1      47.574   2.176   6.606  0.00  0.00    +0.000 A 
ATOM     15  C   UNL     1      47.343   0.963   7.236  0.00  0.00    +0.000 A 
ATOM     16  N   UNL     1      46.385   0.773   8.167  0.00  0.00    +0.000 NA
ATOM     17  C   UNL     1      45.617   1.842   8.475  0.00  0.00    +0.000 A 
ENDBRANCH  11  12
ENDBRANCH  10  11
ENDBRANCH   8  10
ENDBRANCH   5   8
ENDBRANCH   1   2
BRANCH   1  20
ATOM     18  C   UNL     1      48.982   6.863  16.048  0.00  0.00    +0.000 C 
ATOM     19  O   UNL     1      50.056   6.643  15.493  0.00  0.00    +0.000 OA
ATOM     20  N   UNL     1      47.873   6.109  15.780  0.00  0.00    +0.000 N 
ATOM     21  H   UNL     1      46.995   6.303  16.238  0.00  0.00    +0.000 HD
BRANCH  18  29
ATOM     22  C   UNL     1      47.857   6.937  19.295  0.00  0.00    +0.000 A 
ATOM     23  N   UNL     1      47.554   7.225  20.574  0.00  0.00    +0.000 NA
ATOM     24  C   UNL     1      47.732   8.481  20.992  0.00  0.00    +0.000 A 
ATOM     25  N   UNL     1      48.173   9.511  20.273  0.00  0.00    +0.000 NA
ATOM     26  C   UNL     1      48.478   9.179  19.008  0.00  0.00    +0.000 A 
ATOM     27  S   UNL     1      49.044  10.366  17.937  0.00  0.00    +0.000 S 
ATOM     28  C   UNL     1      49.206   9.231  16.683  0.00  0.00    +0.000 A 
ATOM     29  C   UNL     1      48.844   7.938  17.046  0.00  0.00    +0.000 A 
ATOM     30  C   UNL     1      48.379   7.915  18.429  0.00  0.00    +0.000 A 
BRANCH  22  32
ATOM     31  C   UNL     1      48.559   4.711  19.471  0.00  0.00    +0.000 C 
ATOM     32  O   UNL     1      47.675   5.644  18.856  0.00  0.00    +0.000 OA
ENDBRANCH  22  32
ENDBRANCH  18  29
ENDBRANCH   1  20
TORSDOF 8
ENDMDL
MODEL 7
REMARK VINA RESULT:    -6.805      2.141      2.769
REMARK INTER + INTRA:         -11.417
REMARK INTER:                 -10.209
REMARK INTRA:                  -1.207
REMARK UNBOUND:                -1.428
REMARK  Name = 
REMARK  9 active torsions:
REMARK  status: ('A' for Active; 'I' for Inactive)
REMARK    1  A    between atoms: C_1  and  O_2
REMARK    2  A    between atoms: O_2  and  C_3
REMARK    3  A    between atoms: C_10  and  C_11
REMARK    4  A    between atoms: N_13  and  C_14
REMARK    5  A    between atoms: C_14  and  C_15
REMARK    6  A    between atoms: C_18  and  N_19
REMARK    7  A    between atoms: N_19  and  C_20
REMARK    8  A    between atoms: C_20  and  C_21
REMARK    9  A    between atoms: C_21  and  C_22
REMARK                            x       y       z     vdW  Elec       q    Type
REMARK                         _______ _______ _______ _____ _____    ______ ____
ROOT
ATOM      1  C   UNL     1      48.682   7.803  13.680  0.00  0.00    +0.000 C 
ENDROOT
BRANCH   1   2
ATOM      2  C   UNL     1      47.716   6.843  13.037  0.00  0.00    +0.000 A 
ATOM      3  C   UNL     1      47.288   5.702  13.723  0.00  0.00    +0.000 A 
ATOM      4  C   UNL     1      46.275   4.892  13.196  0.00  0.00    +0.000 A 
ATOM      5  C   UNL     1      45.656   5.215  11.985  0.00  0.00    +0.000 A 
ATOM      6  C   UNL     1      46.194   6.264  11.233  0.00  0.00    +0.000 A 
ATOM      7  C   UNL     1      47.204   7.081  11.756  0.00  0.00    +0.000 A 
BRANCH   5   8
ATOM      8  N   UNL     1      44.560   4.516  11.459  0.00  0.00    +0.000 N 
ATOM      9  H   UNL     1      44.205   4.999  10.634  0.00  0.00    +0.000 HD
BRANCH   8  10
ATOM     10  C   UNL     1      44.688   3.069  11.241  0.00  0.00    +0.000 C 
BRANCH  10  11
ATOM     11  C   UNL     1      44.187   2.664   9.845  0.00  0.00    +0.000 C 
BRANCH  11  12
ATOM     12  C   UNL     1      45.260   2.738   8.794  0.00  0.00    +0.000 A 
ATOM     13  C   UNL     1      45.973   1.606   8.395  0.00  0.00    +0.000 A 
ATOM     14  C   UNL     1      46.968   1.724   7.430  0.00  0.00    +0.000 A 
ATOM     15  C   UNL     1      47.212   2.976   6.887  0.00  0.00    +0.000 A 
ATOM     16  N   UNL     1      46.537   4.090   7.239  0.00  0.00    +0.000 NA
ATOM     17  C   UNL     1      45.582   3.948   8.185  0.00  0.00    +0.000 A 
ENDBRANCH  11  12
ENDBRANCH  10  11
ENDBRANCH   8  10
ENDBRANCH   5   8
ENDBRANCH   1   2
BRANCH   1  20
ATOM     18  C   UNL     1      50.686   7.803  15.091  0.00  0.00    +0.000 C 
ATOM     19  O   UNL     1      50.845   9.009  14.919  0.00  0.00    +0.000 OA
ATOM     20  N   UNL     1      49.639   7.133  14.520  0.00  0.00    +0.000 N 
ATOM     21  H   UNL     1      49.516   6.143  14.672  0.00  0.00    +0.000 HD
BRANCH  18  29
ATOM     22  C   UNL     1      50.297   5.187  17.286  0.00  0.00    +0.000 A 
ATOM     23  N   UNL     1      50.432   4.129  18.106  0.00  0.00    +0.000 NA
ATOM     24  C   UNL     1      51.667   3.786  18.485  0.00  0.00    +0.000 A 
ATOM     25  N   UNL     1      52.806   4.389  18.151  0.00  0.00    +0.000 NA
ATOM     26  C   UNL     1      52.627   5.428  17.320  0.00  0.00    +0.000 A 
ATOM     27  S   UNL     1      53.967   6.328  16.795  0.00  0.00    +0.000 S 
ATOM     28  C   UNL     1      52.982   7.339  15.850  0.00  0.00    +0.000 A 
ATOM     29  C   UNL     1      51.629   7.017  15.904  0.00  0.00    +0.000 A 
ATOM     30  C   UNL     1      51.417   5.893  16.810  0.00  0.00    +0.000 A 
BRANCH  22  32
ATOM     31  C   UNL     1      48.007   4.726  17.452  0.00  0.00    +0.000 C 
ATOM     32  O   UNL     1      49.027   5.547  16.890  0.00  0.00    +0.000 OA
ENDBRANCH  22  32
ENDBRANCH  18  29
ENDBRANCH   1  20
TORSDOF 8
ENDMDL
MODEL 8
REMARK VINA RESULT:    -6.800      3.139      7.610
REMARK INTER + INTRA:         -11.408
REMARK INTER:                  -9.722
REMARK INTRA:                  -1.686
REMARK UNBOUND:                -1.428
REMARK  Name = 
REMARK  9 active torsions:
REMARK  status: ('A' for Active; 'I' for Inactive)
REMARK    1  A    between atoms: C_1  and  O_2
REMARK    2  A    between atoms: O_2  and  C_3
REMARK    3  A    between atoms: C_10  and  C_11
REMARK    4  A    between atoms: N_13  and  C_14
REMARK    5  A    between atoms: C_14  and  C_15
REMARK    6  A    between atoms: C_18  and  N_19
REMARK    7  A    between atoms: N_19  and  C_20
REMARK    8  A    between atoms: C_20  and  C_21
REMARK    9  A    between atoms: C_21  and  C_22
REMARK                            x       y       z     vdW  Elec       q    Type
REMARK                         _______ _______ _______ _____ _____    ______ ____
ROOT
ATOM      1  C   UNL     1      48.388   8.064  11.895  0.00  0.00    +0.000 C 
ENDROOT
BRANCH   1   2
ATOM      2  C   UNL     1      48.494   7.971  13.395  0.00  0.00    +0.000 A 
ATOM      3  C   UNL     1      49.307   7.001  13.990  0.00  0.00    +0.000 A 
ATOM      4  C   UNL     1      49.532   7.010  15.371  0.00  0.00    +0.000 A 
ATOM      5  C   UNL     1      48.966   7.996  16.184  0.00  0.00    +0.000 A 
ATOM      6  C   UNL     1      48.033   8.863  15.608  0.00  0.00    +0.000 A 
ATOM      7  C   UNL     1      47.808   8.864  14.226  0.00  0.00    +0.000 A 
BRANCH   5   8
ATOM      8  N   UNL     1      49.243   8.132  17.552  0.00  0.00    +0.000 N 
ATOM      9  H   UNL     1      49.340   9.120  17.789  0.00  0.00    +0.000 HD
BRANCH   8  10
ATOM     10  C   UNL     1      48.397   7.413  18.514  0.00  0.00    +0.000 C 
BRANCH  10  11
ATOM     11  C   UNL     1      49.090   6.142  19.032  0.00  0.00    +0.000 C 
BRANCH  11  12
ATOM     12  C   UNL     1      48.658   4.901  18.301  0.00  0.00    +0.000 A 
ATOM     13  C   UNL     1      49.578   3.929  17.902  0.00  0.00    +0.000 A 
ATOM     14  C   UNL     1      49.135   2.804  17.214  0.00  0.00    +0.000 A 
ATOM     15  C   UNL     1      47.779   2.684  16.954  0.00  0.00    +0.000 A 
ATOM     16  N   UNL     1      46.860   3.596  17.332  0.00  0.00    +0.000 NA
ATOM     17  C   UNL     1      47.318   4.683  17.991  0.00  0.00    +0.000 A 
ENDBRANCH  11  12
ENDBRANCH  10  11
ENDBRANCH   8  10
ENDBRANCH   5   8
ENDBRANCH   1   2
BRANCH   1  20
ATOM     18  C   UNL     1      46.317   6.922  11.255  0.00  0.00    +0.000 C 
ATOM     19  O   UNL     1      45.637   7.861  11.662  0.00  0.00    +0.000 OA
ATOM     20  N   UNL     1      47.683   6.946  11.328  0.00  0.00    +0.000 N 
ATOM     21  H   UNL     1      48.231   6.171  10.986  0.00  0.00    +0.000 HD
BRANCH  18  29
ATOM     22  C   UNL     1      44.577   4.298  12.634  0.00  0.00    +0.000 A 
ATOM     23  N   UNL     1      43.811   3.223  12.897  0.00  0.00    +0.000 NA
ATOM     24  C   UNL     1      43.430   2.460  11.869  0.00  0.00    +0.000 A 
ATOM     25  N   UNL     1      43.736   2.632  10.585  0.00  0.00    +0.000 NA
ATOM     26  C   UNL     1      44.487   3.723  10.364  0.00  0.00    +0.000 A 
ATOM     27  S   UNL     1      44.986   4.098   8.786  0.00  0.00    +0.000 S 
ATOM     28  C   UNL     1      45.788   5.498   9.318  0.00  0.00    +0.000 A 
ATOM     29  C   UNL     1      45.691   5.715  10.689  0.00  0.00    +0.000 A 
ATOM     30  C   UNL     1      44.939   4.633  11.316  0.00  0.00    +0.000 A 
BRANCH  22  32
ATOM     31  C   UNL     1      46.293   4.801  14.145  0.00  0.00    +0.000 C 
ATOM     32  O   UNL     1      44.974   5.090  13.688  0.00  0.00    +0.000 OA
ENDBRANCH  22  32
ENDBRANCH  18  29
ENDBRANCH   1  20
TORSDOF 8
ENDMDL
MODEL 9
REMARK VINA RESULT:    -6.598      3.550      8.400
REMARK INTER + INTRA:         -11.112
REMARK INTER:                  -9.511
REMARK INTRA:                  -1.601
REMARK UNBOUND:                -1.428
REMARK  Name = 
REMARK  9 active torsions:
REMARK  status: ('A' for Active; 'I' for Inactive)
REMARK    1  A    between atoms: C_1  and  O_2
REMARK    2  A    between atoms: O_2  and  C_3
REMARK    3  A    between atoms: C_10  and  C_11
REMARK    4  A    between atoms: N_13  and  C_14
REMARK    5  A    between atoms: C_14  and  C_15
REMARK    6  A    between atoms: C_18  and  N_19
REMARK    7  A    between atoms: N_19  and  C_20
REMARK    8  A    between atoms: C_20  and  C_21
REMARK    9  A    between atoms: C_21  and  C_22
REMARK                            x       y       z     vdW  Elec       q    Type
REMARK                         _______ _______ _______ _____ _____    ______ ____
ROOT
ATOM      1  C   UNL     1      47.146   3.301  17.046  0.00  0.00    +0.000 C 
ENDROOT
BRANCH   1   2
ATOM      2  C   UNL     1      48.560   3.377  17.560  0.00  0.00    +0.000 A 
ATOM      3  C   UNL     1      49.534   2.490  17.091  0.00  0.00    +0.000 A 
ATOM      4  C   UNL     1      50.877   2.655  17.445  0.00  0.00    +0.000 A 
ATOM      5  C   UNL     1      51.280   3.719  18.257  0.00  0.00    +0.000 A 
ATOM      6  C   UNL     1      50.285   4.505  18.846  0.00  0.00    +0.000 A 
ATOM      7  C   UNL     1      48.939   4.349  18.493  0.00  0.00    +0.000 A 
BRANCH   5   8
ATOM      8  N   UNL     1      52.619   4.012  18.554  0.00  0.00    +0.000 N 
ATOM      9  H   UNL     1      53.066   3.196  18.973  0.00  0.00    +0.000 HD
BRANCH   8  10
ATOM     10  C   UNL     1      53.451   4.624  17.509  0.00  0.00    +0.000 C 
BRANCH  10  11
ATOM     11  C   UNL     1      53.470   6.156  17.630  0.00  0.00    +0.000 C 
BRANCH  11  12
ATOM     12  C   UNL     1      52.769   6.841  16.490  0.00  0.00    +0.000 A 
ATOM     13  C   UNL     1      51.382   6.782  16.342  0.00  0.00    +0.000 A 
ATOM     14  C   UNL     1      50.777   7.418  15.263  0.00  0.00    +0.000 A 
ATOM     15  C   UNL     1      51.583   8.102  14.367  0.00  0.00    +0.000 A 
ATOM     16  N   UNL     1      52.924   8.190  14.481  0.00  0.00    +0.000 NA
ATOM     17  C   UNL     1      53.486   7.556  15.534  0.00  0.00    +0.000 A 
ENDBRANCH  11  12
ENDBRANCH  10  11
ENDBRANCH   8  10
ENDBRANCH   5   8
ENDBRANCH   1   2
BRANCH   1  20
ATOM     18  C   UNL     1      47.019   4.144  14.748  0.00  0.00    +0.000 C 
ATOM     19  O   UNL     1      47.411   3.069  14.300  0.00  0.00    +0.000 OA
ATOM     20  N   UNL     1      46.855   4.338  16.093  0.00  0.00    +0.000 N 
ATOM     21  H   UNL     1      46.528   5.224  16.449  0.00  0.00    +0.000 HD
BRANCH  18  29
ATOM     22  C   UNL     1      44.384   4.906  12.677  0.00  0.00    +0.000 A 
ATOM     23  N   UNL     1      43.465   5.475  11.876  0.00  0.00    +0.000 NA
ATOM     24  C   UNL     1      43.734   6.685  11.376  0.00  0.00    +0.000 A 
ATOM     25  N   UNL     1      44.834   7.407  11.572  0.00  0.00    +0.000 NA
ATOM     26  C   UNL     1      45.717   6.812  12.389  0.00  0.00    +0.000 A 
ATOM     27  S   UNL     1      47.189   7.579  12.744  0.00  0.00    +0.000 S 
ATOM     28  C   UNL     1      47.666   6.305  13.762  0.00  0.00    +0.000 A 
ATOM     29  C   UNL     1      46.727   5.282  13.860  0.00  0.00    +0.000 A 
ATOM     30  C   UNL     1      45.576   5.574  13.012  0.00  0.00    +0.000 A 
BRANCH  22  32
ATOM     31  C   UNL     1      43.548   2.763  12.244  0.00  0.00    +0.000 C 
ATOM     32  O   UNL     1      44.115   3.659  13.196  0.00  0.00    +0.000 OA
ENDBRANCH  22  32
ENDBRANCH  18  29
ENDBRANCH   1  20
TORSDOF 8
ENDMDL
