MODEL 1
REMARK VINA RESULT:    -8.524      0.000      0.000
REMARK INTER + INTRA:         -11.496
REMARK INTER:                 -11.016
REMARK INTRA:                  -0.481
REMARK UNBOUND:                -0.481
REMARK  Name = 
REMARK  5 active torsions:
REMARK  status: ('A' for Active; 'I' for Inactive)
REMARK    1  A    between atoms: C_2  and  C_4
REMARK    2  A    between atoms: C_7  and  O_8
REMARK    3  A    between atoms: O_8  and  C_9
REMARK    4  A    between atoms: C_9  and  C_10
REMARK    5  A    between atoms: C_14  and  C_15
REMARK                            x       y       z     vdW  Elec       q    Type
REMARK                         _______ _______ _______ _____ _____    ______ ____
ROOT
ATOM      1  C   UNL     1      43.555   4.034  11.154  0.00  0.00    +0.000 C 
ENDROOT
BRANCH   1   2
ATOM      2  C   UNL     1      44.791   4.378  11.949  0.00  0.00    +0.000 A 
ATOM      3  C   UNL     1      45.338   3.478  12.855  0.00  0.00    +0.000 A 
ATOM      4  N   UNL     1      46.412   3.770  13.619  0.00  0.00    +0.000 NA
ATOM      5  C   UNL     1      46.925   5.012  13.444  0.00  0.00    +0.000 A 
ATOM      6  C   UNL     1      46.404   5.943  12.545  0.00  0.00    +0.000 A 
ATOM      7  N   UNL     1      45.311   5.630  11.800  0.00  0.00    +0.000 NA
BRANCH   6   8
ATOM      8  C   UNL     1      46.969   7.288  12.359  0.00  0.00    +0.000 A 
ATOM      9  C   UNL     1      48.279   7.490  11.896  0.00  0.00    +0.000 A 
ATOM     10  C   UNL     1      48.775   8.781  11.704  0.00  0.00    +0.000 A 
ATOM     11  C   UNL     1      47.947   9.852  11.987  0.00  0.00    +0.000 A 
ATOM     12  N   UNL     1      46.688   9.717  12.449  0.00  0.00    +0.000 NA
ATOM     13  C   UNL     1      46.240   8.448  12.628  0.00  0.00    +0.000 A 
ENDBRANCH   6   8
ENDBRANCH   1   2
BRANCH   1  14
ATOM     14  O   UNL     1      43.653   4.522   9.809  0.00  0.00    +0.000 OA
BRANCH  14  18
ATOM     15  C   UNL     1      46.530   2.470   7.697  0.00  0.00    +0.000 A 
ATOM     16  C   UNL     1      45.629   1.766   8.498  0.00  0.00    +0.000 A 
ATOM     17  C   UNL     1      44.654   2.471   9.206  0.00  0.00    +0.000 A 
ATOM     18  C   UNL     1      44.616   3.854   9.083  0.00  0.00    +0.000 A 
ATOM     19  N   UNL     1      45.468   4.556   8.310  0.00  0.00    +0.000 NA
ATOM     20  C   UNL     1      46.417   3.853   7.646  0.00  0.00    +0.000 A 
BRANCH  15  22
ATOM     21  N   UNL     1      48.454   2.645   6.222  0.00  0.00    +0.000 N 
ATOM     22  C   UNL     1      47.618   1.830   6.932  0.00  0.00    +0.000 C 
ATOM     23  O   UNL     1      47.789   0.619   6.958  0.00  0.00    +0.000 OA
ATOM     24  H   UNL     1      49.253   2.195   5.789  0.00  0.00    +0.000 HD
ATOM     25  H   UNL     1      48.505   3.642   6.370  0.00  0.00    +0.000 HD
ENDBRANCH  15  22
ENDBRANCH  14  18
ENDBRANCH   1  14
TORSDOF 5
ENDMDL
MODEL 2
REMARK VINA RESULT:    -8.328      1.373      1.684
REMARK INTER + INTRA:         -11.243
REMARK INTER:                 -10.675
REMARK INTRA:                  -0.568
REMARK UNBOUND:                -0.481
REMARK  Name = 
REMARK  5 active torsions:
REMARK  status: ('A' for Active; 'I' for Inactive)
REMARK    1  A    between atoms: C_2  and  C_4
REMARK    2  A    between atoms: C_7  and  O_8
REMARK    3  A    between atoms: O_8  and  C_9
REMARK    4  A    between atoms: C_9  and  C_10
REMARK    5  A    between atoms: C_14  and  C_15
REMARK                            x       y       z     vdW  Elec       q    Type
REMARK                         _______ _______ _______ _____ _____    ______ ____
ROOT
ATOM      1  C   UNL     1      43.866   5.035  10.786  0.00  0.00    +0.000 C 
ENDROOT
BRANCH   1   2
ATOM      2  C   UNL     1      44.913   4.969  11.871  0.00  0.00    +0.000 A 
ATOM      3  C   UNL     1      44.791   4.088  12.938  0.00  0.00    +0.000 A 
ATOM      4  N   UNL     1      45.683   4.036  13.951  0.00  0.00    +0.000 NA
ATOM      5  C   UNL     1      46.713   4.911  13.858  0.00  0.00    +0.000 A 
ATOM      6  C   UNL     1      46.871   5.811  12.804  0.00  0.00    +0.000 A 
ATOM      7  N   UNL     1      45.949   5.854  11.805  0.00  0.00    +0.000 NA
BRANCH   6   8
ATOM      8  C   UNL     1      47.994   6.755  12.709  0.00  0.00    +0.000 A 
ATOM      9  C   UNL     1      48.226   7.526  11.559  0.00  0.00    +0.000 A 
ATOM     10  C   UNL     1      49.287   8.433  11.513  0.00  0.00    +0.000 A 
ATOM     11  C   UNL     1      50.104   8.546  12.623  0.00  0.00    +0.000 A 
ATOM     12  N   UNL     1      49.938   7.820  13.746  0.00  0.00    +0.000 NA
ATOM     13  C   UNL     1      48.899   6.945  13.755  0.00  0.00    +0.000 A 
ENDBRANCH   6   8
ENDBRANCH   1   2
BRANCH   1  14
ATOM     14  O   UNL     1      43.619   3.738  10.227  0.00  0.00    +0.000 OA
BRANCH  14  18
ATOM     15  C   UNL     1      46.551   2.655   7.548  0.00  0.00    +0.000 A 
ATOM     16  C   UNL     1      46.145   3.988   7.625  0.00  0.00    +0.000 A 
ATOM     17  C   UNL     1      45.154   4.346   8.541  0.00  0.00    +0.000 A 
ATOM     18  C   UNL     1      44.607   3.356   9.346  0.00  0.00    +0.000 A 
ATOM     19  N   UNL     1      44.987   2.063   9.298  0.00  0.00    +0.000 NA
ATOM     20  C   UNL     1      45.938   1.735   8.389  0.00  0.00    +0.000 A 
BRANCH  15  22
ATOM     21  N   UNL     1      47.723   2.852   5.428  0.00  0.00    +0.000 N 
ATOM     22  C   UNL     1      47.565   2.161   6.596  0.00  0.00    +0.000 C 
ATOM     23  O   UNL     1      48.262   1.190   6.856  0.00  0.00    +0.000 OA
ATOM     24  H   UNL     1      48.493   2.558   4.838  0.00  0.00    +0.000 HD
ATOM     25  H   UNL     1      47.357   3.783   5.287  0.00  0.00    +0.000 HD
ENDBRANCH  15  22
ENDBRANCH  14  18
ENDBRANCH   1  14
TORSDOF 5
ENDMDL
MODEL 3
REMARK VINA RESULT:    -8.062      2.010      3.531
REMARK INTER + INTRA:         -10.900
REMARK INTER:                 -10.449
REMARK INTRA:                  -0.450
REMARK UNBOUND:                -0.481
REMARK  Name = 
REMARK  5 active torsions:
REMARK  status: ('A' for Active; 'I' for Inactive)
REMARK    1  A    between atoms: C_2  and  C_4
REMARK    2  A    between atoms: C_7  and  O_8
REMARK    3  A    between atoms: O_8  and  C_9
REMARK    4  A    between atoms: C_9  and  C_10
REMARK    5  A    between atoms: C_14  and  C_15
REMARK                            x       y       z     vdW  Elec       q    Type
REMARK                         _______ _______ _______ _____ _____    ______ ____
ROOT
ATOM      1  C   UNL     1      44.383   4.393  11.579  0.00  0.00    +0.000 C 
ENDROOT
BRANCH   1   2
ATOM      2  C   UNL     1      45.533   5.123  12.229  0.00  0.00    +0.000 A 
ATOM      3  C   UNL     1      46.107   6.239  11.632  0.00  0.00    +0.000 A 
ATOM      4  N   UNL     1      47.168   6.888  12.159  0.00  0.00    +0.000 NA
ATOM      5  C   UNL     1      47.642   6.370  13.318  0.00  0.00    +0.000 A 
ATOM      6  C   UNL     1      47.095   5.252  13.947  0.00  0.00    +0.000 A 
ATOM      7  N   UNL     1      46.038   4.607  13.387  0.00  0.00    +0.000 NA
BRANCH   6   8
ATOM      8  C   UNL     1      47.615   4.699  15.207  0.00  0.00    +0.000 A 
ATOM      9  C   UNL     1      47.569   3.326  15.495  0.00  0.00    +0.000 A 
ATOM     10  C   UNL     1      48.097   2.832  16.690  0.00  0.00    +0.000 A 
ATOM     11  C   UNL     1      48.656   3.728  17.581  0.00  0.00    +0.000 A 
ATOM     12  N   UNL     1      48.713   5.056  17.364  0.00  0.00    +0.000 NA
ATOM     13  C   UNL     1      48.187   5.503  16.195  0.00  0.00    +0.000 A 
ENDBRANCH   6   8
ENDBRANCH   1   2
BRANCH   1  14
ATOM     14  O   UNL     1      44.215   4.801  10.215  0.00  0.00    +0.000 OA
BRANCH  14  18
ATOM     15  C   UNL     1      46.466   2.463   7.683  0.00  0.00    +0.000 A 
ATOM     16  C   UNL     1      45.676   1.857   8.660  0.00  0.00    +0.000 A 
ATOM     17  C   UNL     1      44.912   2.658   9.511  0.00  0.00    +0.000 A 
ATOM     18  C   UNL     1      44.967   4.036   9.349  0.00  0.00    +0.000 A 
ATOM     19  N   UNL     1      45.715   4.646   8.408  0.00  0.00    +0.000 NA
ATOM     20  C   UNL     1      46.462   3.849   7.605  0.00  0.00    +0.000 A 
BRANCH  15  22
ATOM     21  N   UNL     1      48.366   2.395   6.168  0.00  0.00    +0.000 N 
ATOM     22  C   UNL     1      47.335   1.715   6.754  0.00  0.00    +0.000 C 
ATOM     23  O   UNL     1      47.163   0.523   6.540  0.00  0.00    +0.000 OA
ATOM     24  H   UNL     1      49.009   1.839   5.617  0.00  0.00    +0.000 HD
ATOM     25  H   UNL     1      48.692   3.291   6.501  0.00  0.00    +0.000 HD
ENDBRANCH  15  22
ENDBRANCH  14  18
ENDBRANCH   1  14
TORSDOF 5
ENDMDL
MODEL 4
REMARK VINA RESULT:    -7.672      2.613      6.496
REMARK INTER + INTRA:         -10.395
REMARK INTER:                  -9.702
REMARK INTRA:                  -0.693
REMARK UNBOUND:                -0.481
REMARK  Name = 
REMARK  5 active torsions:
REMARK  status: ('A' for Active; 'I' for Inactive)
REMARK    1  A    between atoms: C_2  and  C_4
REMARK    2  A    between atoms: C_7  and  O_8
REMARK    3  A    between atoms: O_8  and  C_9
REMARK    4  A    between atoms: C_9  and  C_10
REMARK    5  A    between atoms: C_14  and  C_15
REMARK                            x       y       z     vdW  Elec       q    Type
REMARK                         _______ _______ _______ _____ _____    ______ ____
ROOT
ATOM      1  C   UNL     1      43.911   6.312  11.363  0.00  0.00    +0.000 C 
ENDROOT
BRANCH   1   2
ATOM      2  C   UNL     1      43.921   4.854  10.972  0.00  0.00    +0.000 A 
ATOM      3  C   UNL     1      43.200   3.910  11.691  0.00  0.00    +0.000 A 
ATOM      4  N   UNL     1      43.224   2.591  11.399  0.00  0.00    +0.000 NA
ATOM      5  C   UNL     1      44.009   2.247  10.350  0.00  0.00    +0.000 A 
ATOM      6  C   UNL     1      44.749   3.165   9.604  0.00  0.00    +0.000 A 
ATOM      7  N   UNL     1      44.719   4.484   9.929  0.00  0.00    +0.000 NA
BRANCH   6   8
ATOM      8  C   UNL     1      45.595   2.783   8.464  0.00  0.00    +0.000 A 
ATOM      9  C   UNL     1      45.937   3.691   7.450  0.00  0.00    +0.000 A 
ATOM     10  C   UNL     1      46.766   3.302   6.396  0.00  0.00    +0.000 A 
ATOM     11  C   UNL     1      47.233   2.001   6.373  0.00  0.00    +0.000 A 
ATOM     12  N   UNL     1      46.925   1.083   7.309  0.00  0.00    +0.000 NA
ATOM     13  C   UNL     1      46.113   1.494   8.318  0.00  0.00    +0.000 A 
ENDBRANCH   6   8
ENDBRANCH   1   2
BRANCH   1  14
ATOM     14  O   UNL     1      44.420   6.494  12.691  0.00  0.00    +0.000 OA
BRANCH  14  18
ATOM     15  C   UNL     1      48.426   7.440  12.644  0.00  0.00    +0.000 A 
ATOM     16  C   UNL     1      47.489   8.385  12.224  0.00  0.00    +0.000 A 
ATOM     17  C   UNL     1      46.132   8.057  12.249  0.00  0.00    +0.000 A 
ATOM     18  C   UNL     1      45.765   6.794  12.696  0.00  0.00    +0.000 A 
ATOM     19  N   UNL     1      46.648   5.866  13.114  0.00  0.00    +0.000 NA
ATOM     20  C   UNL     1      47.961   6.201  13.065  0.00  0.00    +0.000 A 
BRANCH  15  22
ATOM     21  N   UNL     1      50.570   7.297  11.507  0.00  0.00    +0.000 N 
ATOM     22  C   UNL     1      49.884   7.669  12.629  0.00  0.00    +0.000 C 
ATOM     23  O   UNL     1      50.454   8.203  13.570  0.00  0.00    +0.000 OA
ATOM     24  H   UNL     1      51.548   7.557  11.477  0.00  0.00    +0.000 HD
ATOM     25  H   UNL     1      50.115   7.092  10.629  0.00  0.00    +0.000 HD
ENDBRANCH  15  22
ENDBRANCH  14  18
ENDBRANCH   1  14
TORSDOF 5
ENDMDL
MODEL 5
REMARK VINA RESULT:    -7.293      4.007      8.041
REMARK INTER + INTRA:          -9.905
REMARK INTER:                  -9.481
REMARK INTRA:                  -0.424
REMARK UNBOUND:                -0.481
REMARK  Name = 
REMARK  5 active torsions:
REMARK  status: ('A' for Active; 'I' for Inactive)
REMARK    1  A    between atoms: C_2  and  C_4
REMARK    2  A    between atoms: C_7  and  O_8
REMARK    3  A    between atoms: O_8  and  C_9
REMARK    4  A    between atoms: C_9  and  C_10
REMARK    5  A    between atoms: C_14  and  C_15
REMARK                            x       y       z     vdW  Elec       q    Type
REMARK                         _______ _______ _______ _____ _____    ______ ____
ROOT
ATOM      1  C   UNL     1      46.006   5.284  13.932  0.00  0.00    +0.000 C 
ENDROOT
BRANCH   1   2
ATOM      2  C   UNL     1      45.055   5.028  12.788  0.00  0.00    +0.000 A 
ATOM      3  C   UNL     1      43.700   5.315  12.899  0.00  0.00    +0.000 A 
ATOM      4  N   UNL     1      42.813   5.054  11.915  0.00  0.00    +0.000 NA
ATOM      5  C   UNL     1      43.337   4.485  10.803  0.00  0.00    +0.000 A 
ATOM      6  C   UNL     1      44.690   4.181  10.653  0.00  0.00    +0.000 A 
ATOM      7  N   UNL     1      45.559   4.439  11.666  0.00  0.00    +0.000 NA
BRANCH   6   8
ATOM      8  C   UNL     1      45.251   3.566   9.440  0.00  0.00    +0.000 A 
ATOM      9  C   UNL     1      45.739   4.334   8.372  0.00  0.00    +0.000 A 
ATOM     10  C   UNL     1      46.290   3.718   7.246  0.00  0.00    +0.000 A 
ATOM     11  C   UNL     1      46.334   2.337   7.209  0.00  0.00    +0.000 A 
ATOM     12  N   UNL     1      45.866   1.550   8.198  0.00  0.00    +0.000 NA
ATOM     13  C   UNL     1      45.333   2.182   9.275  0.00  0.00    +0.000 A 
ENDBRANCH   6   8
ENDBRANCH   1   2
BRANCH   1  14
ATOM     14  O   UNL     1      46.530   4.056  14.454  0.00  0.00    +0.000 OA
BRANCH  14  18
ATOM     15  C   UNL     1      48.373   4.606  18.094  0.00  0.00    +0.000 A 
ATOM     16  C   UNL     1      48.600   5.517  17.061  0.00  0.00    +0.000 A 
ATOM     17  C   UNL     1      47.966   5.324  15.832  0.00  0.00    +0.000 A 
ATOM     18  C   UNL     1      47.127   4.228  15.685  0.00  0.00    +0.000 A 
ATOM     19  N   UNL     1      46.884   3.339  16.668  0.00  0.00    +0.000 NA
ATOM     20  C   UNL     1      47.524   3.535  17.847  0.00  0.00    +0.000 A 
BRANCH  15  22
ATOM     21  N   UNL     1      48.554   3.863  20.401  0.00  0.00    +0.000 N 
ATOM     22  C   UNL     1      49.015   4.695  19.420  0.00  0.00    +0.000 C 
ATOM     23  O   UNL     1      49.947   5.459  19.626  0.00  0.00    +0.000 OA
ATOM     24  H   UNL     1      49.075   3.868  21.270  0.00  0.00    +0.000 HD
ATOM     25  H   UNL     1      47.973   3.060  20.211  0.00  0.00    +0.000 HD
ENDBRANCH  15  22
ENDBRANCH  14  18
ENDBRANCH   1  14
TORSDOF 5
ENDMDL
MODEL 6
REMARK VINA RESULT:    -6.916      5.040      7.427
REMARK INTER + INTRA:          -9.418
REMARK INTER:                  -8.910
REMARK INTRA:                  -0.508
REMARK UNBOUND:                -0.481
REMARK  Name = 
REMARK  5 active torsions:
REMARK  status: ('A' for Active; 'I' for Inactive)
REMARK    1  A    between atoms: C_2  and  C_4
REMARK    2  A    between atoms: C_7  and  O_8
REMARK    3  A    between atoms: O_8  and  C_9
REMARK    4  A    between atoms: C_9  and  C_10
REMARK    5  A    between atoms: C_14  and  C_15
REMARK                            x       y       z     vdW  Elec       q    Type
REMARK                         _______ _______ _______ _____ _____    ______ ____
ROOT
ATOM      1  C   UNL     1      47.138   3.947  15.919  0.00  0.00    +0.000 C 
ENDROOT
BRANCH   1   2
ATOM      2  C   UNL     1      48.375   4.423  16.641  0.00  0.00    +0.000 A 
ATOM      3  C   UNL     1      48.532   5.756  16.999  0.00  0.00    +0.000 A 
ATOM      4  N   UNL     1      49.645   6.226  17.602  0.00  0.00    +0.000 NA
ATOM      5  C   UNL     1      50.610   5.303  17.833  0.00  0.00    +0.000 A 
ATOM      6  C   UNL     1      50.491   3.957  17.487  0.00  0.00    +0.000 A 
ATOM      7  N   UNL     1      49.365   3.513  16.867  0.00  0.00    +0.000 NA
BRANCH   6   8
ATOM      8  C   UNL     1      51.541   2.961  17.745  0.00  0.00    +0.000 A 
ATOM      9  C   UNL     1      51.395   1.612  17.387  0.00  0.00    +0.000 A 
ATOM     10  C   UNL     1      52.424   0.698  17.622  0.00  0.00    +0.000 A 
ATOM     11  C   UNL     1      53.584   1.153  18.220  0.00  0.00    +0.000 A 
ATOM     12  N   UNL     1      53.773   2.433  18.599  0.00  0.00    +0.000 NA
ATOM     13  C   UNL     1      52.750   3.294  18.360  0.00  0.00    +0.000 A 
ENDBRANCH   6   8
ENDBRANCH   1   2
BRANCH   1  14
ATOM     14  O   UNL     1      47.444   3.545  14.577  0.00  0.00    +0.000 OA
BRANCH  14  18
ATOM     15  C   UNL     1      44.630   4.957  11.925  0.00  0.00    +0.000 A 
ATOM     16  C   UNL     1      45.327   5.855  12.734  0.00  0.00    +0.000 A 
ATOM     17  C   UNL     1      46.283   5.367  13.627  0.00  0.00    +0.000 A 
ATOM     18  C   UNL     1      46.506   3.997  13.674  0.00  0.00    +0.000 A 
ATOM     19  N   UNL     1      45.854   3.109  12.898  0.00  0.00    +0.000 NA
ATOM     20  C   UNL     1      44.918   3.604  12.051  0.00  0.00    +0.000 A 
BRANCH  15  22
ATOM     21  N   UNL     1      42.807   6.439  11.302  0.00  0.00    +0.000 N 
ATOM     22  C   UNL     1      43.578   5.360  10.972  0.00  0.00    +0.000 C 
ATOM     23  O   UNL     1      43.421   4.773   9.910  0.00  0.00    +0.000 OA
ATOM     24  H   UNL     1      42.162   6.760  10.589  0.00  0.00    +0.000 HD
ATOM     25  H   UNL     1      43.059   7.092  12.030  0.00  0.00    +0.000 HD
ENDBRANCH  15  22
ENDBRANCH  14  18
ENDBRANCH   1  14
TORSDOF 5
ENDMDL
MODEL 7
REMARK VINA RESULT:    -6.720      4.905      7.664
REMARK INTER + INTRA:          -9.164
REMARK INTER:                  -8.570
REMARK INTRA:                  -0.595
REMARK UNBOUND:                -0.481
REMARK  Name = 
REMARK  5 active torsions:
REMARK  status: ('A' for Active; 'I' for Inactive)
REMARK    1  A    between atoms: C_2  and  C_4
REMARK    2  A    between atoms: C_7  and  O_8
REMARK    3  A    between atoms: O_8  and  C_9
REMARK    4  A    between atoms: C_9  and  C_10
REMARK    5  A    between atoms: C_14  and  C_15
REMARK                            x       y       z     vdW  Elec       q    Type
REMARK                         _______ _______ _______ _____ _____    ______ ____
ROOT
ATOM      1  C   UNL     1      49.034   7.223  15.326  0.00  0.00    +0.000 C 
ENDROOT
BRANCH   1   2
ATOM      2  C   UNL     1      49.101   6.362  16.563  0.00  0.00    +0.000 A 
ATOM      3  C   UNL     1      48.377   6.683  17.704  0.00  0.00    +0.000 A 
ATOM      4  N   UNL     1      48.449   5.964  18.845  0.00  0.00    +0.000 NA
ATOM      5  C   UNL     1      49.286   4.899  18.803  0.00  0.00    +0.000 A 
ATOM      6  C   UNL     1      50.030   4.544  17.678  0.00  0.00    +0.000 A 
ATOM      7  N   UNL     1      49.951   5.295  16.547  0.00  0.00    +0.000 NA
BRANCH   6   8
ATOM      8  C   UNL     1      50.933   3.384  17.640  0.00  0.00    +0.000 A 
ATOM      9  C   UNL     1      52.282   3.476  18.014  0.00  0.00    +0.000 A 
ATOM     10  C   UNL     1      53.105   2.348  17.992  0.00  0.00    +0.000 A 
ATOM     11  C   UNL     1      52.560   1.144  17.587  0.00  0.00    +0.000 A 
ATOM     12  N   UNL     1      51.277   1.001  17.201  0.00  0.00    +0.000 NA
ATOM     13  C   UNL     1      50.506   2.119  17.231  0.00  0.00    +0.000 A 
ENDBRANCH   6   8
ENDBRANCH   1   2
BRANCH   1  14
ATOM     14  O   UNL     1      48.994   6.420  14.138  0.00  0.00    +0.000 OA
BRANCH  14  18
ATOM     15  C   UNL     1      45.153   5.220  13.267  0.00  0.00    +0.000 A 
ATOM     16  C   UNL     1      45.547   6.529  12.989  0.00  0.00    +0.000 A 
ATOM     17  C   UNL     1      46.853   6.925  13.283  0.00  0.00    +0.000 A 
ATOM     18  C   UNL     1      47.716   5.993  13.843  0.00  0.00    +0.000 A 
ATOM     19  N   UNL     1      47.365   4.721  14.114  0.00  0.00    +0.000 NA
ATOM     20  C   UNL     1      46.087   4.364  13.836  0.00  0.00    +0.000 A 
BRANCH  15  22
ATOM     21  N   UNL     1      42.834   5.605  12.649  0.00  0.00    +0.000 N 
ATOM     22  C   UNL     1      43.791   4.706  13.027  0.00  0.00    +0.000 C 
ATOM     23  O   UNL     1      43.533   3.515  13.129  0.00  0.00    +0.000 OA
ATOM     24  H   UNL     1      41.935   5.217  12.390  0.00  0.00    +0.000 HD
ATOM     25  H   UNL     1      43.055   6.532  12.315  0.00  0.00    +0.000 HD
ENDBRANCH  15  22
ENDBRANCH  14  18
ENDBRANCH   1  14
TORSDOF 5
ENDMDL
MODEL 8
REMARK VINA RESULT:    -6.528      3.210      5.770
REMARK INTER + INTRA:          -8.916
REMARK INTER:                  -8.387
REMARK INTRA:                  -0.530
REMARK UNBOUND:                -0.481
REMARK  Name = 
REMARK  5 active torsions:
REMARK  status: ('A' for Active; 'I' for Inactive)
REMARK    1  A    between atoms: C_2  and  C_4
REMARK    2  A    between atoms: C_7  and  O_8
REMARK    3  A    between atoms: O_8  and  C_9
REMARK    4  A    between atoms: C_9  and  C_10
REMARK    5  A    between atoms: C_14  and  C_15
REMARK                            x       y       z     vdW  Elec       q    Type
REMARK                         _______ _______ _______ _____ _____    ______ ____
ROOT
ATOM      1  C   UNL     1      47.582   7.782  12.546  0.00  0.00    +0.000 C 
ENDROOT
BRANCH   1   2
ATOM      2  C   UNL     1      48.407   7.515  13.782  0.00  0.00    +0.000 A 
ATOM      3  C   UNL     1      49.518   8.291  14.088  0.00  0.00    +0.000 A 
ATOM      4  N   UNL     1      50.307   8.051  15.157  0.00  0.00    +0.000 NA
ATOM      5  C   UNL     1      49.941   6.991  15.917  0.00  0.00    +0.000 A 
ATOM      6  C   UNL     1      48.834   6.187  15.643  0.00  0.00    +0.000 A 
ATOM      7  N   UNL     1      48.065   6.441  14.551  0.00  0.00    +0.000 NA
BRANCH   6   8
ATOM      8  C   UNL     1      48.442   5.041  16.476  0.00  0.00    +0.000 A 
ATOM      9  C   UNL     1      49.251   4.565  17.519  0.00  0.00    +0.000 A 
ATOM     10  C   UNL     1      48.836   3.490  18.308  0.00  0.00    +0.000 A 
ATOM     11  C   UNL     1      47.614   2.905  18.031  0.00  0.00    +0.000 A 
ATOM     12  N   UNL     1      46.805   3.310  17.033  0.00  0.00    +0.000 NA
ATOM     13  C   UNL     1      47.241   4.354  16.283  0.00  0.00    +0.000 A 
ENDBRANCH   6   8
ENDBRANCH   1   2
BRANCH   1  14
ATOM     14  O   UNL     1      46.180   7.681  12.828  0.00  0.00    +0.000 OA
BRANCH  14  18
ATOM     15  C   UNL     1      44.565   4.172  11.404  0.00  0.00    +0.000 A 
ATOM     16  C   UNL     1      45.198   5.049  10.521  0.00  0.00    +0.000 A 
ATOM     17  C   UNL     1      45.747   6.234  11.015  0.00  0.00    +0.000 A 
ATOM     18  C   UNL     1      45.644   6.494  12.375  0.00  0.00    +0.000 A 
ATOM     19  N   UNL     1      45.046   5.661  13.250  0.00  0.00    +0.000 NA
ATOM     20  C   UNL     1      44.505   4.525  12.745  0.00  0.00    +0.000 A 
BRANCH  15  22
ATOM     21  N   UNL     1      44.498   2.223   9.953  0.00  0.00    +0.000 N 
ATOM     22  C   UNL     1      43.924   2.910  10.985  0.00  0.00    +0.000 C 
ATOM     23  O   UNL     1      42.936   2.477  11.561  0.00  0.00    +0.000 OA
ATOM     24  H   UNL     1      44.103   1.312   9.751  0.00  0.00    +0.000 HD
ATOM     25  H   UNL     1      45.435   2.408   9.624  0.00  0.00    +0.000 HD
ENDBRANCH  15  22
ENDBRANCH  14  18
ENDBRANCH   1  14
TORSDOF 5
ENDMDL
MODEL 9
REMARK VINA RESULT:    -6.156      5.422      8.226
REMARK INTER + INTRA:          -8.436
REMARK INTER:                  -8.010
REMARK INTRA:                  -0.426
REMARK UNBOUND:                -0.481
REMARK  Name = 
REMARK  5 active torsions:
REMARK  status: ('A' for Active; 'I' for Inactive)
REMARK    1  A    between atoms: C_2  and  C_4
REMARK    2  A    between atoms: C_7  and  O_8
REMARK    3  A    between atoms: O_8  and  C_9
REMARK    4  A    between atoms: C_9  and  C_10
REMARK    5  A    between atoms: C_14  and  C_15
REMARK                            x       y       z     vdW  Elec       q    Type
REMARK                         _______ _______ _______ _____ _____    ______ ____
ROOT
ATOM      1  C   UNL     1      47.502   3.702  16.746  0.00  0.00    +0.000 C 
ENDROOT
BRANCH   1   2
ATOM      2  C   UNL     1      47.444   4.528  15.484  0.00  0.00    +0.000 A 
ATOM      3  C   UNL     1      48.241   5.655  15.323  0.00  0.00    +0.000 A 
ATOM      4  N   UNL     1      48.180   6.445  14.230  0.00  0.00    +0.000 NA
ATOM      5  C   UNL     1      47.279   6.064  13.292  0.00  0.00    +0.000 A 
ATOM      6  C   UNL     1      46.460   4.941  13.417  0.00  0.00    +0.000 A 
ATOM      7  N   UNL     1      46.530   4.172  14.536  0.00  0.00    +0.000 NA
BRANCH   6   8
ATOM      8  C   UNL     1      45.488   4.533  12.393  0.00  0.00    +0.000 A 
ATOM      9  C   UNL     1      44.708   3.373  12.524  0.00  0.00    +0.000 A 
ATOM     10  C   UNL     1      43.774   3.029  11.544  0.00  0.00    +0.000 A 
ATOM     11  C   UNL     1      43.642   3.855  10.443  0.00  0.00    +0.000 A 
ATOM     12  N   UNL     1      44.374   4.971  10.258  0.00  0.00    +0.000 NA
ATOM     13  C   UNL     1      45.276   5.273  11.227  0.00  0.00    +0.000 A 
ENDBRANCH   6   8
ENDBRANCH   1   2
BRANCH   1  14
ATOM     14  O   UNL     1      48.449   4.244  17.676  0.00  0.00    +0.000 OA
BRANCH  14  18
ATOM     15  C   UNL     1      51.952   2.081  17.691  0.00  0.00    +0.000 A 
ATOM     16  C   UNL     1      50.776   1.488  17.227  0.00  0.00    +0.000 A 
ATOM     17  C   UNL     1      49.595   2.232  17.221  0.00  0.00    +0.000 A 
ATOM     18  C   UNL     1      49.635   3.542  17.678  0.00  0.00    +0.000 A 
ATOM     19  N   UNL     1      50.758   4.141  18.123  0.00  0.00    +0.000 NA
ATOM     20  C   UNL     1      51.889   3.395  18.136  0.00  0.00    +0.000 A 
BRANCH  15  22
ATOM     21  N   UNL     1      53.226   0.051  18.095  0.00  0.00    +0.000 N 
ATOM     22  C   UNL     1      53.247   1.378  17.771  0.00  0.00    +0.000 C 
ATOM     23  O   UNL     1      54.298   1.951  17.524  0.00  0.00    +0.000 OA
ATOM     24  H   UNL     1      54.114  -0.434  18.043  0.00  0.00    +0.000 HD
ATOM     25  H   UNL     1      52.386  -0.509  18.059  0.00  0.00    +0.000 HD
ENDBRANCH  15  22
ENDBRANCH  14  18
ENDBRANCH   1  14
TORSDOF 5
ENDMDL
