MODEL 1
REMARK VINA RESULT:    -8.231      0.000      0.000
REMARK INTER + INTRA:         -13.798
REMARK INTER:                 -12.802
REMARK INTRA:                  -0.996
REMARK UNBOUND:                -0.996
REMARK  Name = 
REMARK  11 active torsions:
REMARK  status: ('A' for Active; 'I' for Inactive)
REMARK    1  A    between atoms: C_1  and  C_2
REMARK    2  A    between atoms: C_7  and  C_8
REMARK    3  A    between atoms: N_10  and  C_11
REMARK    4  A    between atoms: C_11  and  C_12
REMARK    5  A    between atoms: C_15  and  C_16
REMARK    6  A    between atoms: C_16  and  N_17
REMARK    7  A    between atoms: N_17  and  CA_18
REMARK    8  A    between atoms: CA_18  and  C_19
REMARK    9  A    between atoms: CA_18  and  CB_21
REMARK   10  A    between atoms: C_19  and  O_20
REMARK   11  A    between atoms: CB_21  and  CG_22
REMARK                            x       y       z     vdW  Elec       q    Type
REMARK                         _______ _______ _______ _____ _____    ______ ____
ROOT
ATOM      1  C   UNL     1      46.342   8.177  12.779  0.00  0.00    +0.000 A 
ATOM      2  C   UNL     1      46.310   6.826  13.151  0.00  0.00    +0.000 A 
ATOM      3  C   UNL     1      45.327   5.970  12.642  0.00  0.00    +0.000 A 
ATOM      4  C   UNL     1      44.361   6.449  11.744  0.00  0.00    +0.000 A 
ATOM      5  C   UNL     1      44.397   7.800  11.375  0.00  0.00    +0.000 A 
ATOM      6  C   UNL     1      45.379   8.651  11.880  0.00  0.00    +0.000 A 
ENDROOT
BRANCH   1   7
ATOM      7  C   UNL     1      47.413   9.099  13.298  0.00  0.00    +0.000 C 
BRANCH   7  10
ATOM      8  C   UNL     1      48.809   8.368  15.170  0.00  0.00    +0.000 C 
ATOM      9  O   UNL     1      49.690   8.009  14.392  0.00  0.00    +0.000 OA
ATOM     10  N   UNL     1      47.641   8.918  14.710  0.00  0.00    +0.000 N 
ATOM     11  H   UNL     1      46.897   9.185  15.350  0.00  0.00    +0.000 HD
BRANCH   8  18
ATOM     12  C   UNL     1      48.818   4.236  20.647  0.00  0.00    +0.000 C 
ATOM     13  C   UNL     1      48.877   5.298  19.590  0.00  0.00    +0.000 A 
ATOM     14  N   UNL     1      49.099   6.538  19.895  0.00  0.00    +0.000 NA
ATOM     15  C   UNL     1      49.112   7.390  18.831  0.00  0.00    +0.000 A 
ATOM     16  S   UNL     1      49.388   9.052  19.058  0.00  0.00    +0.000 S 
ATOM     17  C   UNL     1      49.240   9.359  17.389  0.00  0.00    +0.000 A 
ATOM     18  C   UNL     1      48.978   8.225  16.627  0.00  0.00    +0.000 A 
ATOM     19  C   UNL     1      48.919   7.071  17.498  0.00  0.00    +0.000 A 
ATOM     20  C   UNL     1      48.690   5.669  17.207  0.00  0.00    +0.000 A 
ATOM     21  O   UNL     1      48.533   5.212  16.080  0.00  0.00    +0.000 OA
ATOM     22  N   UNL     1      48.670   4.849  18.310  0.00  0.00    +0.000 N 
ATOM     23  H   UNL     1      48.507   3.870  18.120  0.00  0.00    +0.000 HD
ENDBRANCH   8  18
ENDBRANCH   7  10
ENDBRANCH   1   7
BRANCH   4  24
ATOM     24  C   ACE A   0      43.367   5.519  11.090  0.00  0.00    +0.000 C 
BRANCH  24  25
ATOM     25  N   UNL     1      43.917   4.824   9.922  0.00  0.00    +0.000 NA
ATOM     26  H   UNL     1      44.711   5.381   9.594  0.00  0.00    +0.000 HD
BRANCH  25  27
ATOM     27  CA  UNL     1      44.436   3.471  10.275  0.00  0.00    +0.000 C 
BRANCH  27  28
ATOM     28  C   UNL     1      43.651   2.877  11.469  0.00  0.00    +0.000 C 
BRANCH  28  29
ATOM     29  O   UNL     1      44.546   2.496  12.511  0.00  0.00    +0.000 OA
ATOM     30  H   UNL     1      45.434   2.749  12.187  0.00  0.00    +0.000 HD
ENDBRANCH  28  29
ENDBRANCH  27  28
BRANCH  27  31
ATOM     31  CB  UNL     1      44.320   2.509   9.061  0.00  0.00    +0.000 C 
BRANCH  31  32
ATOM     32  CG  UNL     1      45.560   2.492   8.193  0.00  0.00    +0.000 A 
ATOM     33  CD1 UNL     1      45.924   3.619   7.444  0.00  0.00    +0.000 A 
ATOM     34  CE1 UNL     1      47.024   3.571   6.587  0.00  0.00    +0.000 A 
ATOM     35  CZ  UNL     1      47.764   2.395   6.464  0.00  0.00    +0.000 A 
ATOM     36  CE2 UNL     1      47.422   1.275   7.218  0.00  0.00    +0.000 A 
ATOM     37  CD2 UNL     1      46.333   1.327   8.088  0.00  0.00    +0.000 A 
ENDBRANCH  31  32
ENDBRANCH  27  31
ENDBRANCH  25  27
ENDBRANCH  24  25
ENDBRANCH   4  24
TORSDOF 10
ENDMDL
MODEL 2
REMARK VINA RESULT:    -8.001      1.823      2.745
REMARK INTER + INTRA:         -13.440
REMARK INTER:                 -12.832
REMARK INTRA:                  -0.609
REMARK UNBOUND:                -0.996
REMARK  Name = 
REMARK  11 active torsions:
REMARK  status: ('A' for Active; 'I' for Inactive)
REMARK    1  A    between atoms: C_1  and  C_2
REMARK    2  A    between atoms: C_7  and  C_8
REMARK    3  A    between atoms: N_10  and  C_11
REMARK    4  A    between atoms: C_11  and  C_12
REMARK    5  A    between atoms: C_15  and  C_16
REMARK    6  A    between atoms: C_16  and  N_17
REMARK    7  A    between atoms: N_17  and  CA_18
REMARK    8  A    between atoms: CA_18  and  C_19
REMARK    9  A    between atoms: CA_18  and  CB_21
REMARK   10  A    between atoms: C_19  and  O_20
REMARK   11  A    between atoms: CB_21  and  CG_22
REMARK                            x       y       z     vdW  Elec       q    Type
REMARK                         _______ _______ _______ _____ _____    ______ ____
ROOT
ATOM      1  C   UNL     1      47.295   6.383  13.364  0.00  0.00    +0.000 A 
ATOM      2  C   UNL     1      46.267   5.570  13.861  0.00  0.00    +0.000 A 
ATOM      3  C   UNL     1      45.118   5.329  13.099  0.00  0.00    +0.000 A 
ATOM      4  C   UNL     1      44.980   5.891  11.821  0.00  0.00    +0.000 A 
ATOM      5  C   UNL     1      46.010   6.704  11.330  0.00  0.00    +0.000 A 
ATOM      6  C   UNL     1      47.156   6.941  12.088  0.00  0.00    +0.000 A 
ENDROOT
BRANCH   1   7
ATOM      7  C   UNL     1      48.547   6.625  14.164  0.00  0.00    +0.000 C 
BRANCH   7  10
ATOM      8  C   UNL     1      49.061   6.351  16.542  0.00  0.00    +0.000 C 
ATOM      9  O   UNL     1      50.042   5.664  16.266  0.00  0.00    +0.000 OA
ATOM     10  N   UNL     1      48.259   6.866  15.557  0.00  0.00    +0.000 N 
ATOM     11  H   UNL     1      47.428   7.406  15.783  0.00  0.00    +0.000 HD
BRANCH   8  18
ATOM     12  C   UNL     1      46.871  10.949  21.139  0.00  0.00    +0.000 C 
ATOM     13  C   UNL     1      47.345   9.800  20.300  0.00  0.00    +0.000 A 
ATOM     14  N   UNL     1      47.614   8.648  20.829  0.00  0.00    +0.000 NA
ATOM     15  C   UNL     1      48.046   7.705  19.946  0.00  0.00    +0.000 A 
ATOM     16  S   UNL     1      48.444   6.139  20.478  0.00  0.00    +0.000 S 
ATOM     17  C   UNL     1      48.859   5.651  18.900  0.00  0.00    +0.000 A 
ATOM     18  C   UNL     1      48.712   6.648  17.942  0.00  0.00    +0.000 A 
ATOM     19  C   UNL     1      48.218   7.850  18.580  0.00  0.00    +0.000 A 
ATOM     20  C   UNL     1      47.889   9.152  18.034  0.00  0.00    +0.000 A 
ATOM     21  O   UNL     1      47.954   9.441  16.844  0.00  0.00    +0.000 OA
ATOM     22  N   UNL     1      47.473  10.076  18.962  0.00  0.00    +0.000 N 
ATOM     23  H   UNL     1      47.244  10.989  18.594  0.00  0.00    +0.000 HD
ENDBRANCH   8  18
ENDBRANCH   7  10
ENDBRANCH   1   7
BRANCH   4  24
ATOM     24  C   ACE A   0      43.807   5.548  10.934  0.00  0.00    +0.000 C 
BRANCH  24  25
ATOM     25  N   UNL     1      44.164   4.640   9.840  0.00  0.00    +0.000 NA
ATOM     26  H   UNL     1      45.039   4.990   9.440  0.00  0.00    +0.000 HD
BRANCH  25  27
ATOM     27  CA  UNL     1      44.419   3.254  10.330  0.00  0.00    +0.000 C 
BRANCH  27  28
ATOM     28  C   UNL     1      43.374   2.849  11.396  0.00  0.00    +0.000 C 
BRANCH  28  29
ATOM     29  O   UNL     1      44.004   2.156  12.471  0.00  0.00    +0.000 OA
ATOM     30  H   UNL     1      44.963   2.218  12.285  0.00  0.00    +0.000 HD
ENDBRANCH  28  29
ENDBRANCH  27  28
BRANCH  27  31
ATOM     31  CB  UNL     1      44.367   2.242   9.154  0.00  0.00    +0.000 C 
BRANCH  31  32
ATOM     32  CG  UNL     1      45.571   2.324   8.241  0.00  0.00    +0.000 A 
ATOM     33  CD1 UNL     1      46.370   1.197   8.009  0.00  0.00    +0.000 A 
ATOM     34  CE1 UNL     1      47.523   1.298   7.228  0.00  0.00    +0.000 A 
ATOM     35  CZ  UNL     1      47.891   2.527   6.682  0.00  0.00    +0.000 A 
ATOM     36  CE2 UNL     1      47.094   3.650   6.892  0.00  0.00    +0.000 A 
ATOM     37  CD2 UNL     1      45.933   3.546   7.657  0.00  0.00    +0.000 A 
ENDBRANCH  31  32
ENDBRANCH  27  31
ENDBRANCH  25  27
ENDBRANCH  24  25
ENDBRANCH   4  24
TORSDOF 10
ENDMDL
MODEL 3
REMARK VINA RESULT:    -7.977      3.759      4.750
REMARK INTER + INTRA:         -13.403
REMARK INTER:                 -12.329
REMARK INTRA:                  -1.074
REMARK UNBOUND:                -0.996
REMARK  Name = 
REMARK  11 active torsions:
REMARK  status: ('A' for Active; 'I' for Inactive)
REMARK    1  A    between atoms: C_1  and  C_2
REMARK    2  A    between atoms: C_7  and  C_8
REMARK    3  A    between atoms: N_10  and  C_11
REMARK    4  A    between atoms: C_11  and  C_12
REMARK    5  A    between atoms: C_15  and  C_16
REMARK    6  A    between atoms: C_16  and  N_17
REMARK    7  A    between atoms: N_17  and  CA_18
REMARK    8  A    between atoms: CA_18  and  C_19
REMARK    9  A    between atoms: CA_18  and  CB_21
REMARK   10  A    between atoms: C_19  and  O_20
REMARK   11  A    between atoms: CB_21  and  CG_22
REMARK                            x       y       z     vdW  Elec       q    Type
REMARK                         _______ _______ _______ _____ _____    ______ ____
ROOT
ATOM      1  C   UNL     1      47.902   5.150  15.885  0.00  0.00    +0.000 A 
ATOM      2  C   UNL     1      47.006   4.211  15.358  0.00  0.00    +0.000 A 
ATOM      3  C   UNL     1      46.489   4.366  14.067  0.00  0.00    +0.000 A 
ATOM      4  C   UNL     1      46.866   5.462  13.276  0.00  0.00    +0.000 A 
ATOM      5  C   UNL     1      47.761   6.399  13.808  0.00  0.00    +0.000 A 
ATOM      6  C   UNL     1      48.279   6.241  15.093  0.00  0.00    +0.000 A 
ENDROOT
BRANCH   1   7
ATOM      7  C   UNL     1      48.486   4.977  17.262  0.00  0.00    +0.000 C 
BRANCH   7  10
ATOM      8  C   UNL     1      50.641   4.501  18.323  0.00  0.00    +0.000 C 
ATOM      9  O   UNL     1      50.241   4.979  19.382  0.00  0.00    +0.000 OA
ATOM     10  N   UNL     1      49.833   4.463  17.215  0.00  0.00    +0.000 N 
ATOM     11  H   UNL     1      50.172   4.099  16.329  0.00  0.00    +0.000 HD
BRANCH   8  18
ATOM     12  C   UNL     1      54.613  -0.893  16.842  0.00  0.00    +0.000 C 
ATOM     13  C   UNL     1      53.933   0.397  17.191  0.00  0.00    +0.000 A 
ATOM     14  N   UNL     1      54.613   1.436  17.563  0.00  0.00    +0.000 NA
ATOM     15  C   UNL     1      53.858   2.531  17.860  0.00  0.00    +0.000 A 
ATOM     16  S   UNL     1      54.596   3.977  18.367  0.00  0.00    +0.000 S 
ATOM     17  C   UNL     1      53.087   4.752  18.525  0.00  0.00    +0.000 A 
ATOM     18  C   UNL     1      52.000   3.946  18.205  0.00  0.00    +0.000 A 
ATOM     19  C   UNL     1      52.480   2.641  17.802  0.00  0.00    +0.000 A 
ATOM     20  C   UNL     1      51.766   1.457  17.365  0.00  0.00    +0.000 A 
ATOM     21  O   UNL     1      50.549   1.393  17.228  0.00  0.00    +0.000 OA
ATOM     22  N   UNL     1      52.565   0.373  17.092  0.00  0.00    +0.000 N 
ATOM     23  H   UNL     1      52.078  -0.460  16.789  0.00  0.00    +0.000 HD
ENDBRANCH   8  18
ENDBRANCH   7  10
ENDBRANCH   1   7
BRANCH   4  24
ATOM     24  C   ACE A   0      46.416   5.585  11.840  0.00  0.00    +0.000 C 
BRANCH  24  25
ATOM     25  N   UNL     1      44.967   5.433  11.680  0.00  0.00    +0.000 NA
ATOM     26  H   UNL     1      44.682   6.082  10.942  0.00  0.00    +0.000 HD
BRANCH  25  27
ATOM     27  CA  UNL     1      44.601   4.058  11.231  0.00  0.00    +0.000 C 
BRANCH  27  28
ATOM     28  C   UNL     1      43.449   3.489  12.092  0.00  0.00    +0.000 C 
BRANCH  28  29
ATOM     29  O   UNL     1      43.789   2.194  12.584  0.00  0.00    +0.000 OA
ATOM     30  H   UNL     1      44.443   1.844  11.945  0.00  0.00    +0.000 HD
ENDBRANCH  28  29
ENDBRANCH  27  28
BRANCH  27  31
ATOM     31  CB  UNL     1      44.164   4.069   9.740  0.00  0.00    +0.000 C 
BRANCH  31  32
ATOM     32  CG  UNL     1      45.124   3.331   8.832  0.00  0.00    +0.000 A 
ATOM     33  CD1 UNL     1      45.267   1.940   8.923  0.00  0.00    +0.000 A 
ATOM     34  CE1 UNL     1      46.210   1.276   8.136  0.00  0.00    +0.000 A 
ATOM     35  CZ  UNL     1      47.021   1.995   7.261  0.00  0.00    +0.000 A 
ATOM     36  CE2 UNL     1      46.874   3.376   7.149  0.00  0.00    +0.000 A 
ATOM     37  CD2 UNL     1      45.921   4.039   7.922  0.00  0.00    +0.000 A 
ENDBRANCH  31  32
ENDBRANCH  27  31
ENDBRANCH  25  27
ENDBRANCH  24  25
ENDBRANCH   4  24
TORSDOF 10
ENDMDL
MODEL 4
REMARK VINA RESULT:    -7.876      2.557      3.005
REMARK INTER + INTRA:         -13.247
REMARK INTER:                 -12.121
REMARK INTRA:                  -1.126
REMARK UNBOUND:                -0.996
REMARK  Name = 
REMARK  11 active torsions:
REMARK  status: ('A' for Active; 'I' for Inactive)
REMARK    1  A    between atoms: C_1  and  C_2
REMARK    2  A    between atoms: C_7  and  C_8
REMARK    3  A    between atoms: N_10  and  C_11
REMARK    4  A    between atoms: C_11  and  C_12
REMARK    5  A    between atoms: C_15  and  C_16
REMARK    6  A    between atoms: C_16  and  N_17
REMARK    7  A    between atoms: N_17  and  CA_18
REMARK    8  A    between atoms: CA_18  and  C_19
REMARK    9  A    between atoms: CA_18  and  CB_21
REMARK   10  A    between atoms: C_19  and  O_20
REMARK   11  A    between atoms: CB_21  and  CG_22
REMARK                            x       y       z     vdW  Elec       q    Type
REMARK                         _______ _______ _______ _____ _____    ______ ____
ROOT
ATOM      1  C   UNL     1      47.940   7.688  14.270  0.00  0.00    +0.000 A 
ATOM      2  C   UNL     1      47.834   6.308  14.051  0.00  0.00    +0.000 A 
ATOM      3  C   UNL     1      47.225   5.816  12.891  0.00  0.00    +0.000 A 
ATOM      4  C   UNL     1      46.717   6.697  11.925  0.00  0.00    +0.000 A 
ATOM      5  C   UNL     1      46.824   8.075  12.149  0.00  0.00    +0.000 A 
ATOM      6  C   UNL     1      47.435   8.565  13.303  0.00  0.00    +0.000 A 
ENDROOT
BRANCH   1   7
ATOM      7  C   UNL     1      48.620   8.228  15.500  0.00  0.00    +0.000 C 
BRANCH   7  10
ATOM      8  C   UNL     1      49.717   6.701  17.068  0.00  0.00    +0.000 C 
ATOM      9  O   UNL     1      48.741   6.742  17.813  0.00  0.00    +0.000 OA
ATOM     10  N   UNL     1      49.743   7.414  15.897  0.00  0.00    +0.000 N 
ATOM     11  H   UNL     1      50.562   7.409  15.295  0.00  0.00    +0.000 HD
BRANCH   8  18
ATOM     12  C   UNL     1      52.413   0.441  17.856  0.00  0.00    +0.000 C 
ATOM     13  C   UNL     1      52.027   1.884  17.725  0.00  0.00    +0.000 A 
ATOM     14  N   UNL     1      52.869   2.832  17.992  0.00  0.00    +0.000 NA
ATOM     15  C   UNL     1      52.372   4.092  17.840  0.00  0.00    +0.000 A 
ATOM     16  S   UNL     1      53.347   5.450  18.152  0.00  0.00    +0.000 S 
ATOM     17  C   UNL     1      52.076   6.517  17.769  0.00  0.00    +0.000 A 
ATOM     18  C   UNL     1      50.895   5.881  17.402  0.00  0.00    +0.000 A 
ATOM     19  C   UNL     1      51.096   4.449  17.439  0.00  0.00    +0.000 A 
ATOM     20  C   UNL     1      50.196   3.352  17.137  0.00  0.00    +0.000 A 
ATOM     21  O   UNL     1      49.044   3.491  16.740  0.00  0.00    +0.000 OA
ATOM     22  N   UNL     1      50.734   2.101  17.319  0.00  0.00    +0.000 N 
ATOM     23  H   UNL     1      50.115   1.328  17.115  0.00  0.00    +0.000 HD
ENDBRANCH   8  18
ENDBRANCH   7  10
ENDBRANCH   1   7
BRANCH   4  24
ATOM     24  C   ACE A   0      46.165   6.191  10.614  0.00  0.00    +0.000 C 
BRANCH  24  25
ATOM     25  N   UNL     1      44.733   5.880  10.678  0.00  0.00    +0.000 NA
ATOM     26  H   UNL     1      44.306   6.287   9.842  0.00  0.00    +0.000 HD
BRANCH  25  27
ATOM     27  CA  UNL     1      44.483   4.410  10.638  0.00  0.00    +0.000 C 
BRANCH  27  28
ATOM     28  C   UNL     1      43.323   4.025  11.586  0.00  0.00    +0.000 C 
BRANCH  28  29
ATOM     29  O   UNL     1      42.896   2.689  11.331  0.00  0.00    +0.000 OA
ATOM     30  H   UNL     1      42.234   2.497  12.026  0.00  0.00    +0.000 HD
ENDBRANCH  28  29
ENDBRANCH  27  28
BRANCH  27  31
ATOM     31  CB  UNL     1      44.133   3.956   9.194  0.00  0.00    +0.000 C 
BRANCH  31  32
ATOM     32  CG  UNL     1      45.252   3.194   8.520  0.00  0.00    +0.000 A 
ATOM     33  CD1 UNL     1      46.117   3.836   7.624  0.00  0.00    +0.000 A 
ATOM     34  CE1 UNL     1      47.098   3.110   6.947  0.00  0.00    +0.000 A 
ATOM     35  CZ  UNL     1      47.219   1.737   7.154  0.00  0.00    +0.000 A 
ATOM     36  CE2 UNL     1      46.377   1.091   8.057  0.00  0.00    +0.000 A 
ATOM     37  CD2 UNL     1      45.407   1.818   8.746  0.00  0.00    +0.000 A 
ENDBRANCH  31  32
ENDBRANCH  27  31
ENDBRANCH  25  27
ENDBRANCH  24  25
ENDBRANCH   4  24
TORSDOF 10
ENDMDL
MODEL 5
REMARK VINA RESULT:    -7.681      3.840      5.434
REMARK INTER + INTRA:         -12.943
REMARK INTER:                 -11.527
REMARK INTRA:                  -1.416
REMARK UNBOUND:                -0.996
REMARK  Name = 
REMARK  11 active torsions:
REMARK  status: ('A' for Active; 'I' for Inactive)
REMARK    1  A    between atoms: C_1  and  C_2
REMARK    2  A    between atoms: C_7  and  C_8
REMARK    3  A    between atoms: N_10  and  C_11
REMARK    4  A    between atoms: C_11  and  C_12
REMARK    5  A    between atoms: C_15  and  C_16
REMARK    6  A    between atoms: C_16  and  N_17
REMARK    7  A    between atoms: N_17  and  CA_18
REMARK    8  A    between atoms: CA_18  and  C_19
REMARK    9  A    between atoms: CA_18  and  CB_21
REMARK   10  A    between atoms: C_19  and  O_20
REMARK   11  A    between atoms: CB_21  and  CG_22
REMARK                            x       y       z     vdW  Elec       q    Type
REMARK                         _______ _______ _______ _____ _____    ______ ____
ROOT
ATOM      1  C   UNL     1      48.017   6.899  14.061  0.00  0.00    +0.000 A 
ATOM      2  C   UNL     1      47.400   7.931  13.341  0.00  0.00    +0.000 A 
ATOM      3  C   UNL     1      46.258   7.679  12.574  0.00  0.00    +0.000 A 
ATOM      4  C   UNL     1      45.706   6.391  12.518  0.00  0.00    +0.000 A 
ATOM      5  C   UNL     1      46.327   5.362  13.238  0.00  0.00    +0.000 A 
ATOM      6  C   UNL     1      47.463   5.614  14.007  0.00  0.00    +0.000 A 
ENDROOT
BRANCH   1   7
ATOM      7  C   UNL     1      49.229   7.164  14.914  0.00  0.00    +0.000 C 
BRANCH   7  10
ATOM      8  C   UNL     1      50.968   8.632  14.011  0.00  0.00    +0.000 C 
ATOM      9  O   UNL     1      50.473   9.598  14.587  0.00  0.00    +0.000 OA
ATOM     10  N   UNL     1      50.411   7.384  14.116  0.00  0.00    +0.000 N 
ATOM     11  H   UNL     1      50.799   6.590  13.614  0.00  0.00    +0.000 HD
BRANCH   8  18
ATOM     12  C   UNL     1      54.086   7.547   7.996  0.00  0.00    +0.000 C 
ATOM     13  C   UNL     1      53.588   7.891   9.368  0.00  0.00    +0.000 A 
ATOM     14  N   UNL     1      54.358   8.466  10.238  0.00  0.00    +0.000 NA
ATOM     15  C   UNL     1      53.771   8.705  11.444  0.00  0.00    +0.000 A 
ATOM     16  S   UNL     1      54.645   9.453  12.697  0.00  0.00    +0.000 S 
ATOM     17  C   UNL     1      53.309   9.369  13.750  0.00  0.00    +0.000 A 
ATOM     18  C   UNL     1      52.182   8.779  13.189  0.00  0.00    +0.000 A 
ATOM     19  C   UNL     1      52.473   8.405  11.821  0.00  0.00    +0.000 A 
ATOM     20  C   UNL     1      51.648   7.776  10.808  0.00  0.00    +0.000 A 
ATOM     21  O   UNL     1      50.470   7.473  10.965  0.00  0.00    +0.000 OA
ATOM     22  N   UNL     1      52.284   7.540   9.614  0.00  0.00    +0.000 N 
ATOM     23  H   UNL     1      51.720   7.098   8.901  0.00  0.00    +0.000 HD
ENDBRANCH   8  18
ENDBRANCH   7  10
ENDBRANCH   1   7
BRANCH   4  24
ATOM     24  C   ACE A   0      44.408   6.123  11.795  0.00  0.00    +0.000 C 
BRANCH  24  25
ATOM     25  N   UNL     1      44.601   5.778  10.383  0.00  0.00    +0.000 NA
ATOM     26  H   UNL     1      45.487   6.200  10.095  0.00  0.00    +0.000 HD
BRANCH  25  27
ATOM     27  CA  UNL     1      44.720   4.305  10.184  0.00  0.00    +0.000 C 
BRANCH  27  28
ATOM     28  C   UNL     1      43.676   3.549  11.039  0.00  0.00    +0.000 C 
BRANCH  28  29
ATOM     29  O   UNL     1      44.317   2.573  11.857  0.00  0.00    +0.000 OA
ATOM     30  H   UNL     1      43.888   1.725  11.624  0.00  0.00    +0.000 HD
ENDBRANCH  28  29
ENDBRANCH  27  28
BRANCH  27  31
ATOM     31  CB  UNL     1      44.514   3.939   8.688  0.00  0.00    +0.000 C 
BRANCH  31  32
ATOM     32  CG  UNL     1      45.636   3.096   8.121  0.00  0.00    +0.000 A 
ATOM     33  CD1 UNL     1      46.567   3.650   7.232  0.00  0.00    +0.000 A 
ATOM     34  CE1 UNL     1      47.552   2.849   6.652  0.00  0.00    +0.000 A 
ATOM     35  CZ  UNL     1      47.609   1.488   6.949  0.00  0.00    +0.000 A 
ATOM     36  CE2 UNL     1      46.700   0.930   7.845  0.00  0.00    +0.000 A 
ATOM     37  CD2 UNL     1      45.727   1.734   8.438  0.00  0.00    +0.000 A 
ENDBRANCH  31  32
ENDBRANCH  27  31
ENDBRANCH  25  27
ENDBRANCH  24  25
ENDBRANCH   4  24
TORSDOF 10
ENDMDL
MODEL 6
REMARK VINA RESULT:    -7.340      5.586      7.703
REMARK INTER + INTRA:         -12.413
REMARK INTER:                 -11.265
REMARK INTRA:                  -1.148
REMARK UNBOUND:                -0.996
REMARK  Name = 
REMARK  11 active torsions:
REMARK  status: ('A' for Active; 'I' for Inactive)
REMARK    1  A    between atoms: C_1  and  C_2
REMARK    2  A    between atoms: C_7  and  C_8
REMARK    3  A    between atoms: N_10  and  C_11
REMARK    4  A    between atoms: C_11  and  C_12
REMARK    5  A    between atoms: C_15  and  C_16
REMARK    6  A    between atoms: C_16  and  N_17
REMARK    7  A    between atoms: N_17  and  CA_18
REMARK    8  A    between atoms: CA_18  and  C_19
REMARK    9  A    between atoms: CA_18  and  CB_21
REMARK   10  A    between atoms: C_19  and  O_20
REMARK   11  A    between atoms: CB_21  and  CG_22
REMARK                            x       y       z     vdW  Elec       q    Type
REMARK                         _______ _______ _______ _____ _____    ______ ____
ROOT
ATOM      1  C   UNL     1      49.747   8.334  11.835  0.00  0.00    +0.000 A 
ATOM      2  C   UNL     1      48.767   9.332  11.739  0.00  0.00    +0.000 A 
ATOM      3  C   UNL     1      47.428   9.045  12.022  0.00  0.00    +0.000 A 
ATOM      4  C   UNL     1      47.044   7.755  12.415  0.00  0.00    +0.000 A 
ATOM      5  C   UNL     1      48.025   6.760  12.509  0.00  0.00    +0.000 A 
ATOM      6  C   UNL     1      49.361   7.048  12.231  0.00  0.00    +0.000 A 
ENDROOT
BRANCH   1   7
ATOM      7  C   UNL     1      51.195   8.639  11.561  0.00  0.00    +0.000 C 
BRANCH   7  10
ATOM      8  C   UNL     1      52.649   8.746   9.595  0.00  0.00    +0.000 C 
ATOM      9  O   UNL     1      53.246   9.710  10.071  0.00  0.00    +0.000 OA
ATOM     10  N   UNL     1      51.612   8.154  10.268  0.00  0.00    +0.000 N 
ATOM     11  H   UNL     1      51.095   7.379   9.862  0.00  0.00    +0.000 HD
BRANCH   8  18
ATOM     12  C   UNL     1      54.715   3.303   5.966  0.00  0.00    +0.000 C 
ATOM     13  C   UNL     1      54.255   4.598   6.566  0.00  0.00    +0.000 A 
ATOM     14  N   UNL     1      54.141   5.669   5.846  0.00  0.00    +0.000 NA
ATOM     15  C   UNL     1      53.726   6.771   6.531  0.00  0.00    +0.000 A 
ATOM     16  S   UNL     1      53.527   8.260   5.733  0.00  0.00    +0.000 S 
ATOM     17  C   UNL     1      53.048   9.029   7.176  0.00  0.00    +0.000 A 
ATOM     18  C   UNL     1      53.029   8.190   8.285  0.00  0.00    +0.000 A 
ATOM     19  C   UNL     1      53.421   6.857   7.878  0.00  0.00    +0.000 A 
ATOM     20  C   UNL     1      53.549   5.628   8.637  0.00  0.00    +0.000 A 
ATOM     21  O   UNL     1      53.289   5.521   9.831  0.00  0.00    +0.000 OA
ATOM     22  N   UNL     1      53.985   4.547   7.910  0.00  0.00    +0.000 N 
ATOM     23  H   UNL     1      54.082   3.685   8.430  0.00  0.00    +0.000 HD
ENDBRANCH   8  18
ENDBRANCH   7  10
ENDBRANCH   1   7
BRANCH   4  24
ATOM     24  C   ACE A   0      45.627   7.452  12.842  0.00  0.00    +0.000 C 
BRANCH  24  25
ATOM     25  N   UNL     1      44.806   6.910  11.755  0.00  0.00    +0.000 NA
ATOM     26  H   UNL     1      45.280   7.148  10.880  0.00  0.00    +0.000 HD
BRANCH  25  27
ATOM     27  CA  UNL     1      44.711   5.422  11.821  0.00  0.00    +0.000 C 
BRANCH  27  28
ATOM     28  C   UNL     1      44.032   4.975  13.137  0.00  0.00    +0.000 C 
BRANCH  28  29
ATOM     29  O   UNL     1      42.759   5.603  13.278  0.00  0.00    +0.000 OA
ATOM     30  H   UNL     1      42.124   4.867  13.391  0.00  0.00    +0.000 HD
ENDBRANCH  28  29
ENDBRANCH  27  28
BRANCH  27  31
ATOM     31  CB  UNL     1      43.898   4.874  10.617  0.00  0.00    +0.000 C 
BRANCH  31  32
ATOM     32  CG  UNL     1      44.727   4.033   9.671  0.00  0.00    +0.000 A 
ATOM     33  CD1 UNL     1      45.521   4.637   8.687  0.00  0.00    +0.000 A 
ATOM     34  CE1 UNL     1      46.222   3.854   7.768  0.00  0.00    +0.000 A 
ATOM     35  CZ  UNL     1      46.130   2.464   7.820  0.00  0.00    +0.000 A 
ATOM     36  CE2 UNL     1      45.358   1.853   8.806  0.00  0.00    +0.000 A 
ATOM     37  CD2 UNL     1      44.671   2.634   9.735  0.00  0.00    +0.000 A 
ENDBRANCH  31  32
ENDBRANCH  27  31
ENDBRANCH  25  27
ENDBRANCH  24  25
ENDBRANCH   4  24
TORSDOF 10
ENDMDL
MODEL 7
REMARK VINA RESULT:    -7.315      4.870      6.609
REMARK INTER + INTRA:         -12.375
REMARK INTER:                 -11.157
REMARK INTRA:                  -1.217
REMARK UNBOUND:                -0.996
REMARK  Name = 
REMARK  11 active torsions:
REMARK  status: ('A' for Active; 'I' for Inactive)
REMARK    1  A    between atoms: C_1  and  C_2
REMARK    2  A    between atoms: C_7  and  C_8
REMARK    3  A    between atoms: N_10  and  C_11
REMARK    4  A    between atoms: C_11  and  C_12
REMARK    5  A    between atoms: C_15  and  C_16
REMARK    6  A    between atoms: C_16  and  N_17
REMARK    7  A    between atoms: N_17  and  CA_18
REMARK    8  A    between atoms: CA_18  and  C_19
REMARK    9  A    between atoms: CA_18  and  CB_21
REMARK   10  A    between atoms: C_19  and  O_20
REMARK   11  A    between atoms: CB_21  and  CG_22
REMARK                            x       y       z     vdW  Elec       q    Type
REMARK                         _______ _______ _______ _____ _____    ______ ____
ROOT
ATOM      1  C   UNL     1      48.395   8.890  12.320  0.00  0.00    +0.000 A 
ATOM      2  C   UNL     1      48.638   7.511  12.369  0.00  0.00    +0.000 A 
ATOM      3  C   UNL     1      47.580   6.598  12.284  0.00  0.00    +0.000 A 
ATOM      4  C   UNL     1      46.260   7.049  12.140  0.00  0.00    +0.000 A 
ATOM      5  C   UNL     1      46.022   8.429  12.093  0.00  0.00    +0.000 A 
ATOM      6  C   UNL     1      47.077   9.338  12.173  0.00  0.00    +0.000 A 
ENDROOT
BRANCH   1   7
ATOM      7  C   UNL     1      49.528   9.879  12.381  0.00  0.00    +0.000 C 
BRANCH   7  10
ATOM      8  C   UNL     1      51.738  10.116  11.355  0.00  0.00    +0.000 C 
ATOM      9  O   UNL     1      52.191  10.577  12.401  0.00  0.00    +0.000 OA
ATOM     10  N   UNL     1      50.422   9.746  11.256  0.00  0.00    +0.000 N 
ATOM     11  H   UNL     1      50.037   9.397  10.383  0.00  0.00    +0.000 HD
BRANCH   8  18
ATOM     12  C   UNL     1      54.356   5.864   6.650  0.00  0.00    +0.000 C 
ATOM     13  C   UNL     1      53.885   6.954   7.566  0.00  0.00    +0.000 A 
ATOM     14  N   UNL     1      54.300   8.174   7.429  0.00  0.00    +0.000 NA
ATOM     15  C   UNL     1      53.797   9.051   8.342  0.00  0.00    +0.000 A 
ATOM     16  S   UNL     1      54.242  10.691   8.303  0.00  0.00    +0.000 S 
ATOM     17  C   UNL     1      53.271  11.042   9.657  0.00  0.00    +0.000 A 
ATOM     18  C   UNL     1      52.595   9.940  10.169  0.00  0.00    +0.000 A 
ATOM     19  C   UNL     1      52.910   8.776   9.369  0.00  0.00    +0.000 A 
ATOM     20  C   UNL     1      52.463   7.401   9.471  0.00  0.00    +0.000 A 
ATOM     21  O   UNL     1      51.657   6.994  10.301  0.00  0.00    +0.000 OA
ATOM     22  N   UNL     1      53.008   6.549   8.541  0.00  0.00    +0.000 N 
ATOM     23  H   UNL     1      52.707   5.586   8.604  0.00  0.00    +0.000 HD
ENDBRANCH   8  18
ENDBRANCH   7  10
ENDBRANCH   1   7
BRANCH   4  24
ATOM     24  C   ACE A   0      45.119   6.084  11.926  0.00  0.00    +0.000 C 
BRANCH  24  25
ATOM     25  N   UNL     1      44.878   5.790  10.510  0.00  0.00    +0.000 NA
ATOM     26  H   UNL     1      45.731   6.046  10.006  0.00  0.00    +0.000 HD
BRANCH  25  27
ATOM     27  CA  UNL     1      44.640   4.335  10.278  0.00  0.00    +0.000 C 
BRANCH  27  28
ATOM     28  C   UNL     1      43.386   3.855  11.046  0.00  0.00    +0.000 C 
BRANCH  28  29
ATOM     29  O   UNL     1      43.440   2.446  11.252  0.00  0.00    +0.000 OA
ATOM     30  H   UNL     1      44.393   2.226  11.262  0.00  0.00    +0.000 HD
ENDBRANCH  28  29
ENDBRANCH  27  28
BRANCH  27  31
ATOM     31  CB  UNL     1      44.451   4.048   8.764  0.00  0.00    +0.000 C 
BRANCH  31  32
ATOM     32  CG  UNL     1      45.538   3.171   8.182  0.00  0.00    +0.000 A 
ATOM     33  CD1 UNL     1      46.427   3.675   7.225  0.00  0.00    +0.000 A 
ATOM     34  CE1 UNL     1      47.378   2.839   6.636  0.00  0.00    +0.000 A 
ATOM     35  CZ  UNL     1      47.441   1.493   6.992  0.00  0.00    +0.000 A 
ATOM     36  CE2 UNL     1      46.574   0.985   7.956  0.00  0.00    +0.000 A 
ATOM     37  CD2 UNL     1      45.635   1.824   8.558  0.00  0.00    +0.000 A 
ENDBRANCH  31  32
ENDBRANCH  27  31
ENDBRANCH  25  27
ENDBRANCH  24  25
ENDBRANCH   4  24
TORSDOF 10
ENDMDL
MODEL 8
REMARK VINA RESULT:    -7.309      2.215      2.300
REMARK INTER + INTRA:         -12.364
REMARK INTER:                 -11.185
REMARK INTRA:                  -1.180
REMARK UNBOUND:                -0.996
REMARK  Name = 
REMARK  11 active torsions:
REMARK  status: ('A' for Active; 'I' for Inactive)
REMARK    1  A    between atoms: C_1  and  C_2
REMARK    2  A    between atoms: C_7  and  C_8
REMARK    3  A    between atoms: N_10  and  C_11
REMARK    4  A    between atoms: C_11  and  C_12
REMARK    5  A    between atoms: C_15  and  C_16
REMARK    6  A    between atoms: C_16  and  N_17
REMARK    7  A    between atoms: N_17  and  CA_18
REMARK    8  A    between atoms: CA_18  and  C_19
REMARK    9  A    between atoms: CA_18  and  CB_21
REMARK   10  A    between atoms: C_19  and  O_20
REMARK   11  A    between atoms: CB_21  and  CG_22
REMARK                            x       y       z     vdW  Elec       q    Type
REMARK                         _______ _______ _______ _____ _____    ______ ____
ROOT
ATOM      1  C   UNL     1      46.977   8.034  13.288  0.00  0.00    +0.000 A 
ATOM      2  C   UNL     1      47.486   6.877  12.683  0.00  0.00    +0.000 A 
ATOM      3  C   UNL     1      46.743   6.195  11.713  0.00  0.00    +0.000 A 
ATOM      4  C   UNL     1      45.479   6.662  11.325  0.00  0.00    +0.000 A 
ATOM      5  C   UNL     1      44.973   7.818  11.934  0.00  0.00    +0.000 A 
ATOM      6  C   UNL     1      45.716   8.500  12.897  0.00  0.00    +0.000 A 
ENDROOT
BRANCH   1   7
ATOM      7  C   UNL     1      47.780   8.792  14.312  0.00  0.00    +0.000 C 
BRANCH   7  10
ATOM      8  C   UNL     1      49.999   8.720  15.343  0.00  0.00    +0.000 C 
ATOM      9  O   UNL     1      49.929   9.918  15.611  0.00  0.00    +0.000 OA
ATOM     10  N   UNL     1      48.975   8.080  14.694  0.00  0.00    +0.000 N 
ATOM     11  H   UNL     1      49.044   7.098  14.441  0.00  0.00    +0.000 HD
BRANCH   8  18
ATOM     12  C   UNL     1      52.527   3.131  18.417  0.00  0.00    +0.000 C 
ATOM     13  C   UNL     1      52.183   4.395  17.687  0.00  0.00    +0.000 A 
ATOM     14  N   UNL     1      53.106   5.164  17.202  0.00  0.00    +0.000 NA
ATOM     15  C   UNL     1      52.642   6.283  16.577  0.00  0.00    +0.000 A 
ATOM     16  S   UNL     1      53.724   7.399  15.887  0.00  0.00    +0.000 S 
ATOM     17  C   UNL     1      52.446   8.403  15.377  0.00  0.00    +0.000 A 
ATOM     18  C   UNL     1      51.183   7.927  15.714  0.00  0.00    +0.000 A 
ATOM     19  C   UNL     1      51.322   6.666  16.412  0.00  0.00    +0.000 A 
ATOM     20  C   UNL     1      50.326   5.764  16.958  0.00  0.00    +0.000 A 
ATOM     21  O   UNL     1      49.115   5.936  16.871  0.00  0.00    +0.000 OA
ATOM     22  N   UNL     1      50.839   4.659  17.592  0.00  0.00    +0.000 N 
ATOM     23  H   UNL     1      50.154   4.024  17.980  0.00  0.00    +0.000 HD
ENDBRANCH   8  18
ENDBRANCH   7  10
ENDBRANCH   1   7
BRANCH   4  24
ATOM     24  C   ACE A   0      44.714   6.012  10.197  0.00  0.00    +0.000 C 
BRANCH  24  25
ATOM     25  N   UNL     1      43.901   4.875  10.639  0.00  0.00    +0.000 NA
ATOM     26  H   UNL     1      43.183   4.731   9.925  0.00  0.00    +0.000 HD
BRANCH  25  27
ATOM     27  CA  UNL     1      44.704   3.620  10.725  0.00  0.00    +0.000 C 
BRANCH  27  28
ATOM     28  C   UNL     1      44.444   2.894  12.066  0.00  0.00    +0.000 C 
BRANCH  28  29
ATOM     29  O   UNL     1      45.670   2.685  12.763  0.00  0.00    +0.000 OA
ATOM     30  H   UNL     1      45.525   1.877  13.296  0.00  0.00    +0.000 HD
ENDBRANCH  28  29
ENDBRANCH  27  28
BRANCH  27  31
ATOM     31  CB  UNL     1      44.351   2.666   9.552  0.00  0.00    +0.000 C 
BRANCH  31  32
ATOM     32  CG  UNL     1      45.443   2.574   8.509  0.00  0.00    +0.000 A 
ATOM     33  CD1 UNL     1      45.755   3.675   7.701  0.00  0.00    +0.000 A 
ATOM     34  CE1 UNL     1      46.710   3.560   6.688  0.00  0.00    +0.000 A 
ATOM     35  CZ  UNL     1      47.353   2.343   6.471  0.00  0.00    +0.000 A 
ATOM     36  CE2 UNL     1      47.065   1.246   7.280  0.00  0.00    +0.000 A 
ATOM     37  CD2 UNL     1      46.124   1.365   8.303  0.00  0.00    +0.000 A 
ENDBRANCH  31  32
ENDBRANCH  27  31
ENDBRANCH  25  27
ENDBRANCH  24  25
ENDBRANCH   4  24
TORSDOF 10
ENDMDL
MODEL 9
REMARK VINA RESULT:    -6.609      4.160      6.415
REMARK INTER + INTRA:         -11.276
REMARK INTER:                  -9.576
REMARK INTRA:                  -1.700
REMARK UNBOUND:                -0.996
REMARK  Name = 
REMARK  11 active torsions:
REMARK  status: ('A' for Active; 'I' for Inactive)
REMARK    1  A    between atoms: C_1  and  C_2
REMARK    2  A    between atoms: C_7  and  C_8
REMARK    3  A    between atoms: N_10  and  C_11
REMARK    4  A    between atoms: C_11  and  C_12
REMARK    5  A    between atoms: C_15  and  C_16
REMARK    6  A    between atoms: C_16  and  N_17
REMARK    7  A    between atoms: N_17  and  CA_18
REMARK    8  A    between atoms: CA_18  and  C_19
REMARK    9  A    between atoms: CA_18  and  CB_21
REMARK   10  A    between atoms: C_19  and  O_20
REMARK   11  A    between atoms: CB_21  and  CG_22
REMARK                            x       y       z     vdW  Elec       q    Type
REMARK                         _______ _______ _______ _____ _____    ______ ____
ROOT
ATOM      1  C   UNL     1      48.689   4.652  17.616  0.00  0.00    +0.000 A 
ATOM      2  C   UNL     1      48.211   3.366  17.330  0.00  0.00    +0.000 A 
ATOM      3  C   UNL     1      47.573   3.098  16.114  0.00  0.00    +0.000 A 
ATOM      4  C   UNL     1      47.407   4.110  15.158  0.00  0.00    +0.000 A 
ATOM      5  C   UNL     1      47.885   5.394  15.449  0.00  0.00    +0.000 A 
ATOM      6  C   UNL     1      48.525   5.661  16.659  0.00  0.00    +0.000 A 
ENDROOT
BRANCH   1   7
ATOM      7  C   UNL     1      49.403   4.945  18.909  0.00  0.00    +0.000 C 
BRANCH   7  10
ATOM      8  C   UNL     1      51.776   4.484  18.522  0.00  0.00    +0.000 C 
ATOM      9  O   UNL     1      51.884   5.517  17.865  0.00  0.00    +0.000 OA
ATOM     10  N   UNL     1      50.575   4.121  19.076  0.00  0.00    +0.000 N 
ATOM     11  H   UNL     1      50.474   3.251  19.591  0.00  0.00    +0.000 HD
BRANCH   8  18
ATOM     12  C   UNL     1      54.498  -1.788  17.951  0.00  0.00    +0.000 C 
ATOM     13  C   UNL     1      54.100  -0.356  18.153  0.00  0.00    +0.000 A 
ATOM     14  N   UNL     1      54.899   0.490  18.723  0.00  0.00    +0.000 NA
ATOM     15  C   UNL     1      54.396   1.750  18.849  0.00  0.00    +0.000 A 
ATOM     16  S   UNL     1      55.317   2.980  19.578  0.00  0.00    +0.000 S 
ATOM     17  C   UNL     1      54.067   4.116  19.363  0.00  0.00    +0.000 A 
ATOM     18  C   UNL     1      52.933   3.600  18.744  0.00  0.00    +0.000 A 
ATOM     19  C   UNL     1      53.154   2.203  18.438  0.00  0.00    +0.000 A 
ATOM     20  C   UNL     1      52.303   1.223  17.792  0.00  0.00    +0.000 A 
ATOM     21  O   UNL     1      51.189   1.463  17.341  0.00  0.00    +0.000 OA
ATOM     22  N   UNL     1      52.845  -0.037  17.700  0.00  0.00    +0.000 N 
ATOM     23  H   UNL     1      52.259  -0.730  17.255  0.00  0.00    +0.000 HD
ENDBRANCH   8  18
ENDBRANCH   7  10
ENDBRANCH   1   7
BRANCH   4  24
ATOM     24  C   ACE A   0      46.831   3.816  13.794  0.00  0.00    +0.000 C 
BRANCH  24  25
ATOM     25  N   UNL     1      45.398   4.116  13.701  0.00  0.00    +0.000 NA
ATOM     26  H   UNL     1      45.192   4.796  14.437  0.00  0.00    +0.000 HD
BRANCH  25  27
ATOM     27  CA  UNL     1      45.048   4.748  12.396  0.00  0.00    +0.000 C 
BRANCH  27  28
ATOM     28  C   UNL     1      43.825   4.047  11.759  0.00  0.00    +0.000 C 
BRANCH  28  29
ATOM     29  O   UNL     1      44.057   2.645  11.650  0.00  0.00    +0.000 OA
ATOM     30  H   UNL     1      43.171   2.249  11.528  0.00  0.00    +0.000 HD
ENDBRANCH  28  29
ENDBRANCH  27  28
BRANCH  27  31
ATOM     31  CB  UNL     1      44.728   6.256  12.589  0.00  0.00    +0.000 C 
BRANCH  31  32
ATOM     32  CG  UNL     1      45.949   7.143  12.479  0.00  0.00    +0.000 A 
ATOM     33  CD1 UNL     1      45.948   8.432  13.028  0.00  0.00    +0.000 A 
ATOM     34  CE1 UNL     1      47.048   9.273  12.856  0.00  0.00    +0.000 A 
ATOM     35  CZ  UNL     1      48.153   8.838  12.126  0.00  0.00    +0.000 A 
ATOM     36  CE2 UNL     1      48.172   7.552  11.591  0.00  0.00    +0.000 A 
ATOM     37  CD2 UNL     1      47.081   6.704  11.778  0.00  0.00    +0.000 A 
ENDBRANCH  31  32
ENDBRANCH  27  31
ENDBRANCH  25  27
ENDBRANCH  24  25
ENDBRANCH   4  24
TORSDOF 10
ENDMDL
