MODEL 1
REMARK VINA RESULT:    -7.631      0.000      0.000
REMARK INTER + INTRA:         -10.317
REMARK INTER:                  -9.638
REMARK INTRA:                  -0.679
REMARK UNBOUND:                -0.679
REMARK  Name = 
REMARK  5 active torsions:
REMARK  status: ('A' for Active; 'I' for Inactive)
REMARK    1  A    between atoms: N_1  and  C_2
REMARK    2  A    between atoms: C_2  and  C_3
REMARK    3  A    between atoms: C_6  and  O_7
REMARK    4  A    between atoms: O_7  and  C_8
REMARK    5  A    between atoms: C_8  and  C_9
REMARK                            x       y       z     vdW  Elec       q    Type
REMARK                         _______ _______ _______ _____ _____    ______ ____
ROOT
ATOM      1  C   UNL     1      46.559   2.338   7.656  0.00  0.00    +0.000 A 
ATOM      2  C   UNL     1      46.437   3.733   7.566  0.00  0.00    +0.000 A 
ATOM      3  C   UNL     1      45.450   4.408   8.291  0.00  0.00    +0.000 A 
ATOM      4  C   UNL     1      44.566   3.699   9.103  0.00  0.00    +0.000 A 
ATOM      5  C   UNL     1      44.712   2.318   9.238  0.00  0.00    +0.000 A 
ATOM      6  C   UNL     1      45.695   1.642   8.510  0.00  0.00    +0.000 A 
ENDROOT
BRANCH   1   7
ATOM      7  C   UNL     1      47.580   1.595   6.835  0.00  0.00    +0.000 C 
BRANCH   7   8
ATOM      8  N   UNL     1      48.604   2.487   6.310  0.00  0.00    +0.000 NA
ATOM      9  H   UNL     1      49.215   1.961   5.689  0.00  0.00    +0.000 HD
ATOM     10  H   UNL     1      49.186   2.809   7.083  0.00  0.00    +0.000 HD
ENDBRANCH   7   8
ENDBRANCH   1   7
BRANCH   4  11
ATOM     11  O   UNL     1      43.596   4.448   9.717  0.00  0.00    +0.000 OA
BRANCH  11  12
ATOM     12  C   UNL     1      43.414   4.173  11.107  0.00  0.00    +0.000 C 
BRANCH  12  13
ATOM     13  C   UNL     1      44.609   4.680  11.877  0.00  0.00    +0.000 A 
ATOM     14  C   UNL     1      44.901   6.054  11.902  0.00  0.00    +0.000 A 
ATOM     15  C   UNL     1      45.968   6.542  12.661  0.00  0.00    +0.000 A 
ATOM     16  C   UNL     1      46.750   5.659  13.403  0.00  0.00    +0.000 A 
ATOM     17 CL   UNL     1      48.055   6.269  14.343  0.00  0.00    +0.000 Cl
ATOM     18  C   UNL     1      46.463   4.296  13.382  0.00  0.00    +0.000 A 
ATOM     19  F   UNL     1      47.197   3.430  14.097  0.00  0.00    +0.000 F 
ATOM     20  C   UNL     1      45.401   3.803  12.627  0.00  0.00    +0.000 A 
ENDBRANCH  12  13
ENDBRANCH  11  12
ENDBRANCH   4  11
TORSDOF 5
ENDMDL
MODEL 2
REMARK VINA RESULT:    -7.604      1.155      1.961
REMARK INTER + INTRA:         -10.284
REMARK INTER:                  -9.564
REMARK INTRA:                  -0.720
REMARK UNBOUND:                -0.679
REMARK  Name = 
REMARK  5 active torsions:
REMARK  status: ('A' for Active; 'I' for Inactive)
REMARK    1  A    between atoms: N_1  and  C_2
REMARK    2  A    between atoms: C_2  and  C_3
REMARK    3  A    between atoms: C_6  and  O_7
REMARK    4  A    between atoms: O_7  and  C_8
REMARK    5  A    between atoms: C_8  and  C_9
REMARK                            x       y       z     vdW  Elec       q    Type
REMARK                         _______ _______ _______ _____ _____    ______ ____
ROOT
ATOM      1  C   UNL     1      46.572   2.251   7.635  0.00  0.00    +0.000 A 
ATOM      2  C   UNL     1      45.746   1.430   8.417  0.00  0.00    +0.000 A 
ATOM      3  C   UNL     1      44.722   1.983   9.190  0.00  0.00    +0.000 A 
ATOM      4  C   UNL     1      44.516   3.362   9.201  0.00  0.00    +0.000 A 
ATOM      5  C   UNL     1      45.299   4.181   8.387  0.00  0.00    +0.000 A 
ATOM      6  C   UNL     1      46.326   3.629   7.618  0.00  0.00    +0.000 A 
ENDROOT
BRANCH   1   7
ATOM      7  C   UNL     1      47.716   1.672   6.844  0.00  0.00    +0.000 C 
BRANCH   7   8
ATOM      8  N   UNL     1      48.600   2.711   6.333  0.00  0.00    +0.000 NA
ATOM      9  H   UNL     1      49.489   2.291   6.071  0.00  0.00    +0.000 HD
ATOM     10  H   UNL     1      48.801   3.369   7.086  0.00  0.00    +0.000 HD
ENDBRANCH   7   8
ENDBRANCH   1   7
BRANCH   4  11
ATOM     11  O   UNL     1      43.529   3.806  10.042  0.00  0.00    +0.000 OA
BRANCH  11  12
ATOM     12  C   UNL     1      43.576   3.265  11.363  0.00  0.00    +0.000 C 
BRANCH  12  13
ATOM     13  C   UNL     1      44.621   3.999  12.166  0.00  0.00    +0.000 A 
ATOM     14  C   UNL     1      45.715   3.301  12.706  0.00  0.00    +0.000 A 
ATOM     15  C   UNL     1      46.721   3.980  13.400  0.00  0.00    +0.000 A 
ATOM     16  C   UNL     1      46.642   5.362  13.557  0.00  0.00    +0.000 A 
ATOM     17 CL   UNL     1      47.889   6.191  14.403  0.00  0.00    +0.000 Cl
ATOM     18  C   UNL     1      45.559   6.058  13.022  0.00  0.00    +0.000 A 
ATOM     19  F   UNL     1      45.469   7.390  13.154  0.00  0.00    +0.000 F 
ATOM     20  C   UNL     1      44.553   5.388  12.330  0.00  0.00    +0.000 A 
ENDBRANCH  12  13
ENDBRANCH  11  12
ENDBRANCH   4  11
TORSDOF 5
ENDMDL
MODEL 3
REMARK VINA RESULT:    -7.256      3.714      5.964
REMARK INTER + INTRA:          -9.844
REMARK INTER:                  -9.287
REMARK INTRA:                  -0.557
REMARK UNBOUND:                -0.679
REMARK  Name = 
REMARK  5 active torsions:
REMARK  status: ('A' for Active; 'I' for Inactive)
REMARK    1  A    between atoms: N_1  and  C_2
REMARK    2  A    between atoms: C_2  and  C_3
REMARK    3  A    between atoms: C_6  and  O_7
REMARK    4  A    between atoms: O_7  and  C_8
REMARK    5  A    between atoms: C_8  and  C_9
REMARK                            x       y       z     vdW  Elec       q    Type
REMARK                         _______ _______ _______ _____ _____    ______ ____
ROOT
ATOM      1  C   UNL     1      46.962   5.831  13.258  0.00  0.00    +0.000 A 
ATOM      2  C   UNL     1      46.629   6.605  12.136  0.00  0.00    +0.000 A 
ATOM      3  C   UNL     1      45.666   6.160  11.227  0.00  0.00    +0.000 A 
ATOM      4  C   UNL     1      45.033   4.932  11.418  0.00  0.00    +0.000 A 
ATOM      5  C   UNL     1      45.321   4.180  12.557  0.00  0.00    +0.000 A 
ATOM      6  C   UNL     1      46.287   4.622  13.464  0.00  0.00    +0.000 A 
ENDROOT
BRANCH   1   7
ATOM      7  C   UNL     1      48.040   6.273  14.213  0.00  0.00    +0.000 C 
BRANCH   7   8
ATOM      8  N   UNL     1      47.991   5.531  15.465  0.00  0.00    +0.000 NA
ATOM      9  H   UNL     1      47.654   4.589  15.279  0.00  0.00    +0.000 HD
ATOM     10  H   UNL     1      47.304   5.968  16.078  0.00  0.00    +0.000 HD
ENDBRANCH   7   8
ENDBRANCH   1   7
BRANCH   4  11
ATOM     11  O   UNL     1      44.154   4.560  10.434  0.00  0.00    +0.000 OA
BRANCH  11  12
ATOM     12  C   UNL     1      44.150   3.166  10.127  0.00  0.00    +0.000 C 
BRANCH  12  13
ATOM     13  C   UNL     1      45.086   2.906   8.972  0.00  0.00    +0.000 A 
ATOM     14  C   UNL     1      45.425   3.947   8.091  0.00  0.00    +0.000 A 
ATOM     15  C   UNL     1      46.337   3.734   7.054  0.00  0.00    +0.000 A 
ATOM     16  C   UNL     1      46.922   2.479   6.893  0.00  0.00    +0.000 A 
ATOM     17 CL   UNL     1      48.052   2.229   5.621  0.00  0.00    +0.000 Cl
ATOM     18  C   UNL     1      46.590   1.445   7.766  0.00  0.00    +0.000 A 
ATOM     19  F   UNL     1      47.148   0.232   7.634  0.00  0.00    +0.000 F 
ATOM     20  C   UNL     1      45.680   1.651   8.801  0.00  0.00    +0.000 A 
ENDBRANCH  12  13
ENDBRANCH  11  12
ENDBRANCH   4  11
TORSDOF 5
ENDMDL
MODEL 4
REMARK VINA RESULT:    -7.023      3.794      6.074
REMARK INTER + INTRA:          -9.550
REMARK INTER:                  -8.953
REMARK INTRA:                  -0.597
REMARK UNBOUND:                -0.679
REMARK  Name = 
REMARK  5 active torsions:
REMARK  status: ('A' for Active; 'I' for Inactive)
REMARK    1  A    between atoms: N_1  and  C_2
REMARK    2  A    between atoms: C_2  and  C_3
REMARK    3  A    between atoms: C_6  and  O_7
REMARK    4  A    between atoms: O_7  and  C_8
REMARK    5  A    between atoms: C_8  and  C_9
REMARK                            x       y       z     vdW  Elec       q    Type
REMARK                         _______ _______ _______ _____ _____    ______ ____
ROOT
ATOM      1  C   UNL     1      46.298   7.326  12.561  0.00  0.00    +0.000 A 
ATOM      2  C   UNL     1      45.124   7.289  11.795  0.00  0.00    +0.000 A 
ATOM      3  C   UNL     1      44.537   6.067  11.455  0.00  0.00    +0.000 A 
ATOM      4  C   UNL     1      45.120   4.869  11.864  0.00  0.00    +0.000 A 
ATOM      5  C   UNL     1      46.259   4.898  12.670  0.00  0.00    +0.000 A 
ATOM      6  C   UNL     1      46.850   6.118  13.006  0.00  0.00    +0.000 A 
ENDROOT
BRANCH   1   7
ATOM      7  C   UNL     1      46.972   8.635  12.884  0.00  0.00    +0.000 C 
BRANCH   7   8
ATOM      8  N   UNL     1      46.814   8.992  14.287  0.00  0.00    +0.000 NA
ATOM      9  H   UNL     1      45.823   9.091  14.494  0.00  0.00    +0.000 HD
ATOM     10  H   UNL     1      47.234   9.908  14.441  0.00  0.00    +0.000 HD
ENDBRANCH   7   8
ENDBRANCH   1   7
BRANCH   4  11
ATOM     11  O   UNL     1      44.502   3.728  11.423  0.00  0.00    +0.000 OA
BRANCH  11  12
ATOM     12  C   UNL     1      43.912   3.827  10.126  0.00  0.00    +0.000 C 
BRANCH  12  13
ATOM     13  C   UNL     1      44.895   3.341   9.091  0.00  0.00    +0.000 A 
ATOM     14  C   UNL     1      45.517   4.256   8.223  0.00  0.00    +0.000 A 
ATOM     15  C   UNL     1      46.475   3.825   7.301  0.00  0.00    +0.000 A 
ATOM     16  C   UNL     1      46.821   2.477   7.241  0.00  0.00    +0.000 A 
ATOM     17 CL   UNL     1      48.008   1.957   6.110  0.00  0.00    +0.000 Cl
ATOM     18  C   UNL     1      46.208   1.567   8.100  0.00  0.00    +0.000 A 
ATOM     19  F   UNL     1      46.534   0.266   8.066  0.00  0.00    +0.000 F 
ATOM     20  C   UNL     1      45.252   1.989   9.021  0.00  0.00    +0.000 A 
ENDBRANCH  12  13
ENDBRANCH  11  12
ENDBRANCH   4  11
TORSDOF 5
ENDMDL
MODEL 5
REMARK VINA RESULT:    -6.556      3.546      5.990
REMARK INTER + INTRA:          -8.960
REMARK INTER:                  -8.536
REMARK INTRA:                  -0.424
REMARK UNBOUND:                -0.679
REMARK  Name = 
REMARK  5 active torsions:
REMARK  status: ('A' for Active; 'I' for Inactive)
REMARK    1  A    between atoms: N_1  and  C_2
REMARK    2  A    between atoms: C_2  and  C_3
REMARK    3  A    between atoms: C_6  and  O_7
REMARK    4  A    between atoms: O_7  and  C_8
REMARK    5  A    between atoms: C_8  and  C_9
REMARK                            x       y       z     vdW  Elec       q    Type
REMARK                         _______ _______ _______ _____ _____    ______ ____
ROOT
ATOM      1  C   UNL     1      47.334   5.953  13.580  0.00  0.00    +0.000 A 
ATOM      2  C   UNL     1      46.555   4.909  14.099  0.00  0.00    +0.000 A 
ATOM      3  C   UNL     1      45.430   4.451  13.408  0.00  0.00    +0.000 A 
ATOM      4  C   UNL     1      45.063   5.036  12.197  0.00  0.00    +0.000 A 
ATOM      5  C   UNL     1      45.861   6.040  11.648  0.00  0.00    +0.000 A 
ATOM      6  C   UNL     1      46.983   6.502  12.341  0.00  0.00    +0.000 A 
ENDROOT
BRANCH   1   7
ATOM      7  C   UNL     1      48.514   6.495  14.344  0.00  0.00    +0.000 C 
BRANCH   7   8
ATOM      8  N   UNL     1      49.573   6.948  13.454  0.00  0.00    +0.000 NA
ATOM      9  H   UNL     1      50.354   7.286  14.012  0.00  0.00    +0.000 HD
ATOM     10  H   UNL     1      49.232   7.747  12.920  0.00  0.00    +0.000 HD
ENDBRANCH   7   8
ENDBRANCH   1   7
BRANCH   4  11
ATOM     11  O   UNL     1      43.908   4.557  11.634  0.00  0.00    +0.000 OA
BRANCH  11  12
ATOM     12  C   UNL     1      43.750   4.849  10.245  0.00  0.00    +0.000 C 
BRANCH  12  13
ATOM     13  C   UNL     1      44.627   3.925   9.437  0.00  0.00    +0.000 A 
ATOM     14  C   UNL     1      44.577   2.537   9.652  0.00  0.00    +0.000 A 
ATOM     15  C   UNL     1      45.340   1.667   8.869  0.00  0.00    +0.000 A 
ATOM     16  C   UNL     1      46.157   2.177   7.863  0.00  0.00    +0.000 A 
ATOM     17 CL   UNL     1      47.084   1.098   6.896  0.00  0.00    +0.000 Cl
ATOM     18  C   UNL     1      46.208   3.553   7.645  0.00  0.00    +0.000 A 
ATOM     19  F   UNL     1      46.981   4.064   6.675  0.00  0.00    +0.000 F 
ATOM     20  C   UNL     1      45.451   4.426   8.423  0.00  0.00    +0.000 A 
ENDBRANCH  12  13
ENDBRANCH  11  12
ENDBRANCH   4  11
TORSDOF 5
ENDMDL
MODEL 6
REMARK VINA RESULT:    -5.701      1.641      2.246
REMARK INTER + INTRA:          -7.881
REMARK INTER:                  -7.660
REMARK INTRA:                  -0.220
REMARK UNBOUND:                -0.679
REMARK  Name = 
REMARK  5 active torsions:
REMARK  status: ('A' for Active; 'I' for Inactive)
REMARK    1  A    between atoms: N_1  and  C_2
REMARK    2  A    between atoms: C_2  and  C_3
REMARK    3  A    between atoms: C_6  and  O_7
REMARK    4  A    between atoms: O_7  and  C_8
REMARK    5  A    between atoms: C_8  and  C_9
REMARK                            x       y       z     vdW  Elec       q    Type
REMARK                         _______ _______ _______ _____ _____    ______ ____
ROOT
ATOM      1  C   UNL     1      45.776   2.522   8.179  0.00  0.00    +0.000 A 
ATOM      2  C   UNL     1      44.949   1.881   9.113  0.00  0.00    +0.000 A 
ATOM      3  C   UNL     1      44.225   2.625  10.048  0.00  0.00    +0.000 A 
ATOM      4  C   UNL     1      44.325   4.016  10.070  0.00  0.00    +0.000 A 
ATOM      5  C   UNL     1      45.105   4.664   9.111  0.00  0.00    +0.000 A 
ATOM      6  C   UNL     1      45.833   3.920   8.180  0.00  0.00    +0.000 A 
ENDROOT
BRANCH   1   7
ATOM      7  C   UNL     1      46.607   1.727   7.205  0.00  0.00    +0.000 C 
BRANCH   7   8
ATOM      8  N   UNL     1      46.889   0.388   7.702  0.00  0.00    +0.000 NA
ATOM      9  H   UNL     1      46.722   0.365   8.706  0.00  0.00    +0.000 HD
ATOM     10  H   UNL     1      47.880   0.191   7.569  0.00  0.00    +0.000 HD
ENDBRANCH   7   8
ENDBRANCH   1   7
BRANCH   4  11
ATOM     11  O   UNL     1      43.625   4.644  11.067  0.00  0.00    +0.000 OA
BRANCH  11  12
ATOM     12  C   UNL     1      43.475   6.054  10.900  0.00  0.00    +0.000 C 
BRANCH  12  13
ATOM     13  C   UNL     1      44.580   6.766  11.641  0.00  0.00    +0.000 A 
ATOM     14  C   UNL     1      44.717   8.161  11.534  0.00  0.00    +0.000 A 
ATOM     15  C   UNL     1      45.699   8.838  12.263  0.00  0.00    +0.000 A 
ATOM     16  C   UNL     1      46.549   8.126  13.107  0.00  0.00    +0.000 A 
ATOM     17 CL   UNL     1      47.747   8.969  14.009  0.00  0.00    +0.000 Cl
ATOM     18  C   UNL     1      46.415   6.743  13.217  0.00  0.00    +0.000 A 
ATOM     19  F   UNL     1      47.217   6.040  14.031  0.00  0.00    +0.000 F 
ATOM     20  C   UNL     1      45.440   6.062  12.492  0.00  0.00    +0.000 A 
ENDBRANCH  12  13
ENDBRANCH  11  12
ENDBRANCH   4  11
TORSDOF 5
ENDMDL
MODEL 7
REMARK VINA RESULT:    -5.564      5.176      7.656
REMARK INTER + INTRA:          -7.707
REMARK INTER:                  -7.369
REMARK INTRA:                  -0.338
REMARK UNBOUND:                -0.679
REMARK  Name = 
REMARK  5 active torsions:
REMARK  status: ('A' for Active; 'I' for Inactive)
REMARK    1  A    between atoms: N_1  and  C_2
REMARK    2  A    between atoms: C_2  and  C_3
REMARK    3  A    between atoms: C_6  and  O_7
REMARK    4  A    between atoms: O_7  and  C_8
REMARK    5  A    between atoms: C_8  and  C_9
REMARK                            x       y       z     vdW  Elec       q    Type
REMARK                         _______ _______ _______ _____ _____    ______ ____
ROOT
ATOM      1  C   UNL     1      48.628   4.183  18.290  0.00  0.00    +0.000 A 
ATOM      2  C   UNL     1      48.074   5.266  17.592  0.00  0.00    +0.000 A 
ATOM      3  C   UNL     1      47.540   5.088  16.313  0.00  0.00    +0.000 A 
ATOM      4  C   UNL     1      47.563   3.831  15.710  0.00  0.00    +0.000 A 
ATOM      5  C   UNL     1      48.065   2.739  16.417  0.00  0.00    +0.000 A 
ATOM      6  C   UNL     1      48.604   2.916  17.694  0.00  0.00    +0.000 A 
ENDROOT
BRANCH   1   7
ATOM      7  C   UNL     1      49.259   4.374  19.645  0.00  0.00    +0.000 C 
BRANCH   7   8
ATOM      8  N   UNL     1      48.405   3.875  20.714  0.00  0.00    +0.000 NA
ATOM      9  H   UNL     1      48.889   3.983  21.602  0.00  0.00    +0.000 HD
ATOM     10  H   UNL     1      48.265   2.874  20.581  0.00  0.00    +0.000 HD
ENDBRANCH   7   8
ENDBRANCH   1   7
BRANCH   4  11
ATOM     11  O   UNL     1      47.074   3.780  14.430  0.00  0.00    +0.000 OA
BRANCH  11  12
ATOM     12  C   UNL     1      46.123   4.795  14.108  0.00  0.00    +0.000 C 
BRANCH  12  13
ATOM     13  C   UNL     1      45.683   4.630  12.675  0.00  0.00    +0.000 A 
ATOM     14  C   UNL     1      45.968   5.630  11.729  0.00  0.00    +0.000 A 
ATOM     15  C   UNL     1      45.618   5.462  10.387  0.00  0.00    +0.000 A 
ATOM     16  C   UNL     1      44.983   4.291   9.979  0.00  0.00    +0.000 A 
ATOM     17 CL   UNL     1      44.566   4.088   8.322  0.00  0.00    +0.000 Cl
ATOM     18  C   UNL     1      44.700   3.297  10.912  0.00  0.00    +0.000 A 
ATOM     19  F   UNL     1      44.097   2.158  10.538  0.00  0.00    +0.000 F 
ATOM     20  C   UNL     1      45.045   3.458  12.252  0.00  0.00    +0.000 A 
ENDBRANCH  12  13
ENDBRANCH  11  12
ENDBRANCH   4  11
TORSDOF 5
ENDMDL
MODEL 8
REMARK VINA RESULT:    -5.541      3.170      4.427
REMARK INTER + INTRA:          -7.678
REMARK INTER:                  -7.303
REMARK INTRA:                  -0.374
REMARK UNBOUND:                -0.679
REMARK  Name = 
REMARK  5 active torsions:
REMARK  status: ('A' for Active; 'I' for Inactive)
REMARK    1  A    between atoms: N_1  and  C_2
REMARK    2  A    between atoms: C_2  and  C_3
REMARK    3  A    between atoms: C_6  and  O_7
REMARK    4  A    between atoms: O_7  and  C_8
REMARK    5  A    between atoms: C_8  and  C_9
REMARK                            x       y       z     vdW  Elec       q    Type
REMARK                         _______ _______ _______ _____ _____    ______ ____
ROOT
ATOM      1  C   UNL     1      45.055   4.182   9.775  0.00  0.00    +0.000 A 
ATOM      2  C   UNL     1      44.825   3.269  10.816  0.00  0.00    +0.000 A 
ATOM      3  C   UNL     1      45.103   3.618  12.140  0.00  0.00    +0.000 A 
ATOM      4  C   UNL     1      45.625   4.875  12.442  0.00  0.00    +0.000 A 
ATOM      5  C   UNL     1      45.808   5.806  11.419  0.00  0.00    +0.000 A 
ATOM      6  C   UNL     1      45.536   5.457  10.094  0.00  0.00    +0.000 A 
ENDROOT
BRANCH   1   7
ATOM      7  C   UNL     1      44.815   3.796   8.339  0.00  0.00    +0.000 C 
BRANCH   7   8
ATOM      8  N   UNL     1      45.979   4.063   7.506  0.00  0.00    +0.000 NA
ATOM      9  H   UNL     1      45.666   4.342   6.579  0.00  0.00    +0.000 HD
ATOM     10  H   UNL     1      46.502   3.197   7.387  0.00  0.00    +0.000 HD
ENDBRANCH   7   8
ENDBRANCH   1   7
BRANCH   4  11
ATOM     11  O   UNL     1      45.922   5.091  13.762  0.00  0.00    +0.000 OA
BRANCH  11  12
ATOM     12  C   UNL     1      47.274   5.476  14.019  0.00  0.00    +0.000 C 
BRANCH  12  13
ATOM     13  C   UNL     1      47.651   5.069  15.422  0.00  0.00    +0.000 A 
ATOM     14  C   UNL     1      48.474   5.901  16.200  0.00  0.00    +0.000 A 
ATOM     15  C   UNL     1      48.781   5.565  17.521  0.00  0.00    +0.000 A 
ATOM     16  C   UNL     1      48.264   4.395  18.076  0.00  0.00    +0.000 A 
ATOM     17 CL   UNL     1      48.638   3.994  19.706  0.00  0.00    +0.000 Cl
ATOM     18  C   UNL     1      47.446   3.569  17.308  0.00  0.00    +0.000 A 
ATOM     19  F   UNL     1      46.931   2.444  17.826  0.00  0.00    +0.000 F 
ATOM     20  C   UNL     1      47.137   3.898  15.990  0.00  0.00    +0.000 A 
ENDBRANCH  12  13
ENDBRANCH  11  12
ENDBRANCH   4  11
TORSDOF 5
ENDMDL
MODEL 9
REMARK VINA RESULT:    -5.455      4.569      6.212
REMARK INTER + INTRA:          -7.570
REMARK INTER:                  -7.161
REMARK INTRA:                  -0.408
REMARK UNBOUND:                -0.679
REMARK  Name = 
REMARK  5 active torsions:
REMARK  status: ('A' for Active; 'I' for Inactive)
REMARK    1  A    between atoms: N_1  and  C_2
REMARK    2  A    between atoms: C_2  and  C_3
REMARK    3  A    between atoms: C_6  and  O_7
REMARK    4  A    between atoms: O_7  and  C_8
REMARK    5  A    between atoms: C_8  and  C_9
REMARK                            x       y       z     vdW  Elec       q    Type
REMARK                         _______ _______ _______ _____ _____    ______ ____
ROOT
ATOM      1  C   UNL     1      45.213   5.455  12.030  0.00  0.00    +0.000 A 
ATOM      2  C   UNL     1      46.142   6.014  12.920  0.00  0.00    +0.000 A 
ATOM      3  C   UNL     1      46.896   5.195  13.766  0.00  0.00    +0.000 A 
ATOM      4  C   UNL     1      46.724   3.812  13.743  0.00  0.00    +0.000 A 
ATOM      5  C   UNL     1      45.839   3.244  12.826  0.00  0.00    +0.000 A 
ATOM      6  C   UNL     1      45.081   4.062  11.984  0.00  0.00    +0.000 A 
ENDROOT
BRANCH   1   7
ATOM      7  C   UNL     1      44.353   6.330  11.156  0.00  0.00    +0.000 C 
BRANCH   7   8
ATOM      8  N   UNL     1      43.235   5.592  10.585  0.00  0.00    +0.000 NA
ATOM      9  H   UNL     1      42.383   6.134  10.705  0.00  0.00    +0.000 HD
ATOM     10  H   UNL     1      43.107   4.730  11.114  0.00  0.00    +0.000 HD
ENDBRANCH   7   8
ENDBRANCH   1   7
BRANCH   4  11
ATOM     11  O   UNL     1      47.464   3.108  14.657  0.00  0.00    +0.000 OA
BRANCH  11  12
ATOM     12  C   UNL     1      47.421   3.621  15.989  0.00  0.00    +0.000 C 
BRANCH  12  13
ATOM     13  C   UNL     1      48.788   3.501  16.615  0.00  0.00    +0.000 A 
ATOM     14  C   UNL     1      49.412   4.631  17.171  0.00  0.00    +0.000 A 
ATOM     15  C   UNL     1      50.651   4.521  17.808  0.00  0.00    +0.000 A 
ATOM     16  C   UNL     1      51.275   3.278  17.895  0.00  0.00    +0.000 A 
ATOM     17 CL   UNL     1      52.796   3.149  18.690  0.00  0.00    +0.000 Cl
ATOM     18  C   UNL     1      50.660   2.155  17.347  0.00  0.00    +0.000 A 
ATOM     19  F   UNL     1      51.240   0.948  17.429  0.00  0.00    +0.000 F 
ATOM     20  C   UNL     1      49.425   2.258  16.710  0.00  0.00    +0.000 A 
ENDBRANCH  12  13
ENDBRANCH  11  12
ENDBRANCH   4  11
TORSDOF 5
ENDMDL
