MODEL 1
REMARK VINA RESULT:    -8.714      0.000      0.000
REMARK INTER + INTRA:         -12.846
REMARK INTER:                 -11.770
REMARK INTRA:                  -1.076
REMARK UNBOUND:                -1.076
REMARK  Name = 
REMARK  6 active torsions:
REMARK  status: ('A' for Active; 'I' for Inactive)
REMARK    1  A    between atoms: C_2  and  C_3
REMARK    2  A    between atoms: N_7  and  C_8
REMARK    3  A    between atoms: C_8  and  C_9
REMARK    4  A    between atoms: C_9  and  C_12
REMARK    5  A    between atoms: C_16  and  O_17
REMARK    6  A    between atoms: O_17  and  C_18
REMARK                            x       y       z     vdW  Elec       q    Type
REMARK                         _______ _______ _______ _____ _____    ______ ____
ROOT
ATOM      1  C   UNL     1      43.711   4.658  12.400  0.00  0.00    +0.000 C 
ATOM      2  F   UNL     1      42.764   5.521  12.872  0.00  0.00    +0.000 F 
ATOM      3  F   UNL     1      43.535   3.505  13.113  0.00  0.00    +0.000 F 
ENDROOT
BRANCH   1   4
ATOM      4  C   UNL     1      45.117   5.210  12.543  0.00  0.00    +0.000 A 
ATOM      5  C   UNL     1      45.613   6.148  11.625  0.00  0.00    +0.000 A 
ATOM      6  C   UNL     1      46.878   6.711  11.805  0.00  0.00    +0.000 A 
ATOM      7  C   UNL     1      47.667   6.345  12.899  0.00  0.00    +0.000 A 
ATOM      8  C   UNL     1      47.191   5.408  13.812  0.00  0.00    +0.000 A 
ATOM      9  C   UNL     1      45.922   4.847  13.635  0.00  0.00    +0.000 A 
BRANCH   8  10
ATOM     10  O   UNL     1      47.850   4.999  14.943  0.00  0.00    +0.000 OA
BRANCH  10  11
ATOM     11  C   UNL     1      47.227   4.045  15.828  0.00  0.00    +0.000 C 
ATOM     12  C   UNL     1      47.180   4.401  17.336  0.00  0.00    +0.000 C 
ATOM     13  C   UNL     1      47.602   2.955  17.650  0.00  0.00    +0.000 C 
ATOM     14  C   UNL     1      48.151   2.860  16.218  0.00  0.00    +0.000 C 
ENDBRANCH  10  11
ENDBRANCH   8  10
ENDBRANCH   1   4
BRANCH   1  15
ATOM     15  C   UNL     1      43.423   4.369  10.906  0.00  0.00    +0.000 C 
BRANCH  15  20
ATOM     16  C   UNL     1      46.648   2.444   7.397  0.00  0.00    +0.000 A 
ATOM     17  C   UNL     1      46.252   3.748   7.662  0.00  0.00    +0.000 A 
ATOM     18  C   UNL     1      45.336   3.986   8.688  0.00  0.00    +0.000 A 
ATOM     19  C   UNL     1      44.829   2.923   9.430  0.00  0.00    +0.000 A 
ATOM     20  N   UNL     1      43.913   3.077  10.433  0.00  0.00    +0.000 N 
ATOM     21  N   UNL     1      45.213   1.655   9.181  0.00  0.00    +0.000 NA
ATOM     22  C   UNL     1      46.107   1.440   8.183  0.00  0.00    +0.000 A 
ATOM     23  H   UNL     1      43.641   2.223  10.909  0.00  0.00    +0.000 HD
BRANCH  16  25
ATOM     24  N   UNL     1      48.336   1.913   5.510  0.00  0.00    +0.000 NA
ATOM     25  C   UNL     1      47.575   2.147   6.355  0.00  0.00    +0.000 C 
ENDBRANCH  16  25
ENDBRANCH  15  20
ENDBRANCH   1  15
TORSDOF 6
ENDMDL
MODEL 2
REMARK VINA RESULT:    -7.717      1.871      3.788
REMARK INTER + INTRA:         -11.499
REMARK INTER:                 -10.742
REMARK INTRA:                  -0.757
REMARK UNBOUND:                -1.076
REMARK  Name = 
REMARK  6 active torsions:
REMARK  status: ('A' for Active; 'I' for Inactive)
REMARK    1  A    between atoms: C_2  and  C_3
REMARK    2  A    between atoms: N_7  and  C_8
REMARK    3  A    between atoms: C_8  and  C_9
REMARK    4  A    between atoms: C_9  and  C_12
REMARK    5  A    between atoms: C_16  and  O_17
REMARK    6  A    between atoms: O_17  and  C_18
REMARK                            x       y       z     vdW  Elec       q    Type
REMARK                         _______ _______ _______ _____ _____    ______ ____
ROOT
ATOM      1  C   UNL     1      43.400   4.828  12.325  0.00  0.00    +0.000 C 
ATOM      2  F   UNL     1      42.391   5.697  12.630  0.00  0.00    +0.000 F 
ATOM      3  F   UNL     1      43.039   3.642  12.901  0.00  0.00    +0.000 F 
ENDROOT
BRANCH   1   4
ATOM      4  C   UNL     1      44.750   5.316  12.815  0.00  0.00    +0.000 A 
ATOM      5  C   UNL     1      45.745   4.403  13.193  0.00  0.00    +0.000 A 
ATOM      6  C   UNL     1      47.011   4.854  13.570  0.00  0.00    +0.000 A 
ATOM      7  C   UNL     1      47.302   6.222  13.577  0.00  0.00    +0.000 A 
ATOM      8  C   UNL     1      46.320   7.139  13.214  0.00  0.00    +0.000 A 
ATOM      9  C   UNL     1      45.053   6.687  12.833  0.00  0.00    +0.000 A 
BRANCH   8  10
ATOM     10  O   UNL     1      46.495   8.497  13.142  0.00  0.00    +0.000 OA
BRANCH  10  11
ATOM     11  C   UNL     1      46.075   9.210  11.959  0.00  0.00    +0.000 C 
ATOM     12  C   UNL     1      46.742  10.581  11.682  0.00  0.00    +0.000 C 
ATOM     13  C   UNL     1      45.353  11.143  11.335  0.00  0.00    +0.000 C 
ATOM     14  C   UNL     1      44.742   9.985  12.139  0.00  0.00    +0.000 C 
ENDBRANCH  10  11
ENDBRANCH   8  10
ENDBRANCH   1   4
BRANCH   1  15
ATOM     15  C   UNL     1      43.449   4.639  10.788  0.00  0.00    +0.000 C 
BRANCH  15  20
ATOM     16  C   UNL     1      46.650   2.416   7.439  0.00  0.00    +0.000 A 
ATOM     17  C   UNL     1      46.345   3.750   7.668  0.00  0.00    +0.000 A 
ATOM     18  C   UNL     1      45.411   4.075   8.654  0.00  0.00    +0.000 A 
ATOM     19  C   UNL     1      44.796   3.066   9.390  0.00  0.00    +0.000 A 
ATOM     20  N   UNL     1      43.857   3.306  10.354  0.00  0.00    +0.000 N 
ATOM     21  N   UNL     1      45.092   1.769   9.175  0.00  0.00    +0.000 NA
ATOM     22  C   UNL     1      46.005   1.469   8.216  0.00  0.00    +0.000 A 
ATOM     23  H   UNL     1      43.503   2.484  10.831  0.00  0.00    +0.000 HD
BRANCH  16  25
ATOM     24  N   UNL     1      48.363   1.728   5.625  0.00  0.00    +0.000 NA
ATOM     25  C   UNL     1      47.591   2.031   6.438  0.00  0.00    +0.000 C 
ENDBRANCH  16  25
ENDBRANCH  15  20
ENDBRANCH   1  15
TORSDOF 6
ENDMDL
MODEL 3
REMARK VINA RESULT:    -7.607      1.907      3.506
REMARK INTER + INTRA:         -11.351
REMARK INTER:                 -10.502
REMARK INTRA:                  -0.849
REMARK UNBOUND:                -1.076
REMARK  Name = 
REMARK  6 active torsions:
REMARK  status: ('A' for Active; 'I' for Inactive)
REMARK    1  A    between atoms: C_2  and  C_3
REMARK    2  A    between atoms: N_7  and  C_8
REMARK    3  A    between atoms: C_8  and  C_9
REMARK    4  A    between atoms: C_9  and  C_12
REMARK    5  A    between atoms: C_16  and  O_17
REMARK    6  A    between atoms: O_17  and  C_18
REMARK                            x       y       z     vdW  Elec       q    Type
REMARK                         _______ _______ _______ _____ _____    ______ ____
ROOT
ATOM      1  C   UNL     1      43.334   5.267  12.237  0.00  0.00    +0.000 C 
ATOM      2  F   UNL     1      42.686   6.433  11.944  0.00  0.00    +0.000 F 
ATOM      3  F   UNL     1      42.558   4.652  13.180  0.00  0.00    +0.000 F 
ENDROOT
BRANCH   1   4
ATOM      4  C   UNL     1      44.752   5.501  12.725  0.00  0.00    +0.000 A 
ATOM      5  C   UNL     1      45.446   4.493  13.410  0.00  0.00    +0.000 A 
ATOM      6  C   UNL     1      46.775   4.684  13.789  0.00  0.00    +0.000 A 
ATOM      7  C   UNL     1      47.431   5.883  13.492  0.00  0.00    +0.000 A 
ATOM      8  C   UNL     1      46.750   6.896  12.822  0.00  0.00    +0.000 A 
ATOM      9  C   UNL     1      45.419   6.702  12.439  0.00  0.00    +0.000 A 
BRANCH   8  10
ATOM     10  O   UNL     1      47.292   8.095  12.440  0.00  0.00    +0.000 OA
BRANCH  10  11
ATOM     11  C   UNL     1      48.696   8.349  12.664  0.00  0.00    +0.000 C 
ATOM     12  C   UNL     1      49.197   9.801  12.456  0.00  0.00    +0.000 C 
ATOM     13  C   UNL     1      50.413   9.231  11.706  0.00  0.00    +0.000 C 
ATOM     14  C   UNL     1      49.600   7.950  11.466  0.00  0.00    +0.000 C 
ENDBRANCH  10  11
ENDBRANCH   8  10
ENDBRANCH   1   4
BRANCH   1  15
ATOM     15  C   UNL     1      43.368   4.382  10.966  0.00  0.00    +0.000 C 
BRANCH  15  20
ATOM     16  C   UNL     1      46.715   2.670   7.463  0.00  0.00    +0.000 A 
ATOM     17  C   UNL     1      46.033   2.013   8.477  0.00  0.00    +0.000 A 
ATOM     18  C   UNL     1      45.177   2.741   9.305  0.00  0.00    +0.000 A 
ATOM     19  C   UNL     1      45.018   4.111   9.110  0.00  0.00    +0.000 A 
ATOM     20  N   UNL     1      44.216   4.893   9.893  0.00  0.00    +0.000 N 
ATOM     21  N   UNL     1      45.674   4.753   8.123  0.00  0.00    +0.000 NA
ATOM     22  C   UNL     1      46.500   4.030   7.324  0.00  0.00    +0.000 A 
ATOM     23  H   UNL     1      44.172   5.872   9.631  0.00  0.00    +0.000 HD
BRANCH  16  25
ATOM     24  N   UNL     1      48.330   1.395   5.893  0.00  0.00    +0.000 NA
ATOM     25  C   UNL     1      47.608   1.972   6.595  0.00  0.00    +0.000 C 
ENDBRANCH  16  25
ENDBRANCH  15  20
ENDBRANCH   1  15
TORSDOF 6
ENDMDL
MODEL 4
REMARK VINA RESULT:    -7.437      2.543      3.100
REMARK INTER + INTRA:         -11.121
REMARK INTER:                 -10.142
REMARK INTRA:                  -0.980
REMARK UNBOUND:                -1.076
REMARK  Name = 
REMARK  6 active torsions:
REMARK  status: ('A' for Active; 'I' for Inactive)
REMARK    1  A    between atoms: C_2  and  C_3
REMARK    2  A    between atoms: N_7  and  C_8
REMARK    3  A    between atoms: C_8  and  C_9
REMARK    4  A    between atoms: C_9  and  C_12
REMARK    5  A    between atoms: C_16  and  O_17
REMARK    6  A    between atoms: O_17  and  C_18
REMARK                            x       y       z     vdW  Elec       q    Type
REMARK                         _______ _______ _______ _____ _____    ______ ____
ROOT
ATOM      1  C   UNL     1      43.855   5.240  12.151  0.00  0.00    +0.000 C 
ATOM      2  F   UNL     1      42.754   5.271  12.959  0.00  0.00    +0.000 F 
ATOM      3  F   UNL     1      44.662   4.271  12.679  0.00  0.00    +0.000 F 
ENDROOT
BRANCH   1   4
ATOM      4  C   UNL     1      44.551   6.585  12.072  0.00  0.00    +0.000 A 
ATOM      5  C   UNL     1      43.963   7.654  11.380  0.00  0.00    +0.000 A 
ATOM      6  C   UNL     1      44.570   8.911  11.375  0.00  0.00    +0.000 A 
ATOM      7  C   UNL     1      45.773   9.120  12.056  0.00  0.00    +0.000 A 
ATOM      8  C   UNL     1      46.373   8.064  12.738  0.00  0.00    +0.000 A 
ATOM      9  C   UNL     1      45.763   6.806  12.747  0.00  0.00    +0.000 A 
BRANCH   8  10
ATOM     10  O   UNL     1      47.526   8.152  13.474  0.00  0.00    +0.000 OA
BRANCH  10  11
ATOM     11  C   UNL     1      48.717   7.477  13.020  0.00  0.00    +0.000 C 
ATOM     12  C   UNL     1      50.080   8.124  13.378  0.00  0.00    +0.000 C 
ATOM     13  C   UNL     1      50.544   7.847  11.937  0.00  0.00    +0.000 C 
ATOM     14  C   UNL     1      49.065   7.758  11.533  0.00  0.00    +0.000 C 
ENDBRANCH  10  11
ENDBRANCH   8  10
ENDBRANCH   1   4
BRANCH   1  15
ATOM     15  C   UNL     1      43.419   4.803  10.730  0.00  0.00    +0.000 C 
BRANCH  15  20
ATOM     16  C   UNL     1      46.649   2.489   7.471  0.00  0.00    +0.000 A 
ATOM     17  C   UNL     1      46.324   3.827   7.645  0.00  0.00    +0.000 A 
ATOM     18  C   UNL     1      45.387   4.179   8.618  0.00  0.00    +0.000 A 
ATOM     19  C   UNL     1      44.787   3.193   9.397  0.00  0.00    +0.000 A 
ATOM     20  N   UNL     1      43.845   3.459  10.351  0.00  0.00    +0.000 N 
ATOM     21  N   UNL     1      45.102   1.892   9.235  0.00  0.00    +0.000 NA
ATOM     22  C   UNL     1      46.019   1.566   8.288  0.00  0.00    +0.000 A 
ATOM     23  H   UNL     1      43.504   2.652  10.863  0.00  0.00    +0.000 HD
BRANCH  16  25
ATOM     24  N   UNL     1      48.368   1.752   5.683  0.00  0.00    +0.000 NA
ATOM     25  C   UNL     1      47.594   2.077   6.485  0.00  0.00    +0.000 C 
ENDBRANCH  16  25
ENDBRANCH  15  20
ENDBRANCH   1  15
TORSDOF 6
ENDMDL
MODEL 5
REMARK VINA RESULT:    -7.186      3.499      7.924
REMARK INTER + INTRA:         -10.783
REMARK INTER:                 -10.257
REMARK INTRA:                  -0.526
REMARK UNBOUND:                -1.076
REMARK  Name = 
REMARK  6 active torsions:
REMARK  status: ('A' for Active; 'I' for Inactive)
REMARK    1  A    between atoms: C_2  and  C_3
REMARK    2  A    between atoms: N_7  and  C_8
REMARK    3  A    between atoms: C_8  and  C_9
REMARK    4  A    between atoms: C_9  and  C_12
REMARK    5  A    between atoms: C_16  and  O_17
REMARK    6  A    between atoms: O_17  and  C_18
REMARK                            x       y       z     vdW  Elec       q    Type
REMARK                         _______ _______ _______ _____ _____    ______ ____
ROOT
ATOM      1  C   UNL     1      45.799   6.225  12.145  0.00  0.00    +0.000 C 
ATOM      2  F   UNL     1      44.876   6.609  13.074  0.00  0.00    +0.000 F 
ATOM      3  F   UNL     1      46.113   7.364  11.457  0.00  0.00    +0.000 F 
ENDROOT
BRANCH   1   4
ATOM      4  C   UNL     1      45.279   5.130  11.232  0.00  0.00    +0.000 A 
ATOM      5  C   UNL     1      44.376   4.170  11.711  0.00  0.00    +0.000 A 
ATOM      6  C   UNL     1      43.840   3.212  10.849  0.00  0.00    +0.000 A 
ATOM      7  C   UNL     1      44.199   3.196   9.498  0.00  0.00    +0.000 A 
ATOM      8  C   UNL     1      45.102   4.137   9.011  0.00  0.00    +0.000 A 
ATOM      9  C   UNL     1      45.635   5.099   9.874  0.00  0.00    +0.000 A 
BRANCH   8  10
ATOM     10  O   UNL     1      45.499   4.250   7.703  0.00  0.00    +0.000 OA
BRANCH  10  11
ATOM     11  C   UNL     1      46.715   3.606   7.268  0.00  0.00    +0.000 C 
ATOM     12  C   UNL     1      46.799   3.180   5.780  0.00  0.00    +0.000 C 
ATOM     13  C   UNL     1      47.401   1.841   6.238  0.00  0.00    +0.000 C 
ATOM     14  C   UNL     1      46.782   2.096   7.621  0.00  0.00    +0.000 C 
ENDBRANCH  10  11
ENDBRANCH   8  10
ENDBRANCH   1   4
BRANCH   1  15
ATOM     15  C   UNL     1      47.067   5.721  12.878  0.00  0.00    +0.000 C 
BRANCH  15  20
ATOM     16  C   UNL     1      48.191   4.638  17.775  0.00  0.00    +0.000 A 
ATOM     17  C   UNL     1      48.588   5.683  16.952  0.00  0.00    +0.000 A 
ATOM     18  C   UNL     1      48.130   5.724  15.634  0.00  0.00    +0.000 A 
ATOM     19  C   UNL     1      47.288   4.722  15.158  0.00  0.00    +0.000 A 
ATOM     20  N   UNL     1      46.819   4.683  13.875  0.00  0.00    +0.000 N 
ATOM     21  N   UNL     1      46.895   3.708  15.954  0.00  0.00    +0.000 NA
ATOM     22  C   UNL     1      47.346   3.684  17.234  0.00  0.00    +0.000 A 
ATOM     23  H   UNL     1      46.196   3.911  13.663  0.00  0.00    +0.000 HD
BRANCH  16  25
ATOM     24  N   UNL     1      49.000   4.461  20.226  0.00  0.00    +0.000 NA
ATOM     25  C   UNL     1      48.638   4.547  19.127  0.00  0.00    +0.000 C 
ENDBRANCH  16  25
ENDBRANCH  15  20
ENDBRANCH   1  15
TORSDOF 6
ENDMDL
MODEL 6
REMARK VINA RESULT:    -7.036      3.375      7.361
REMARK INTER + INTRA:         -10.580
REMARK INTER:                  -9.692
REMARK INTRA:                  -0.887
REMARK UNBOUND:                -1.076
REMARK  Name = 
REMARK  6 active torsions:
REMARK  status: ('A' for Active; 'I' for Inactive)
REMARK    1  A    between atoms: C_2  and  C_3
REMARK    2  A    between atoms: N_7  and  C_8
REMARK    3  A    between atoms: C_8  and  C_9
REMARK    4  A    between atoms: C_9  and  C_12
REMARK    5  A    between atoms: C_16  and  O_17
REMARK    6  A    between atoms: O_17  and  C_18
REMARK                            x       y       z     vdW  Elec       q    Type
REMARK                         _______ _______ _______ _____ _____    ______ ____
ROOT
ATOM      1  C   UNL     1      45.377   6.731  11.887  0.00  0.00    +0.000 C 
ATOM      2  F   UNL     1      45.015   7.232  13.105  0.00  0.00    +0.000 F 
ATOM      3  F   UNL     1      44.951   7.656  10.976  0.00  0.00    +0.000 F 
ENDROOT
BRANCH   1   4
ATOM      4  C   UNL     1      44.784   5.358  11.629  0.00  0.00    +0.000 A 
ATOM      5  C   UNL     1      43.987   4.731  12.597  0.00  0.00    +0.000 A 
ATOM      6  C   UNL     1      43.380   3.503  12.325  0.00  0.00    +0.000 A 
ATOM      7  C   UNL     1      43.562   2.883  11.086  0.00  0.00    +0.000 A 
ATOM      8  C   UNL     1      44.359   3.490  10.119  0.00  0.00    +0.000 A 
ATOM      9  C   UNL     1      44.963   4.721  10.390  0.00  0.00    +0.000 A 
BRANCH   8  10
ATOM     10  O   UNL     1      44.579   3.003   8.856  0.00  0.00    +0.000 OA
BRANCH  10  11
ATOM     11  C   UNL     1      45.929   2.903   8.355  0.00  0.00    +0.000 C 
ATOM     12  C   UNL     1      46.159   3.250   6.861  0.00  0.00    +0.000 C 
ATOM     13  C   UNL     1      47.059   2.007   6.752  0.00  0.00    +0.000 C 
ATOM     14  C   UNL     1      46.356   1.453   8.001  0.00  0.00    +0.000 C 
ENDBRANCH  10  11
ENDBRANCH   8  10
ENDBRANCH   1   4
BRANCH   1  15
ATOM     15  C   UNL     1      46.922   6.642  11.822  0.00  0.00    +0.000 C 
BRANCH  15  20
ATOM     16  C   UNL     1      48.053   4.669  16.431  0.00  0.00    +0.000 A 
ATOM     17  C   UNL     1      47.313   4.161  15.372  0.00  0.00    +0.000 A 
ATOM     18  C   UNL     1      47.155   4.933  14.220  0.00  0.00    +0.000 A 
ATOM     19  C   UNL     1      47.734   6.197  14.143  0.00  0.00    +0.000 A 
ATOM     20  N   UNL     1      47.603   7.018  13.058  0.00  0.00    +0.000 N 
ATOM     21  N   UNL     1      48.458   6.693  15.166  0.00  0.00    +0.000 NA
ATOM     22  C   UNL     1      48.607   5.929  16.278  0.00  0.00    +0.000 A 
ATOM     23  H   UNL     1      48.093   7.904  13.122  0.00  0.00    +0.000 HD
BRANCH  16  25
ATOM     24  N   UNL     1      48.382   3.308  18.607  0.00  0.00    +0.000 NA
ATOM     25  C   UNL     1      48.238   3.923  17.633  0.00  0.00    +0.000 C 
ENDBRANCH  16  25
ENDBRANCH  15  20
ENDBRANCH   1  15
TORSDOF 6
ENDMDL
MODEL 7
REMARK VINA RESULT:    -6.540      3.809      7.708
REMARK INTER + INTRA:          -9.909
REMARK INTER:                  -9.025
REMARK INTRA:                  -0.884
REMARK UNBOUND:                -1.076
REMARK  Name = 
REMARK  6 active torsions:
REMARK  status: ('A' for Active; 'I' for Inactive)
REMARK    1  A    between atoms: C_2  and  C_3
REMARK    2  A    between atoms: N_7  and  C_8
REMARK    3  A    between atoms: C_8  and  C_9
REMARK    4  A    between atoms: C_9  and  C_12
REMARK    5  A    between atoms: C_16  and  O_17
REMARK    6  A    between atoms: O_17  and  C_18
REMARK                            x       y       z     vdW  Elec       q    Type
REMARK                         _______ _______ _______ _____ _____    ______ ____
ROOT
ATOM      1  C   UNL     1      44.828   6.409  11.788  0.00  0.00    +0.000 C 
ATOM      2  F   UNL     1      44.531   6.604  13.106  0.00  0.00    +0.000 F 
ATOM      3  F   UNL     1      44.076   7.328  11.110  0.00  0.00    +0.000 F 
ENDROOT
BRANCH   1   4
ATOM      4  C   UNL     1      44.541   4.990  11.335  0.00  0.00    +0.000 A 
ATOM      5  C   UNL     1      43.878   4.091  12.182  0.00  0.00    +0.000 A 
ATOM      6  C   UNL     1      43.548   2.811  11.733  0.00  0.00    +0.000 A 
ATOM      7  C   UNL     1      43.877   2.408  10.435  0.00  0.00    +0.000 A 
ATOM      8  C   UNL     1      44.546   3.287   9.588  0.00  0.00    +0.000 A 
ATOM      9  C   UNL     1      44.872   4.571  10.036  0.00  0.00    +0.000 A 
BRANCH   8  10
ATOM     10  O   UNL     1      44.885   3.026   8.285  0.00  0.00    +0.000 OA
BRANCH  10  11
ATOM     11  C   UNL     1      46.277   2.971   7.907  0.00  0.00    +0.000 C 
ATOM     12  C   UNL     1      46.625   3.296   6.432  0.00  0.00    +0.000 C 
ATOM     13  C   UNL     1      47.579   2.090   6.433  0.00  0.00    +0.000 C 
ATOM     14  C   UNL     1      46.790   1.532   7.627  0.00  0.00    +0.000 C 
ENDBRANCH  10  11
ENDBRANCH   8  10
ENDBRANCH   1   4
BRANCH   1  15
ATOM     15  C   UNL     1      46.326   6.728  11.560  0.00  0.00    +0.000 C 
BRANCH  15  20
ATOM     16  C   UNL     1      48.918   8.157  15.762  0.00  0.00    +0.000 A 
ATOM     17  C   UNL     1      48.137   8.884  14.875  0.00  0.00    +0.000 A 
ATOM     18  C   UNL     1      47.548   8.230  13.791  0.00  0.00    +0.000 A 
ATOM     19  C   UNL     1      47.750   6.864  13.609  0.00  0.00    +0.000 A 
ATOM     20  N   UNL     1      47.226   6.161  12.561  0.00  0.00    +0.000 N 
ATOM     21  N   UNL     1      48.503   6.152  14.471  0.00  0.00    +0.000 NA
ATOM     22  C   UNL     1      49.066   6.802  15.521  0.00  0.00    +0.000 A 
ATOM     23  H   UNL     1      47.431   5.167  12.557  0.00  0.00    +0.000 HD
BRANCH  16  25
ATOM     24  N   UNL     1      50.060   9.278  17.795  0.00  0.00    +0.000 NA
ATOM     25  C   UNL     1      49.547   8.781  16.880  0.00  0.00    +0.000 C 
ENDBRANCH  16  25
ENDBRANCH  15  20
ENDBRANCH   1  15
TORSDOF 6
ENDMDL
MODEL 8
REMARK VINA RESULT:    -6.475      4.271      7.401
REMARK INTER + INTRA:          -9.822
REMARK INTER:                  -9.139
REMARK INTRA:                  -0.683
REMARK UNBOUND:                -1.076
REMARK  Name = 
REMARK  6 active torsions:
REMARK  status: ('A' for Active; 'I' for Inactive)
REMARK    1  A    between atoms: C_2  and  C_3
REMARK    2  A    between atoms: N_7  and  C_8
REMARK    3  A    between atoms: C_8  and  C_9
REMARK    4  A    between atoms: C_9  and  C_12
REMARK    5  A    between atoms: C_16  and  O_17
REMARK    6  A    between atoms: O_17  and  C_18
REMARK                            x       y       z     vdW  Elec       q    Type
REMARK                         _______ _______ _______ _____ _____    ______ ____
ROOT
ATOM      1  C   UNL     1      45.380   6.551  11.867  0.00  0.00    +0.000 C 
ATOM      2  F   UNL     1      44.802   6.611  13.103  0.00  0.00    +0.000 F 
ATOM      3  F   UNL     1      44.925   7.656  11.203  0.00  0.00    +0.000 F 
ENDROOT
BRANCH   1   4
ATOM      4  C   UNL     1      45.044   5.265  11.135  0.00  0.00    +0.000 A 
ATOM      5  C   UNL     1      44.360   4.230  11.788  0.00  0.00    +0.000 A 
ATOM      6  C   UNL     1      43.986   3.081  11.089  0.00  0.00    +0.000 A 
ATOM      7  C   UNL     1      44.290   2.946   9.732  0.00  0.00    +0.000 A 
ATOM      8  C   UNL     1      44.979   3.962   9.074  0.00  0.00    +0.000 A 
ATOM      9  C   UNL     1      45.350   5.115   9.773  0.00  0.00    +0.000 A 
BRANCH   8  10
ATOM     10  O   UNL     1      45.298   3.967   7.741  0.00  0.00    +0.000 OA
BRANCH  10  11
ATOM     11  C   UNL     1      46.613   3.546   7.320  0.00  0.00    +0.000 C 
ATOM     12  C   UNL     1      46.836   3.328   5.801  0.00  0.00    +0.000 C 
ATOM     13  C   UNL     1      47.590   2.030   6.139  0.00  0.00    +0.000 C 
ATOM     14  C   UNL     1      46.867   2.025   7.495  0.00  0.00    +0.000 C 
ENDBRANCH  10  11
ENDBRANCH   8  10
ENDBRANCH   1   4
BRANCH   1  15
ATOM     15  C   UNL     1      46.916   6.665  12.028  0.00  0.00    +0.000 C 
BRANCH  15  20
ATOM     16  C   UNL     1      51.270   9.251  11.154  0.00  0.00    +0.000 A 
ATOM     17  C   UNL     1      50.991   7.891  11.135  0.00  0.00    +0.000 A 
ATOM     18  C   UNL     1      49.698   7.457  11.428  0.00  0.00    +0.000 A 
ATOM     19  C   UNL     1      48.705   8.384  11.737  0.00  0.00    +0.000 A 
ATOM     20  N   UNL     1      47.423   8.034  12.056  0.00  0.00    +0.000 N 
ATOM     21  N   UNL     1      48.969   9.706  11.752  0.00  0.00    +0.000 NA
ATOM     22  C   UNL     1      50.231  10.113  11.461  0.00  0.00    +0.000 A 
ATOM     23  H   UNL     1      46.794   8.807  12.239  0.00  0.00    +0.000 HD
BRANCH  16  25
ATOM     24  N   UNL     1      53.640  10.146  10.628  0.00  0.00    +0.000 NA
ATOM     25  C   UNL     1      52.578   9.744  10.870  0.00  0.00    +0.000 C 
ENDBRANCH  16  25
ENDBRANCH  15  20
ENDBRANCH   1  15
TORSDOF 6
ENDMDL
MODEL 9
REMARK VINA RESULT:    -6.004      3.169      4.762
REMARK INTER + INTRA:          -9.186
REMARK INTER:                  -8.125
REMARK INTRA:                  -1.061
REMARK UNBOUND:                -1.076
REMARK  Name = 
REMARK  6 active torsions:
REMARK  status: ('A' for Active; 'I' for Inactive)
REMARK    1  A    between atoms: C_2  and  C_3
REMARK    2  A    between atoms: N_7  and  C_8
REMARK    3  A    between atoms: C_8  and  C_9
REMARK    4  A    between atoms: C_9  and  C_12
REMARK    5  A    between atoms: C_16  and  O_17
REMARK    6  A    between atoms: O_17  and  C_18
REMARK                            x       y       z     vdW  Elec       q    Type
REMARK                         _______ _______ _______ _____ _____    ______ ____
ROOT
ATOM      1  C   UNL     1      48.196   8.570  13.098  0.00  0.00    +0.000 C 
ATOM      2  F   UNL     1      48.712   7.650  12.230  0.00  0.00    +0.000 F 
ATOM      3  F   UNL     1      48.744   9.765  12.723  0.00  0.00    +0.000 F 
ENDROOT
BRANCH   1   4
ATOM      4  C   UNL     1      48.499   8.231  14.545  0.00  0.00    +0.000 A 
ATOM      5  C   UNL     1      48.294   9.179  15.558  0.00  0.00    +0.000 A 
ATOM      6  C   UNL     1      48.500   8.838  16.896  0.00  0.00    +0.000 A 
ATOM      7  C   UNL     1      48.915   7.549  17.243  0.00  0.00    +0.000 A 
ATOM      8  C   UNL     1      49.133   6.602  16.246  0.00  0.00    +0.000 A 
ATOM      9  C   UNL     1      48.922   6.942  14.906  0.00  0.00    +0.000 A 
BRANCH   8  10
ATOM     10  O   UNL     1      49.500   5.298  16.460  0.00  0.00    +0.000 OA
BRANCH  10  11
ATOM     11  C   UNL     1      48.776   4.501  17.422  0.00  0.00    +0.000 C 
ATOM     12  C   UNL     1      48.936   2.961  17.330  0.00  0.00    +0.000 C 
ATOM     13  C   UNL     1      47.416   2.832  17.530  0.00  0.00    +0.000 C 
ATOM     14  C   UNL     1      47.283   4.288  17.057  0.00  0.00    +0.000 C 
ENDBRANCH  10  11
ENDBRANCH   8  10
ENDBRANCH   1   4
BRANCH   1  15
ATOM     15  C   UNL     1      46.662   8.641  12.897  0.00  0.00    +0.000 C 
BRANCH  15  20
ATOM     16  C   UNL     1      44.865   4.228  10.971  0.00  0.00    +0.000 A 
ATOM     17  C   UNL     1      45.496   5.305  10.363  0.00  0.00    +0.000 A 
ATOM     18  C   UNL     1      45.875   6.400  11.141  0.00  0.00    +0.000 A 
ATOM     19  C   UNL     1      45.617   6.405  12.510  0.00  0.00    +0.000 A 
ATOM     20  N   UNL     1      45.938   7.450  13.330  0.00  0.00    +0.000 N 
ATOM     21  N   UNL     1      45.010   5.360  13.106  0.00  0.00    +0.000 NA
ATOM     22  C   UNL     1      44.651   4.300  12.337  0.00  0.00    +0.000 A 
ATOM     23  H   UNL     1      45.715   7.317  14.311  0.00  0.00    +0.000 HD
BRANCH  16  25
ATOM     24  N   UNL     1      44.104   2.166   9.605  0.00  0.00    +0.000 NA
ATOM     25  C   UNL     1      44.451   3.089  10.218  0.00  0.00    +0.000 C 
ENDBRANCH  16  25
ENDBRANCH  15  20
ENDBRANCH   1  15
TORSDOF 6
ENDMDL
