MODEL 1
REMARK VINA RESULT:    -9.705      0.000      0.000
REMARK INTER + INTRA:         -14.377
REMARK INTER:                 -13.110
REMARK INTRA:                  -1.267
REMARK UNBOUND:                -1.267
REMARK  Name = 
REMARK  6 active torsions:
REMARK  status: ('A' for Active; 'I' for Inactive)
REMARK    1  A    between atoms: C_2  and  C_4
REMARK    2  A    between atoms: N_8  and  C_9
REMARK    3  A    between atoms: C_9  and  C_10
REMARK    4  A    between atoms: C_10  and  C_13
REMARK    5  A    between atoms: C_15  and  C_16
REMARK    6  A    between atoms: C_23  and  C_24
REMARK                            x       y       z     vdW  Elec       q    Type
REMARK                         _______ _______ _______ _____ _____    ______ ____
ROOT
ATOM      1  C   UNL     1      43.443   5.458  12.194  0.00  0.00    +0.000 C 
ATOM      2  F   UNL     1      42.923   6.665  11.810  0.00  0.00    +0.000 F 
ATOM      3  F   UNL     1      42.632   5.038  13.214  0.00  0.00    +0.000 F 
ENDROOT
BRANCH   1   4
ATOM      4  C   UNL     1      44.889   5.570  12.646  0.00  0.00    +0.000 A 
ATOM      5  C   UNL     1      45.721   6.517  12.026  0.00  0.00    +0.000 A 
ATOM      6  C   UNL     1      47.045   6.700  12.433  0.00  0.00    +0.000 A 
ATOM      7  C   UNL     1      47.543   5.913  13.482  0.00  0.00    +0.000 A 
ATOM      8  C   UNL     1      46.736   4.968  14.130  0.00  0.00    +0.000 A 
ATOM      9  C   UNL     1      45.410   4.791  13.692  0.00  0.00    +0.000 A 
BRANCH   6  10
ATOM     10  C   UNL     1      47.897   7.767  11.770  0.00  0.00    +0.000 C 
ATOM     11  C   UNL     1      49.394   7.546  12.042  0.00  0.00    +0.000 C 
ATOM     12  C   UNL     1      50.245   8.657  11.433  0.00  0.00    +0.000 C 
ATOM     13  C   UNL     1      49.783  10.034  11.902  0.00  0.00    +0.000 C 
ATOM     14  C   UNL     1      48.309  10.264  11.590  0.00  0.00    +0.000 C 
ATOM     15  C   UNL     1      47.436   9.172  12.198  0.00  0.00    +0.000 C 
ENDBRANCH   6  10
BRANCH   8  16
ATOM     16  C   UNL     1      47.276   4.191  15.308  0.00  0.00    +0.000 C 
ATOM     17  F   UNL     1      47.671   2.925  14.992  0.00  0.00    +0.000 F 
ATOM     18  F   UNL     1      48.369   4.789  15.861  0.00  0.00    +0.000 F 
ATOM     19  F   UNL     1      46.371   4.058  16.316  0.00  0.00    +0.000 F 
ENDBRANCH   8  16
ENDBRANCH   1   4
BRANCH   1  20
ATOM     20  C   UNL     1      43.301   4.471  11.003  0.00  0.00    +0.000 C 
BRANCH  20  25
ATOM     21  C   UNL     1      46.338   2.056   7.857  0.00  0.00    +0.000 A 
ATOM     22  C   UNL     1      46.366   3.374   7.414  0.00  0.00    +0.000 A 
ATOM     23  C   UNL     1      45.600   4.331   8.085  0.00  0.00    +0.000 A 
ATOM     24  C   UNL     1      44.829   3.959   9.189  0.00  0.00    +0.000 A 
ATOM     25  N   UNL     1      44.023   4.928   9.795  0.00  0.00    +0.000 N 
ATOM     26  N   UNL     1      44.783   2.678   9.608  0.00  0.00    +0.000 NA
ATOM     27  C   UNL     1      45.523   1.757   8.937  0.00  0.00    +0.000 A 
ATOM     28  H   UNL     1      44.529   5.796   9.947  0.00  0.00    +0.000 HD
BRANCH  21  30
ATOM     29  N   UNL     1      46.811  -0.312   7.592  0.00  0.00    +0.000 N 
ATOM     30  C   UNL     1      47.105   0.969   7.215  0.00  0.00    +0.000 C 
ATOM     31  O   UNL     1      47.943   1.200   6.349  0.00  0.00    +0.000 OA
ATOM     32  H   UNL     1      47.269  -1.053   7.074  0.00  0.00    +0.000 HD
ATOM     33  H   UNL     1      45.974  -0.551   8.104  0.00  0.00    +0.000 HD
ENDBRANCH  21  30
ENDBRANCH  20  25
ENDBRANCH   1  20
TORSDOF 6
ENDMDL
MODEL 2
REMARK VINA RESULT:    -8.858      2.185      4.236
REMARK INTER + INTRA:         -13.232
REMARK INTER:                 -11.840
REMARK INTRA:                  -1.392
REMARK UNBOUND:                -1.267
REMARK  Name = 
REMARK  6 active torsions:
REMARK  status: ('A' for Active; 'I' for Inactive)
REMARK    1  A    between atoms: C_2  and  C_4
REMARK    2  A    between atoms: N_8  and  C_9
REMARK    3  A    between atoms: C_9  and  C_10
REMARK    4  A    between atoms: C_10  and  C_13
REMARK    5  A    between atoms: C_15  and  C_16
REMARK    6  A    between atoms: C_23  and  C_24
REMARK                            x       y       z     vdW  Elec       q    Type
REMARK                         _______ _______ _______ _____ _____    ______ ____
ROOT
ATOM      1  C   UNL     1      43.688   4.623  12.552  0.00  0.00    +0.000 C 
ATOM      2  F   UNL     1      42.683   5.491  12.885  0.00  0.00    +0.000 F 
ATOM      3  F   UNL     1      43.360   3.452  13.180  0.00  0.00    +0.000 F 
ENDROOT
BRANCH   1   4
ATOM      4  C   UNL     1      45.053   5.126  12.992  0.00  0.00    +0.000 A 
ATOM      5  C   UNL     1      45.598   4.643  14.192  0.00  0.00    +0.000 A 
ATOM      6  C   UNL     1      46.870   5.031  14.622  0.00  0.00    +0.000 A 
ATOM      7  C   UNL     1      47.606   5.924  13.831  0.00  0.00    +0.000 A 
ATOM      8  C   UNL     1      47.096   6.415  12.621  0.00  0.00    +0.000 A 
ATOM      9  C   UNL     1      45.806   6.023  12.216  0.00  0.00    +0.000 A 
BRANCH   6  10
ATOM     10  C   UNL     1      47.443   4.449  15.902  0.00  0.00    +0.000 C 
ATOM     11  C   UNL     1      48.499   5.378  16.523  0.00  0.00    +0.000 C 
ATOM     12  C   UNL     1      49.124   4.761  17.771  0.00  0.00    +0.000 C 
ATOM     13  C   UNL     1      49.692   3.375  17.484  0.00  0.00    +0.000 C 
ATOM     14  C   UNL     1      48.629   2.445  16.909  0.00  0.00    +0.000 C 
ATOM     15  C   UNL     1      47.997   3.035  15.653  0.00  0.00    +0.000 C 
ENDBRANCH   6  10
BRANCH   8  16
ATOM     16  C   UNL     1      47.943   7.315  11.752  0.00  0.00    +0.000 C 
ATOM     17  F   UNL     1      47.582   8.628  11.809  0.00  0.00    +0.000 F 
ATOM     18  F   UNL     1      49.259   7.281  12.104  0.00  0.00    +0.000 F 
ATOM     19  F   UNL     1      47.899   6.974  10.434  0.00  0.00    +0.000 F 
ENDBRANCH   8  16
ENDBRANCH   1   4
BRANCH   1  20
ATOM     20  C   UNL     1      43.641   4.397  11.016  0.00  0.00    +0.000 C 
BRANCH  20  25
ATOM     21  C   UNL     1      46.512   2.724   7.286  0.00  0.00    +0.000 A 
ATOM     22  C   UNL     1      46.036   1.568   7.895  0.00  0.00    +0.000 A 
ATOM     23  C   UNL     1      45.192   1.684   9.004  0.00  0.00    +0.000 A 
ATOM     24  C   UNL     1      44.832   2.947   9.477  0.00  0.00    +0.000 A 
ATOM     25  N   UNL     1      44.042   3.027  10.629  0.00  0.00    +0.000 N 
ATOM     26  N   UNL     1      45.309   4.070   8.902  0.00  0.00    +0.000 NA
ATOM     27  C   UNL     1      46.139   3.941   7.834  0.00  0.00    +0.000 A 
ATOM     28  H   UNL     1      43.254   2.386  10.588  0.00  0.00    +0.000 HD
BRANCH  21  30
ATOM     29  N   UNL     1      48.726   2.410   6.339  0.00  0.00    +0.000 N 
ATOM     30  C   UNL     1      47.411   2.711   6.115  0.00  0.00    +0.000 C 
ATOM     31  O   UNL     1      46.991   2.920   4.981  0.00  0.00    +0.000 OA
ATOM     32  H   UNL     1      49.312   2.303   5.520  0.00  0.00    +0.000 HD
ATOM     33  H   UNL     1      49.051   1.994   7.201  0.00  0.00    +0.000 HD
ENDBRANCH  21  30
ENDBRANCH  20  25
ENDBRANCH   1  20
TORSDOF 6
ENDMDL
MODEL 3
REMARK VINA RESULT:    -7.466      3.989      7.488
REMARK INTER + INTRA:         -11.352
REMARK INTER:                 -10.518
REMARK INTRA:                  -0.834
REMARK UNBOUND:                -1.267
REMARK  Name = 
REMARK  6 active torsions:
REMARK  status: ('A' for Active; 'I' for Inactive)
REMARK    1  A    between atoms: C_2  and  C_4
REMARK    2  A    between atoms: N_8  and  C_9
REMARK    3  A    between atoms: C_9  and  C_10
REMARK    4  A    between atoms: C_10  and  C_13
REMARK    5  A    between atoms: C_15  and  C_16
REMARK    6  A    between atoms: C_23  and  C_24
REMARK                            x       y       z     vdW  Elec       q    Type
REMARK                         _______ _______ _______ _____ _____    ______ ____
ROOT
ATOM      1  C   UNL     1      47.334   7.165  11.632  0.00  0.00    +0.000 C 
ATOM      2  F   UNL     1      46.930   8.426  11.980  0.00  0.00    +0.000 F 
ATOM      3  F   UNL     1      48.243   7.356  10.626  0.00  0.00    +0.000 F 
ENDROOT
BRANCH   1   4
ATOM      4  C   UNL     1      46.176   6.295  11.176  0.00  0.00    +0.000 A 
ATOM      5  C   UNL     1      46.343   5.486  10.040  0.00  0.00    +0.000 A 
ATOM      6  C   UNL     1      45.330   4.627   9.603  0.00  0.00    +0.000 A 
ATOM      7  C   UNL     1      44.126   4.584  10.321  0.00  0.00    +0.000 A 
ATOM      8  C   UNL     1      43.932   5.369  11.466  0.00  0.00    +0.000 A 
ATOM      9  C   UNL     1      44.960   6.238  11.878  0.00  0.00    +0.000 A 
BRANCH   6  10
ATOM     10  C   UNL     1      45.567   3.733   8.400  0.00  0.00    +0.000 C 
ATOM     11  C   UNL     1      45.841   2.279   8.819  0.00  0.00    +0.000 C 
ATOM     12  C   UNL     1      46.147   1.396   7.614  0.00  0.00    +0.000 C 
ATOM     13  C   UNL     1      47.290   1.966   6.780  0.00  0.00    +0.000 C 
ATOM     14  C   UNL     1      46.994   3.393   6.330  0.00  0.00    +0.000 C 
ATOM     15  C   UNL     1      46.695   4.299   7.519  0.00  0.00    +0.000 C 
ENDBRANCH   6  10
BRANCH   8  16
ATOM     16  C   UNL     1      42.655   5.243  12.263  0.00  0.00    +0.000 C 
ATOM     17  F   UNL     1      42.781   5.634  13.563  0.00  0.00    +0.000 F 
ATOM     18  F   UNL     1      41.648   6.004  11.747  0.00  0.00    +0.000 F 
ATOM     19  F   UNL     1      42.178   3.968  12.303  0.00  0.00    +0.000 F 
ENDBRANCH   8  16
ENDBRANCH   1   4
BRANCH   1  20
ATOM     20  C   UNL     1      48.062   6.539  12.852  0.00  0.00    +0.000 C 
BRANCH  20  25
ATOM     21  C   UNL     1      48.336   4.563  17.432  0.00  0.00    +0.000 A 
ATOM     22  C   UNL     1      47.353   3.813  16.795  0.00  0.00    +0.000 A 
ATOM     23  C   UNL     1      47.018   4.119  15.473  0.00  0.00    +0.000 A 
ATOM     24  C   UNL     1      47.673   5.158  14.810  0.00  0.00    +0.000 A 
ATOM     25  N   UNL     1      47.265   5.481  13.511  0.00  0.00    +0.000 N 
ATOM     26  N   UNL     1      48.611   5.901  15.431  0.00  0.00    +0.000 NA
ATOM     27  C   UNL     1      48.917   5.600  16.720  0.00  0.00    +0.000 A 
ATOM     28  H   UNL     1      47.162   4.652  12.932  0.00  0.00    +0.000 HD
BRANCH  21  30
ATOM     29  N   UNL     1      48.242   3.229  19.460  0.00  0.00    +0.000 N 
ATOM     30  C   UNL     1      48.760   4.325  18.826  0.00  0.00    +0.000 C 
ATOM     31  O   UNL     1      49.574   5.055  19.383  0.00  0.00    +0.000 OA
ATOM     32  H   UNL     1      48.616   3.017  20.377  0.00  0.00    +0.000 HD
ATOM     33  H   UNL     1      47.777   2.482  18.963  0.00  0.00    +0.000 HD
ENDBRANCH  21  30
ENDBRANCH  20  25
ENDBRANCH   1  20
TORSDOF 6
ENDMDL
MODEL 4
REMARK VINA RESULT:    -7.336      4.287      7.849
REMARK INTER + INTRA:         -11.176
REMARK INTER:                  -9.801
REMARK INTRA:                  -1.375
REMARK UNBOUND:                -1.267
REMARK  Name = 
REMARK  6 active torsions:
REMARK  status: ('A' for Active; 'I' for Inactive)
REMARK    1  A    between atoms: C_2  and  C_4
REMARK    2  A    between atoms: N_8  and  C_9
REMARK    3  A    between atoms: C_9  and  C_10
REMARK    4  A    between atoms: C_10  and  C_13
REMARK    5  A    between atoms: C_15  and  C_16
REMARK    6  A    between atoms: C_23  and  C_24
REMARK                            x       y       z     vdW  Elec       q    Type
REMARK                         _______ _______ _______ _____ _____    ______ ____
ROOT
ATOM      1  C   UNL     1      48.126   8.951  13.362  0.00  0.00    +0.000 C 
ATOM      2  F   UNL     1      47.857   9.387  14.631  0.00  0.00    +0.000 F 
ATOM      3  F   UNL     1      48.710  10.022  12.741  0.00  0.00    +0.000 F 
ENDROOT
BRANCH   1   4
ATOM      4  C   UNL     1      46.875   8.498  12.629  0.00  0.00    +0.000 A 
ATOM      5  C   UNL     1      46.615   7.123  12.519  0.00  0.00    +0.000 A 
ATOM      6  C   UNL     1      45.454   6.649  11.900  0.00  0.00    +0.000 A 
ATOM      7  C   UNL     1      44.541   7.577  11.380  0.00  0.00    +0.000 A 
ATOM      8  C   UNL     1      44.764   8.956  11.485  0.00  0.00    +0.000 A 
ATOM      9  C   UNL     1      45.948   9.410  12.098  0.00  0.00    +0.000 A 
BRANCH   6  10
ATOM     10  C   UNL     1      45.187   5.156  11.844  0.00  0.00    +0.000 C 
ATOM     11  C   UNL     1      44.834   4.697  10.419  0.00  0.00    +0.000 C 
ATOM     12  C   UNL     1      44.497   3.210  10.375  0.00  0.00    +0.000 C 
ATOM     13  C   UNL     1      43.397   2.857  11.371  0.00  0.00    +0.000 C 
ATOM     14  C   UNL     1      43.771   3.275  12.788  0.00  0.00    +0.000 C 
ATOM     15  C   UNL     1      44.101   4.761  12.860  0.00  0.00    +0.000 C 
ENDBRANCH   6  10
BRANCH   8  16
ATOM     16  C   UNL     1      43.725   9.932  10.985  0.00  0.00    +0.000 C 
ATOM     17  F   UNL     1      42.480   9.388  10.862  0.00  0.00    +0.000 F 
ATOM     18  F   UNL     1      43.578  11.000  11.818  0.00  0.00    +0.000 F 
ATOM     19  F   UNL     1      44.027  10.448   9.762  0.00  0.00    +0.000 F 
ENDBRANCH   8  16
ENDBRANCH   1   4
BRANCH   1  20
ATOM     20  C   UNL     1      49.167   7.802  13.459  0.00  0.00    +0.000 C 
BRANCH  20  25
ATOM     21  C   UNL     1      48.201   4.582  17.154  0.00  0.00    +0.000 A 
ATOM     22  C   UNL     1      49.120   5.468  17.706  0.00  0.00    +0.000 A 
ATOM     23  C   UNL     1      49.614   6.510  16.916  0.00  0.00    +0.000 A 
ATOM     24  C   UNL     1      49.177   6.655  15.599  0.00  0.00    +0.000 A 
ATOM     25  N   UNL     1      49.743   7.668  14.816  0.00  0.00    +0.000 N 
ATOM     26  N   UNL     1      48.302   5.785  15.054  0.00  0.00    +0.000 NA
ATOM     27  C   UNL     1      47.841   4.769  15.830  0.00  0.00    +0.000 A 
ATOM     28  H   UNL     1      49.777   8.552  15.315  0.00  0.00    +0.000 HD
BRANCH  21  30
ATOM     29  N   UNL     1      48.253   3.070  19.056  0.00  0.00    +0.000 N 
ATOM     30  C   UNL     1      47.624   3.446  17.901  0.00  0.00    +0.000 C 
ATOM     31  O   UNL     1      46.598   2.886  17.525  0.00  0.00    +0.000 OA
ATOM     32  H   UNL     1      47.792   2.360  19.611  0.00  0.00    +0.000 HD
ATOM     33  H   UNL     1      48.935   3.654  19.518  0.00  0.00    +0.000 HD
ENDBRANCH  21  30
ENDBRANCH  20  25
ENDBRANCH   1  20
TORSDOF 6
ENDMDL
MODEL 5
REMARK VINA RESULT:    -7.246      4.528      7.058
REMARK INTER + INTRA:         -11.055
REMARK INTER:                  -9.919
REMARK INTRA:                  -1.135
REMARK UNBOUND:                -1.267
REMARK  Name = 
REMARK  6 active torsions:
REMARK  status: ('A' for Active; 'I' for Inactive)
REMARK    1  A    between atoms: C_2  and  C_4
REMARK    2  A    between atoms: N_8  and  C_9
REMARK    3  A    between atoms: C_9  and  C_10
REMARK    4  A    between atoms: C_10  and  C_13
REMARK    5  A    between atoms: C_15  and  C_16
REMARK    6  A    between atoms: C_23  and  C_24
REMARK                            x       y       z     vdW  Elec       q    Type
REMARK                         _______ _______ _______ _____ _____    ______ ____
ROOT
ATOM      1  C   UNL     1      47.666   3.909  17.178  0.00  0.00    +0.000 C 
ATOM      2  F   UNL     1      46.783   4.830  17.675  0.00  0.00    +0.000 F 
ATOM      3  F   UNL     1      47.435   2.775  17.907  0.00  0.00    +0.000 F 
ENDROOT
BRANCH   1   4
ATOM      4  C   UNL     1      49.109   4.367  17.305  0.00  0.00    +0.000 A 
ATOM      5  C   UNL     1      50.084   3.434  17.694  0.00  0.00    +0.000 A 
ATOM      6  C   UNL     1      51.434   3.785  17.780  0.00  0.00    +0.000 A 
ATOM      7  C   UNL     1      51.810   5.099  17.471  0.00  0.00    +0.000 A 
ATOM      8  C   UNL     1      50.864   6.052  17.068  0.00  0.00    +0.000 A 
ATOM      9  C   UNL     1      49.508   5.680  17.004  0.00  0.00    +0.000 A 
BRANCH   6  10
ATOM     10  C   UNL     1      52.463   2.734  18.157  0.00  0.00    +0.000 C 
ATOM     11  C   UNL     1      53.888   3.179  17.787  0.00  0.00    +0.000 C 
ATOM     12  C   UNL     1      54.914   2.094  18.103  0.00  0.00    +0.000 C 
ATOM     13  C   UNL     1      54.547   0.769  17.443  0.00  0.00    +0.000 C 
ATOM     14  C   UNL     1      53.150   0.312  17.848  0.00  0.00    +0.000 C 
ATOM     15  C   UNL     1      52.104   1.375  17.531  0.00  0.00    +0.000 C 
ENDBRANCH   6  10
BRANCH   8  16
ATOM     16  C   UNL     1      51.309   7.439  16.667  0.00  0.00    +0.000 C 
ATOM     17  F   UNL     1      52.083   8.056  17.605  0.00  0.00    +0.000 F 
ATOM     18  F   UNL     1      52.054   7.431  15.525  0.00  0.00    +0.000 F 
ATOM     19  F   UNL     1      50.268   8.283  16.430  0.00  0.00    +0.000 F 
ENDBRANCH   8  16
ENDBRANCH   1   4
BRANCH   1  20
ATOM     20  C   UNL     1      47.292   3.635  15.696  0.00  0.00    +0.000 C 
BRANCH  20  25
ATOM     21  C   UNL     1      44.956   4.158  11.311  0.00  0.00    +0.000 A 
ATOM     22  C   UNL     1      45.093   5.459  11.782  0.00  0.00    +0.000 A 
ATOM     23  C   UNL     1      45.711   5.671  13.017  0.00  0.00    +0.000 A 
ATOM     24  C   UNL     1      46.188   4.585  13.754  0.00  0.00    +0.000 A 
ATOM     25  N   UNL     1      46.740   4.829  15.016  0.00  0.00    +0.000 N 
ATOM     26  N   UNL     1      46.038   3.321  13.311  0.00  0.00    +0.000 NA
ATOM     27  C   UNL     1      45.423   3.130  12.114  0.00  0.00    +0.000 A 
ATOM     28  H   UNL     1      47.396   5.605  14.997  0.00  0.00    +0.000 HD
BRANCH  21  30
ATOM     29  N   UNL     1      44.273   4.808   9.072  0.00  0.00    +0.000 N 
ATOM     30  C   UNL     1      44.314   3.826  10.023  0.00  0.00    +0.000 C 
ATOM     31  O   UNL     1      43.871   2.704   9.797  0.00  0.00    +0.000 OA
ATOM     32  H   UNL     1      43.924   4.540   8.159  0.00  0.00    +0.000 HD
ATOM     33  H   UNL     1      44.838   5.643   9.128  0.00  0.00    +0.000 HD
ENDBRANCH  21  30
ENDBRANCH  20  25
ENDBRANCH   1  20
TORSDOF 6
ENDMDL
MODEL 6
REMARK VINA RESULT:    -7.069      4.507      6.602
REMARK INTER + INTRA:         -10.816
REMARK INTER:                  -9.675
REMARK INTRA:                  -1.142
REMARK UNBOUND:                -1.267
REMARK  Name = 
REMARK  6 active torsions:
REMARK  status: ('A' for Active; 'I' for Inactive)
REMARK    1  A    between atoms: C_2  and  C_4
REMARK    2  A    between atoms: N_8  and  C_9
REMARK    3  A    between atoms: C_9  and  C_10
REMARK    4  A    between atoms: C_10  and  C_13
REMARK    5  A    between atoms: C_15  and  C_16
REMARK    6  A    between atoms: C_23  and  C_24
REMARK                            x       y       z     vdW  Elec       q    Type
REMARK                         _______ _______ _______ _____ _____    ______ ____
ROOT
ATOM      1  C   UNL     1      47.733   3.586  17.131  0.00  0.00    +0.000 C 
ATOM      2  F   UNL     1      47.173   4.697  17.703  0.00  0.00    +0.000 F 
ATOM      3  F   UNL     1      47.153   2.530  17.780  0.00  0.00    +0.000 F 
ENDROOT
BRANCH   1   4
ATOM      4  C   UNL     1      49.245   3.563  17.276  0.00  0.00    +0.000 A 
ATOM      5  C   UNL     1      49.936   4.783  17.365  0.00  0.00    +0.000 A 
ATOM      6  C   UNL     1      51.321   4.823  17.549  0.00  0.00    +0.000 A 
ATOM      7  C   UNL     1      52.024   3.614  17.642  0.00  0.00    +0.000 A 
ATOM      8  C   UNL     1      51.364   2.379  17.570  0.00  0.00    +0.000 A 
ATOM      9  C   UNL     1      49.970   2.364  17.368  0.00  0.00    +0.000 A 
BRANCH   6  10
ATOM     10  C   UNL     1      52.024   6.161  17.689  0.00  0.00    +0.000 C 
ATOM     11  C   UNL     1      51.455   6.979  18.861  0.00  0.00    +0.000 C 
ATOM     12  C   UNL     1      52.114   8.352  18.959  0.00  0.00    +0.000 C 
ATOM     13  C   UNL     1      52.016   9.113  17.640  0.00  0.00    +0.000 C 
ATOM     14  C   UNL     1      52.621   8.315  16.490  0.00  0.00    +0.000 C 
ATOM     15  C   UNL     1      51.971   6.942  16.364  0.00  0.00    +0.000 C 
ENDBRANCH   6  10
BRANCH   8  16
ATOM     16  C   UNL     1      52.138   1.095  17.751  0.00  0.00    +0.000 C 
ATOM     17  F   UNL     1      51.395   0.079  18.277  0.00  0.00    +0.000 F 
ATOM     18  F   UNL     1      52.629   0.618  16.572  0.00  0.00    +0.000 F 
ATOM     19  F   UNL     1      53.212   1.235  18.576  0.00  0.00    +0.000 F 
ENDBRANCH   8  16
ENDBRANCH   1   4
BRANCH   1  20
ATOM     20  C   UNL     1      47.311   3.549  15.638  0.00  0.00    +0.000 C 
BRANCH  20  25
ATOM     21  C   UNL     1      44.441   5.560  12.077  0.00  0.00    +0.000 A 
ATOM     22  C   UNL     1      45.404   6.530  12.328  0.00  0.00    +0.000 A 
ATOM     23  C   UNL     1      46.378   6.284  13.299  0.00  0.00    +0.000 A 
ATOM     24  C   UNL     1      46.380   5.073  13.994  0.00  0.00    +0.000 A 
ATOM     25  N   UNL     1      47.328   4.887  15.006  0.00  0.00    +0.000 N 
ATOM     26  N   UNL     1      45.434   4.138  13.769  0.00  0.00    +0.000 NA
ATOM     27  C   UNL     1      44.486   4.398  12.831  0.00  0.00    +0.000 A 
ATOM     28  H   UNL     1      48.258   5.165  14.705  0.00  0.00    +0.000 HD
BRANCH  21  30
ATOM     29  N   UNL     1      42.582   6.840  11.178  0.00  0.00    +0.000 N 
ATOM     30  C   UNL     1      43.366   5.724  11.078  0.00  0.00    +0.000 C 
ATOM     31  O   UNL     1      43.207   4.916  10.168  0.00  0.00    +0.000 OA
ATOM     32  H   UNL     1      41.917   6.995  10.430  0.00  0.00    +0.000 HD
ATOM     33  H   UNL     1      42.837   7.635  11.747  0.00  0.00    +0.000 HD
ENDBRANCH  21  30
ENDBRANCH  20  25
ENDBRANCH   1  20
TORSDOF 6
ENDMDL
MODEL 7
REMARK VINA RESULT:    -7.042      4.826      7.361
REMARK INTER + INTRA:         -10.779
REMARK INTER:                  -9.622
REMARK INTRA:                  -1.157
REMARK UNBOUND:                -1.267
REMARK  Name = 
REMARK  6 active torsions:
REMARK  status: ('A' for Active; 'I' for Inactive)
REMARK    1  A    between atoms: C_2  and  C_4
REMARK    2  A    between atoms: N_8  and  C_9
REMARK    3  A    between atoms: C_9  and  C_10
REMARK    4  A    between atoms: C_10  and  C_13
REMARK    5  A    between atoms: C_15  and  C_16
REMARK    6  A    between atoms: C_23  and  C_24
REMARK                            x       y       z     vdW  Elec       q    Type
REMARK                         _______ _______ _______ _____ _____    ______ ____
ROOT
ATOM      1  C   UNL     1      47.576   3.737  17.411  0.00  0.00    +0.000 C 
ATOM      2  F   UNL     1      46.567   4.587  17.781  0.00  0.00    +0.000 F 
ATOM      3  F   UNL     1      47.214   2.522  17.925  0.00  0.00    +0.000 F 
ENDROOT
BRANCH   1   4
ATOM      4  C   UNL     1      48.928   4.184  17.940  0.00  0.00    +0.000 A 
ATOM      5  C   UNL     1      50.045   3.362  17.722  0.00  0.00    +0.000 A 
ATOM      6  C   UNL     1      51.323   3.744  18.141  0.00  0.00    +0.000 A 
ATOM      7  C   UNL     1      51.478   4.974  18.795  0.00  0.00    +0.000 A 
ATOM      8  C   UNL     1      50.385   5.824  19.018  0.00  0.00    +0.000 A 
ATOM      9  C   UNL     1      49.106   5.411  18.601  0.00  0.00    +0.000 A 
BRANCH   6  10
ATOM     10  C   UNL     1      52.513   2.850  17.843  0.00  0.00    +0.000 C 
ATOM     11  C   UNL     1      52.074   1.407  17.542  0.00  0.00    +0.000 C 
ATOM     12  C   UNL     1      53.274   0.493  17.310  0.00  0.00    +0.000 C 
ATOM     13  C   UNL     1      54.255   0.553  18.476  0.00  0.00    +0.000 C 
ATOM     14  C   UNL     1      54.720   1.980  18.742  0.00  0.00    +0.000 C 
ATOM     15  C   UNL     1      53.538   2.912  18.989  0.00  0.00    +0.000 C 
ENDBRANCH   6  10
BRANCH   8  16
ATOM     16  C   UNL     1      50.596   7.177  19.656  0.00  0.00    +0.000 C 
ATOM     17  F   UNL     1      51.547   7.179  20.632  0.00  0.00    +0.000 F 
ATOM     18  F   UNL     1      50.997   8.116  18.752  0.00  0.00    +0.000 F 
ATOM     19  F   UNL     1      49.468   7.672  20.235  0.00  0.00    +0.000 F 
ENDBRANCH   8  16
ENDBRANCH   1   4
BRANCH   1  20
ATOM     20  C   UNL     1      47.582   3.643  15.861  0.00  0.00    +0.000 C 
BRANCH  20  25
ATOM     21  C   UNL     1      45.163   4.417  11.560  0.00  0.00    +0.000 A 
ATOM     22  C   UNL     1      45.425   5.696  12.038  0.00  0.00    +0.000 A 
ATOM     23  C   UNL     1      46.097   5.839  13.255  0.00  0.00    +0.000 A 
ATOM     24  C   UNL     1      46.503   4.708  13.966  0.00  0.00    +0.000 A 
ATOM     25  N   UNL     1      47.113   4.887  15.212  0.00  0.00    +0.000 N 
ATOM     26  N   UNL     1      46.231   3.466  13.515  0.00  0.00    +0.000 NA
ATOM     27  C   UNL     1      45.565   3.343  12.337  0.00  0.00    +0.000 A 
ATOM     28  H   UNL     1      47.831   5.605  15.179  0.00  0.00    +0.000 HD
BRANCH  21  30
ATOM     29  N   UNL     1      44.960   4.740   9.160  0.00  0.00    +0.000 N 
ATOM     30  C   UNL     1      44.455   4.157  10.290  0.00  0.00    +0.000 C 
ATOM     31  O   UNL     1      43.478   3.416  10.239  0.00  0.00    +0.000 OA
ATOM     32  H   UNL     1      44.530   4.474   8.282  0.00  0.00    +0.000 HD
ATOM     33  H   UNL     1      45.886   5.142   9.123  0.00  0.00    +0.000 HD
ENDBRANCH  21  30
ENDBRANCH  20  25
ENDBRANCH   1  20
TORSDOF 6
ENDMDL
MODEL 8
REMARK VINA RESULT:    -7.030      4.210      6.596
REMARK INTER + INTRA:         -10.763
REMARK INTER:                  -9.227
REMARK INTRA:                  -1.536
REMARK UNBOUND:                -1.267
REMARK  Name = 
REMARK  6 active torsions:
REMARK  status: ('A' for Active; 'I' for Inactive)
REMARK    1  A    between atoms: C_2  and  C_4
REMARK    2  A    between atoms: N_8  and  C_9
REMARK    3  A    between atoms: C_9  and  C_10
REMARK    4  A    between atoms: C_10  and  C_13
REMARK    5  A    between atoms: C_15  and  C_16
REMARK    6  A    between atoms: C_23  and  C_24
REMARK                            x       y       z     vdW  Elec       q    Type
REMARK                         _______ _______ _______ _____ _____    ______ ____
ROOT
ATOM      1  C   UNL     1      49.235   8.443  13.926  0.00  0.00    +0.000 C 
ATOM      2  F   UNL     1      50.459   9.048  13.824  0.00  0.00    +0.000 F 
ATOM      3  F   UNL     1      48.352   9.353  13.411  0.00  0.00    +0.000 F 
ENDROOT
BRANCH   1   4
ATOM      4  C   UNL     1      48.888   8.082  15.360  0.00  0.00    +0.000 A 
ATOM      5  C   UNL     1      49.085   6.761  15.793  0.00  0.00    +0.000 A 
ATOM      6  C   UNL     1      48.831   6.382  17.114  0.00  0.00    +0.000 A 
ATOM      7  C   UNL     1      48.367   7.350  18.016  0.00  0.00    +0.000 A 
ATOM      8  C   UNL     1      48.171   8.681  17.619  0.00  0.00    +0.000 A 
ATOM      9  C   UNL     1      48.419   9.035  16.279  0.00  0.00    +0.000 A 
BRANCH   6  10
ATOM     10  C   UNL     1      49.103   4.955  17.555  0.00  0.00    +0.000 C 
ATOM     11  C   UNL     1      50.589   4.589  17.401  0.00  0.00    +0.000 C 
ATOM     12  C   UNL     1      50.851   3.134  17.778  0.00  0.00    +0.000 C 
ATOM     13  C   UNL     1      49.952   2.184  16.993  0.00  0.00    +0.000 C 
ATOM     14  C   UNL     1      48.478   2.525  17.184  0.00  0.00    +0.000 C 
ATOM     15  C   UNL     1      48.189   3.972  16.802  0.00  0.00    +0.000 C 
ENDBRANCH   6  10
BRANCH   8  16
ATOM     16  C   UNL     1      47.745   9.717  18.632  0.00  0.00    +0.000 C 
ATOM     17  F   UNL     1      48.723  10.045  19.524  0.00  0.00    +0.000 F 
ATOM     18  F   UNL     1      47.377  10.891  18.044  0.00  0.00    +0.000 F 
ATOM     19  F   UNL     1      46.678   9.322  19.379  0.00  0.00    +0.000 F 
ENDBRANCH   8  16
ENDBRANCH   1   4
BRANCH   1  20
ATOM     20  C   UNL     1      49.244   7.185  13.016  0.00  0.00    +0.000 C 
BRANCH  20  25
ATOM     21  C   UNL     1      44.859   4.844  12.518  0.00  0.00    +0.000 A 
ATOM     22  C   UNL     1      45.004   5.553  11.330  0.00  0.00    +0.000 A 
ATOM     23  C   UNL     1      46.144   6.339  11.145  0.00  0.00    +0.000 A 
ATOM     24  C   UNL     1      47.121   6.395  12.141  0.00  0.00    +0.000 A 
ATOM     25  N   UNL     1      48.217   7.244  11.951  0.00  0.00    +0.000 N 
ATOM     26  N   UNL     1      46.975   5.726  13.302  0.00  0.00    +0.000 NA
ATOM     27  C   UNL     1      45.853   4.976  13.473  0.00  0.00    +0.000 A 
ATOM     28  H   UNL     1      48.614   7.144  11.021  0.00  0.00    +0.000 HD
BRANCH  21  30
ATOM     29  N   UNL     1      43.813   2.651  12.564  0.00  0.00    +0.000 N 
ATOM     30  C   UNL     1      43.690   3.990  12.814  0.00  0.00    +0.000 C 
ATOM     31  O   UNL     1      42.664   4.454  13.303  0.00  0.00    +0.000 OA
ATOM     32  H   UNL     1      43.046   2.062  12.865  0.00  0.00    +0.000 HD
ATOM     33  H   UNL     1      44.706   2.207  12.403  0.00  0.00    +0.000 HD
ENDBRANCH  21  30
ENDBRANCH  20  25
ENDBRANCH   1  20
TORSDOF 6
ENDMDL
MODEL 9
REMARK VINA RESULT:    -6.791      4.100      5.882
REMARK INTER + INTRA:         -10.441
REMARK INTER:                  -8.975
REMARK INTRA:                  -1.466
REMARK UNBOUND:                -1.267
REMARK  Name = 
REMARK  6 active torsions:
REMARK  status: ('A' for Active; 'I' for Inactive)
REMARK    1  A    between atoms: C_2  and  C_4
REMARK    2  A    between atoms: N_8  and  C_9
REMARK    3  A    between atoms: C_9  and  C_10
REMARK    4  A    between atoms: C_10  and  C_13
REMARK    5  A    between atoms: C_15  and  C_16
REMARK    6  A    between atoms: C_23  and  C_24
REMARK                            x       y       z     vdW  Elec       q    Type
REMARK                         _______ _______ _______ _____ _____    ______ ____
ROOT
ATOM      1  C   UNL     1      48.745   7.797  14.261  0.00  0.00    +0.000 C 
ATOM      2  F   UNL     1      49.368   7.119  13.247  0.00  0.00    +0.000 F 
ATOM      3  F   UNL     1      49.507   8.918  14.450  0.00  0.00    +0.000 F 
ENDROOT
BRANCH   1   4
ATOM      4  C   UNL     1      48.646   6.972  15.532  0.00  0.00    +0.000 A 
ATOM      5  C   UNL     1      48.757   7.621  16.771  0.00  0.00    +0.000 A 
ATOM      6  C   UNL     1      48.624   6.922  17.975  0.00  0.00    +0.000 A 
ATOM      7  C   UNL     1      48.378   5.542  17.928  0.00  0.00    +0.000 A 
ATOM      8  C   UNL     1      48.249   4.866  16.707  0.00  0.00    +0.000 A 
ATOM      9  C   UNL     1      48.403   5.588  15.509  0.00  0.00    +0.000 A 
BRANCH   6  10
ATOM     10  C   UNL     1      48.702   7.669  19.293  0.00  0.00    +0.000 C 
ATOM     11  C   UNL     1      47.322   8.183  19.735  0.00  0.00    +0.000 C 
ATOM     12  C   UNL     1      47.412   8.994  21.025  0.00  0.00    +0.000 C 
ATOM     13  C   UNL     1      48.424  10.128  20.902  0.00  0.00    +0.000 C 
ATOM     14  C   UNL     1      49.801   9.607  20.507  0.00  0.00    +0.000 C 
ATOM     15  C   UNL     1      49.740   8.803  19.213  0.00  0.00    +0.000 C 
ENDBRANCH   6  10
BRANCH   8  16
ATOM     16  C   UNL     1      47.906   3.394  16.690  0.00  0.00    +0.000 C 
ATOM     17  F   UNL     1      46.799   3.082  17.421  0.00  0.00    +0.000 F 
ATOM     18  F   UNL     1      47.654   2.939  15.430  0.00  0.00    +0.000 F 
ATOM     19  F   UNL     1      48.907   2.611  17.178  0.00  0.00    +0.000 F 
ENDBRANCH   8  16
ENDBRANCH   1   4
BRANCH   1  20
ATOM     20  C   UNL     1      47.340   8.228  13.759  0.00  0.00    +0.000 C 
BRANCH  20  25
ATOM     21  C   UNL     1      44.848   4.444  11.654  0.00  0.00    +0.000 A 
ATOM     22  C   UNL     1      45.417   5.117  10.579  0.00  0.00    +0.000 A 
ATOM     23  C   UNL     1      46.189   6.256  10.825  0.00  0.00    +0.000 A 
ATOM     24  C   UNL     1      46.387   6.695  12.135  0.00  0.00    +0.000 A 
ATOM     25  N   UNL     1      47.109   7.876  12.340  0.00  0.00    +0.000 N 
ATOM     26  N   UNL     1      45.819   6.057  13.179  0.00  0.00    +0.000 NA
ATOM     27  C   UNL     1      45.060   4.959  12.923  0.00  0.00    +0.000 A 
ATOM     28  H   UNL     1      47.963   7.895  11.789  0.00  0.00    +0.000 HD
BRANCH  21  30
ATOM     29  N   UNL     1      43.769   2.497  12.627  0.00  0.00    +0.000 N 
ATOM     30  C   UNL     1      44.012   3.236  11.502  0.00  0.00    +0.000 C 
ATOM     31  O   UNL     1      43.519   2.928  10.421  0.00  0.00    +0.000 OA
ATOM     32  H   UNL     1      43.113   1.731  12.533  0.00  0.00    +0.000 HD
ATOM     33  H   UNL     1      43.944   2.848  13.558  0.00  0.00    +0.000 HD
ENDBRANCH  21  30
ENDBRANCH  20  25
ENDBRANCH   1  20
TORSDOF 6
ENDMDL
