MODEL 1
REMARK VINA RESULT:    -6.842      0.000      0.000
REMARK INTER + INTRA:          -8.810
REMARK INTER:                  -8.442
REMARK INTRA:                  -0.368
REMARK UNBOUND:                -0.368
REMARK  Name = 
REMARK  7 active torsions:
REMARK  status: ('A' for Active; 'I' for Inactive)
REMARK    1  A    between atoms: C_1  and  C_2
REMARK    2  A    between atoms: C_2  and  C_3
REMARK    3  A    between atoms: C_2  and  C_4
REMARK    4  A    between atoms: C_2  and  C_5
REMARK    5  A    between atoms: C_9  and  C_10
REMARK    6  A    between atoms: N_16  and  C_17
REMARK    7  A    between atoms: C_17  and  C_18
REMARK                            x       y       z     vdW  Elec       q    Type
REMARK                         _______ _______ _______ _____ _____    ______ ____
ROOT
ATOM      1  C   UNL     1      47.903   7.616  13.445  0.00  0.00    +0.000 A 
ATOM      2  N   UNL     1      48.220   7.338  14.700  0.00  0.00    +0.000 NA
ATOM      3  C   UNL     1      47.936   6.024  14.916  0.00  0.00    +0.000 A 
ATOM      4  C   UNL     1      48.074   5.271  16.081  0.00  0.00    +0.000 A 
ATOM      5  C   UNL     1      47.683   3.946  15.983  0.00  0.00    +0.000 A 
ATOM      6  N   UNL     1      47.229   3.345  14.842  0.00  0.00    +0.000 NA
ATOM      7  C   UNL     1      47.113   4.088  13.713  0.00  0.00    +0.000 A 
ATOM      8  C   UNL     1      47.437   5.440  13.763  0.00  0.00    +0.000 A 
ATOM      9  N   UNL     1      47.339   6.489  12.856  0.00  0.00    +0.000 N 
ENDROOT
BRANCH   5  10
ATOM     10  C   UNL     1      47.714   3.097  17.221  0.00  0.00    +0.000 C 
ATOM     11  N   UNL     1      48.950   2.885  17.770  0.00  0.00    +0.000 N 
ATOM     12  O   UNL     1      46.707   2.602  17.710  0.00  0.00    +0.000 OA
ATOM     13  H   UNL     1      49.772   3.286  17.331  0.00  0.00    +0.000 HD
ATOM     14  H   UNL     1      49.035   2.292  18.579  0.00  0.00    +0.000 HD
ENDBRANCH   5  10
BRANCH   1  16
ATOM     15  C   UNL     1      48.823   9.899  13.879  0.00  0.00    +0.000 C 
ATOM     16  C   UNL     1      48.174   8.982  12.809  0.00  0.00    +0.000 C 
ATOM     17  C   UNL     1      46.892   9.687  12.344  0.00  0.00    +0.000 C 
ATOM     18  C   UNL     1      49.175   8.875  11.646  0.00  0.00    +0.000 C 
ENDBRANCH   1  16
BRANCH   9  19
ATOM     19  C   UNL     1      46.729   6.365  11.537  0.00  0.00    +0.000 C 
BRANCH  19  20
ATOM     20  C   UNL     1      45.292   5.896  11.552  0.00  0.00    +0.000 A 
ATOM     21  C   UNL     1      44.400   6.146  12.605  0.00  0.00    +0.000 A 
ATOM     22  C   UNL     1      43.120   5.584  12.604  0.00  0.00    +0.000 A 
ATOM     23  C   UNL     1      42.708   4.768  11.551  0.00  0.00    +0.000 A 
ATOM     24  C   UNL     1      43.570   4.529  10.488  0.00  0.00    +0.000 A 
ATOM     25  C   UNL     1      44.847   5.086  10.499  0.00  0.00    +0.000 A 
ATOM     26  F   UNL     1      45.665   4.833   9.466  0.00  0.00    +0.000 F 
ENDBRANCH  19  20
ENDBRANCH   9  19
TORSDOF 4
ENDMDL
MODEL 2
REMARK VINA RESULT:    -6.752      1.868      4.386
REMARK INTER + INTRA:          -8.699
REMARK INTER:                  -7.971
REMARK INTRA:                  -0.728
REMARK UNBOUND:                -0.368
REMARK  Name = 
REMARK  7 active torsions:
REMARK  status: ('A' for Active; 'I' for Inactive)
REMARK    1  A    between atoms: C_1  and  C_2
REMARK    2  A    between atoms: C_2  and  C_3
REMARK    3  A    between atoms: C_2  and  C_4
REMARK    4  A    between atoms: C_2  and  C_5
REMARK    5  A    between atoms: C_9  and  C_10
REMARK    6  A    between atoms: N_16  and  C_17
REMARK    7  A    between atoms: C_17  and  C_18
REMARK                            x       y       z     vdW  Elec       q    Type
REMARK                         _______ _______ _______ _____ _____    ______ ____
ROOT
ATOM      1  C   UNL     1      45.446   4.742  12.559  0.00  0.00    +0.000 A 
ATOM      2  N   UNL     1      45.513   4.022  13.668  0.00  0.00    +0.000 NA
ATOM      3  C   UNL     1      46.515   4.534  14.434  0.00  0.00    +0.000 A 
ATOM      4  C   UNL     1      46.984   4.107  15.676  0.00  0.00    +0.000 A 
ATOM      5  C   UNL     1      48.038   4.838  16.198  0.00  0.00    +0.000 A 
ATOM      6  N   UNL     1      48.595   5.939  15.609  0.00  0.00    +0.000 NA
ATOM      7  C   UNL     1      48.119   6.350  14.407  0.00  0.00    +0.000 A 
ATOM      8  C   UNL     1      47.098   5.622  13.804  0.00  0.00    +0.000 A 
ATOM      9  N   UNL     1      46.464   5.690  12.569  0.00  0.00    +0.000 N 
ENDROOT
BRANCH   5  10
ATOM     10  C   UNL     1      48.657   4.381  17.486  0.00  0.00    +0.000 C 
ATOM     11  N   UNL     1      47.795   4.213  18.537  0.00  0.00    +0.000 N 
ATOM     12  O   UNL     1      49.859   4.186  17.611  0.00  0.00    +0.000 OA
ATOM     13  H   UNL     1      46.807   4.407  18.414  0.00  0.00    +0.000 HD
ATOM     14  H   UNL     1      48.161   3.945  19.436  0.00  0.00    +0.000 HD
ENDBRANCH   5  10
BRANCH   1  16
ATOM     15  C   UNL     1      43.627   3.197  11.819  0.00  0.00    +0.000 C 
ATOM     16  C   UNL     1      44.369   4.520  11.494  0.00  0.00    +0.000 C 
ATOM     17  C   UNL     1      44.952   4.363  10.082  0.00  0.00    +0.000 C 
ATOM     18  C   UNL     1      43.315   5.640  11.514  0.00  0.00    +0.000 C 
ENDBRANCH   1  16
BRANCH   9  19
ATOM     19  C   UNL     1      46.855   6.611  11.509  0.00  0.00    +0.000 C 
BRANCH  19  20
ATOM     20  C   UNL     1      46.530   8.061  11.786  0.00  0.00    +0.000 A 
ATOM     21  C   UNL     1      45.224   8.561  11.898  0.00  0.00    +0.000 A 
ATOM     22  C   UNL     1      44.995   9.933  12.040  0.00  0.00    +0.000 A 
ATOM     23  C   UNL     1      46.064  10.827  12.078  0.00  0.00    +0.000 A 
ATOM     24  C   UNL     1      47.366  10.348  11.993  0.00  0.00    +0.000 A 
ATOM     25  C   UNL     1      47.586   8.980  11.843  0.00  0.00    +0.000 A 
ATOM     26  F   UNL     1      48.851   8.542  11.754  0.00  0.00    +0.000 F 
ENDBRANCH  19  20
ENDBRANCH   9  19
TORSDOF 4
ENDMDL
MODEL 3
REMARK VINA RESULT:    -6.273      2.968      5.641
REMARK INTER + INTRA:          -8.107
REMARK INTER:                  -7.192
REMARK INTRA:                  -0.915
REMARK UNBOUND:                -0.368
REMARK  Name = 
REMARK  7 active torsions:
REMARK  status: ('A' for Active; 'I' for Inactive)
REMARK    1  A    between atoms: C_1  and  C_2
REMARK    2  A    between atoms: C_2  and  C_3
REMARK    3  A    between atoms: C_2  and  C_4
REMARK    4  A    between atoms: C_2  and  C_5
REMARK    5  A    between atoms: C_9  and  C_10
REMARK    6  A    between atoms: N_16  and  C_17
REMARK    7  A    between atoms: C_17  and  C_18
REMARK                            x       y       z     vdW  Elec       q    Type
REMARK                         _______ _______ _______ _____ _____    ______ ____
ROOT
ATOM      1  C   UNL     1      48.035   6.652  14.477  0.00  0.00    +0.000 A 
ATOM      2  N   UNL     1      47.454   5.469  14.597  0.00  0.00    +0.000 NA
ATOM      3  C   UNL     1      46.724   5.250  13.469  0.00  0.00    +0.000 A 
ATOM      4  C   UNL     1      45.920   4.162  13.134  0.00  0.00    +0.000 A 
ATOM      5  C   UNL     1      45.291   4.242  11.902  0.00  0.00    +0.000 A 
ATOM      6  N   UNL     1      45.443   5.268  11.011  0.00  0.00    +0.000 NA
ATOM      7  C   UNL     1      46.239   6.313  11.346  0.00  0.00    +0.000 A 
ATOM      8  C   UNL     1      46.854   6.317  12.594  0.00  0.00    +0.000 A 
ATOM      9  N   UNL     1      47.624   7.243  13.288  0.00  0.00    +0.000 N 
ENDROOT
BRANCH   5  10
ATOM     10  C   UNL     1      44.335   3.152  11.514  0.00  0.00    +0.000 C 
ATOM     11  N   UNL     1      43.880   2.364  12.538  0.00  0.00    +0.000 N 
ATOM     12  O   UNL     1      43.991   2.954  10.357  0.00  0.00    +0.000 OA
ATOM     13  H   UNL     1      44.201   2.533  13.485  0.00  0.00    +0.000 HD
ATOM     14  H   UNL     1      43.267   1.593  12.331  0.00  0.00    +0.000 HD
ENDBRANCH   5  10
BRANCH   1  16
ATOM     15  C   UNL     1      49.034   6.229  16.728  0.00  0.00    +0.000 C 
ATOM     16  C   UNL     1      49.018   7.198  15.517  0.00  0.00    +0.000 C 
ATOM     17  C   UNL     1      48.606   8.575  16.059  0.00  0.00    +0.000 C 
ATOM     18  C   UNL     1      50.452   7.250  14.966  0.00  0.00    +0.000 C 
ENDBRANCH   1  16
BRANCH   9  19
ATOM     19  C   UNL     1      47.903   8.590  12.801  0.00  0.00    +0.000 C 
BRANCH  19  20
ATOM     20  C   UNL     1      49.266   8.757  12.168  0.00  0.00    +0.000 A 
ATOM     21  C   UNL     1      49.896   7.770  11.396  0.00  0.00    +0.000 A 
ATOM     22  C   UNL     1      51.205   7.949  10.938  0.00  0.00    +0.000 A 
ATOM     23  C   UNL     1      51.904   9.117  11.239  0.00  0.00    +0.000 A 
ATOM     24  C   UNL     1      51.288  10.117  11.983  0.00  0.00    +0.000 A 
ATOM     25  C   UNL     1      49.986   9.928  12.442  0.00  0.00    +0.000 A 
ATOM     26  F   UNL     1      49.415  10.903  13.166  0.00  0.00    +0.000 F 
ENDBRANCH  19  20
ENDBRANCH   9  19
TORSDOF 4
ENDMDL
MODEL 4
REMARK VINA RESULT:    -6.209      1.895      4.654
REMARK INTER + INTRA:          -8.029
REMARK INTER:                  -7.417
REMARK INTRA:                  -0.612
REMARK UNBOUND:                -0.368
REMARK  Name = 
REMARK  7 active torsions:
REMARK  status: ('A' for Active; 'I' for Inactive)
REMARK    1  A    between atoms: C_1  and  C_2
REMARK    2  A    between atoms: C_2  and  C_3
REMARK    3  A    between atoms: C_2  and  C_4
REMARK    4  A    between atoms: C_2  and  C_5
REMARK    5  A    between atoms: C_9  and  C_10
REMARK    6  A    between atoms: N_16  and  C_17
REMARK    7  A    between atoms: C_17  and  C_18
REMARK                            x       y       z     vdW  Elec       q    Type
REMARK                         _______ _______ _______ _____ _____    ______ ____
ROOT
ATOM      1  C   UNL     1      45.806   4.690  12.671  0.00  0.00    +0.000 A 
ATOM      2  N   UNL     1      46.217   3.547  13.197  0.00  0.00    +0.000 NA
ATOM      3  C   UNL     1      46.996   3.843  14.274  0.00  0.00    +0.000 A 
ATOM      4  C   UNL     1      47.674   2.983  15.136  0.00  0.00    +0.000 A 
ATOM      5  C   UNL     1      48.400   3.600  16.142  0.00  0.00    +0.000 A 
ATOM      6  N   UNL     1      48.453   4.949  16.356  0.00  0.00    +0.000 NA
ATOM      7  C   UNL     1      47.776   5.772  15.516  0.00  0.00    +0.000 A 
ATOM      8  C   UNL     1      47.074   5.215  14.452  0.00  0.00    +0.000 A 
ATOM      9  N   UNL     1      46.381   5.746  13.370  0.00  0.00    +0.000 N 
ENDROOT
BRANCH   5  10
ATOM     10  C   UNL     1      49.232   2.744  17.051  0.00  0.00    +0.000 C 
ATOM     11  N   UNL     1      49.179   3.058  18.383  0.00  0.00    +0.000 N 
ATOM     12  O   UNL     1      49.937   1.830  16.641  0.00  0.00    +0.000 OA
ATOM     13  H   UNL     1      48.608   3.836  18.695  0.00  0.00    +0.000 HD
ATOM     14  H   UNL     1      49.747   2.542  19.035  0.00  0.00    +0.000 HD
ENDBRANCH   5  10
BRANCH   1  16
ATOM     15  C   UNL     1      44.354   3.311  11.177  0.00  0.00    +0.000 C 
ATOM     16  C   UNL     1      44.827   4.753  11.496  0.00  0.00    +0.000 C 
ATOM     17  C   UNL     1      45.471   5.300  10.214  0.00  0.00    +0.000 C 
ATOM     18  C   UNL     1      43.571   5.568  11.850  0.00  0.00    +0.000 C 
ENDBRANCH   1  16
BRANCH   9  19
ATOM     19  C   UNL     1      46.317   7.172  13.071  0.00  0.00    +0.000 C 
BRANCH  19  20
ATOM     20  C   UNL     1      47.573   7.739  12.448  0.00  0.00    +0.000 A 
ATOM     21  C   UNL     1      48.688   6.965  12.096  0.00  0.00    +0.000 A 
ATOM     22  C   UNL     1      49.859   7.571  11.630  0.00  0.00    +0.000 A 
ATOM     23  C   UNL     1      49.934   8.957  11.503  0.00  0.00    +0.000 A 
ATOM     24  C   UNL     1      48.829   9.739  11.824  0.00  0.00    +0.000 A 
ATOM     25  C   UNL     1      47.669   9.129  12.294  0.00  0.00    +0.000 A 
ATOM     26  F   UNL     1      46.620   9.904  12.606  0.00  0.00    +0.000 F 
ENDBRANCH  19  20
ENDBRANCH   9  19
TORSDOF 4
ENDMDL
MODEL 5
REMARK VINA RESULT:    -6.196      2.960      5.412
REMARK INTER + INTRA:          -8.013
REMARK INTER:                  -7.305
REMARK INTRA:                  -0.708
REMARK UNBOUND:                -0.368
REMARK  Name = 
REMARK  7 active torsions:
REMARK  status: ('A' for Active; 'I' for Inactive)
REMARK    1  A    between atoms: C_1  and  C_2
REMARK    2  A    between atoms: C_2  and  C_3
REMARK    3  A    between atoms: C_2  and  C_4
REMARK    4  A    between atoms: C_2  and  C_5
REMARK    5  A    between atoms: C_9  and  C_10
REMARK    6  A    between atoms: N_16  and  C_17
REMARK    7  A    between atoms: C_17  and  C_18
REMARK                            x       y       z     vdW  Elec       q    Type
REMARK                         _______ _______ _______ _____ _____    ______ ____
ROOT
ATOM      1  C   UNL     1      48.292   7.783  12.851  0.00  0.00    +0.000 A 
ATOM      2  N   UNL     1      47.357   7.482  11.964  0.00  0.00    +0.000 NA
ATOM      3  C   UNL     1      46.758   6.328  12.369  0.00  0.00    +0.000 A 
ATOM      4  C   UNL     1      45.736   5.602  11.759  0.00  0.00    +0.000 A 
ATOM      5  C   UNL     1      45.348   4.449  12.422  0.00  0.00    +0.000 A 
ATOM      6  N   UNL     1      45.859   4.022  13.616  0.00  0.00    +0.000 NA
ATOM      7  C   UNL     1      46.843   4.747  14.203  0.00  0.00    +0.000 A 
ATOM      8  C   UNL     1      47.316   5.886  13.558  0.00  0.00    +0.000 A 
ATOM      9  N   UNL     1      48.353   6.776  13.809  0.00  0.00    +0.000 N 
ENDROOT
BRANCH   5  10
ATOM     10  C   UNL     1      44.320   3.566  11.778  0.00  0.00    +0.000 C 
ATOM     11  N   UNL     1      43.889   2.505  12.529  0.00  0.00    +0.000 N 
ATOM     12  O   UNL     1      43.898   3.757  10.645  0.00  0.00    +0.000 OA
ATOM     13  H   UNL     1      44.273   2.354  13.455  0.00  0.00    +0.000 HD
ATOM     14  H   UNL     1      43.228   1.857  12.133  0.00  0.00    +0.000 HD
ENDBRANCH   5  10
BRANCH   1  16
ATOM     15  C   UNL     1      48.857   9.738  11.401  0.00  0.00    +0.000 C 
ATOM     16  C   UNL     1      49.114   9.073  12.779  0.00  0.00    +0.000 C 
ATOM     17  C   UNL     1      50.626   8.819  12.869  0.00  0.00    +0.000 C 
ATOM     18  C   UNL     1      48.677  10.083  13.852  0.00  0.00    +0.000 C 
ENDBRANCH   1  16
BRANCH   9  19
ATOM     19  C   UNL     1      49.310   6.618  14.898  0.00  0.00    +0.000 C 
BRANCH  19  20
ATOM     20  C   UNL     1      48.763   6.951  16.267  0.00  0.00    +0.000 A 
ATOM     21  C   UNL     1      48.510   8.257  16.711  0.00  0.00    +0.000 A 
ATOM     22  C   UNL     1      48.113   8.498  18.030  0.00  0.00    +0.000 A 
ATOM     23  C   UNL     1      47.957   7.440  18.925  0.00  0.00    +0.000 A 
ATOM     24  C   UNL     1      48.179   6.137  18.496  0.00  0.00    +0.000 A 
ATOM     25  C   UNL     1      48.582   5.905  17.183  0.00  0.00    +0.000 A 
ATOM     26  F   UNL     1      48.800   4.640  16.794  0.00  0.00    +0.000 F 
ENDBRANCH  19  20
ENDBRANCH   9  19
TORSDOF 4
ENDMDL
MODEL 6
REMARK VINA RESULT:    -6.182      2.807      5.323
REMARK INTER + INTRA:          -7.995
REMARK INTER:                  -7.508
REMARK INTRA:                  -0.487
REMARK UNBOUND:                -0.368
REMARK  Name = 
REMARK  7 active torsions:
REMARK  status: ('A' for Active; 'I' for Inactive)
REMARK    1  A    between atoms: C_1  and  C_2
REMARK    2  A    between atoms: C_2  and  C_3
REMARK    3  A    between atoms: C_2  and  C_4
REMARK    4  A    between atoms: C_2  and  C_5
REMARK    5  A    between atoms: C_9  and  C_10
REMARK    6  A    between atoms: N_16  and  C_17
REMARK    7  A    between atoms: C_17  and  C_18
REMARK                            x       y       z     vdW  Elec       q    Type
REMARK                         _______ _______ _______ _____ _____    ______ ____
ROOT
ATOM      1  C   UNL     1      47.707   6.762  14.173  0.00  0.00    +0.000 A 
ATOM      2  N   UNL     1      47.494   5.470  13.975  0.00  0.00    +0.000 NA
ATOM      3  C   UNL     1      46.508   5.352  13.044  0.00  0.00    +0.000 A 
ATOM      4  C   UNL     1      45.919   4.201  12.522  0.00  0.00    +0.000 A 
ATOM      5  C   UNL     1      44.921   4.414  11.587  0.00  0.00    +0.000 A 
ATOM      6  N   UNL     1      44.524   5.640  11.130  0.00  0.00    +0.000 NA
ATOM      7  C   UNL     1      45.115   6.750  11.637  0.00  0.00    +0.000 A 
ATOM      8  C   UNL     1      46.087   6.603  12.623  0.00  0.00    +0.000 A 
ATOM      9  N   UNL     1      46.800   7.495  13.415  0.00  0.00    +0.000 N 
ENDROOT
BRANCH   5  10
ATOM     10  C   UNL     1      44.177   3.226  11.051  0.00  0.00    +0.000 C 
ATOM     11  N   UNL     1      44.834   2.485  10.104  0.00  0.00    +0.000 N 
ATOM     12  O   UNL     1      43.044   2.935  11.412  0.00  0.00    +0.000 OA
ATOM     13  H   UNL     1      45.762   2.763   9.803  0.00  0.00    +0.000 HD
ATOM     14  H   UNL     1      44.368   1.699   9.682  0.00  0.00    +0.000 HD
ENDBRANCH   5  10
BRANCH   1  16
ATOM     15  C   UNL     1      49.034   6.257  16.229  0.00  0.00    +0.000 C 
ATOM     16  C   UNL     1      48.818   7.285  15.087  0.00  0.00    +0.000 C 
ATOM     17  C   UNL     1      48.458   8.618  15.758  0.00  0.00    +0.000 C 
ATOM     18  C   UNL     1      50.155   7.409  14.338  0.00  0.00    +0.000 C 
ENDBRANCH   1  16
BRANCH   9  19
ATOM     19  C   UNL     1      46.578   8.936  13.412  0.00  0.00    +0.000 C 
BRANCH  19  20
ATOM     20  C   UNL     1      47.308   9.681  12.318  0.00  0.00    +0.000 A 
ATOM     21  C   UNL     1      48.653   9.463  11.988  0.00  0.00    +0.000 A 
ATOM     22  C   UNL     1      49.296  10.268  11.043  0.00  0.00    +0.000 A 
ATOM     23  C   UNL     1      48.606  11.300  10.409  0.00  0.00    +0.000 A 
ATOM     24  C   UNL     1      47.265  11.516  10.705  0.00  0.00    +0.000 A 
ATOM     25  C   UNL     1      46.633  10.715  11.653  0.00  0.00    +0.000 A 
ATOM     26  F   UNL     1      45.342  10.947  11.930  0.00  0.00    +0.000 F 
ENDBRANCH  19  20
ENDBRANCH   9  19
TORSDOF 4
ENDMDL
MODEL 7
REMARK VINA RESULT:    -6.165      3.508      6.847
REMARK INTER + INTRA:          -7.974
REMARK INTER:                  -7.063
REMARK INTRA:                  -0.911
REMARK UNBOUND:                -0.368
REMARK  Name = 
REMARK  7 active torsions:
REMARK  status: ('A' for Active; 'I' for Inactive)
REMARK    1  A    between atoms: C_1  and  C_2
REMARK    2  A    between atoms: C_2  and  C_3
REMARK    3  A    between atoms: C_2  and  C_4
REMARK    4  A    between atoms: C_2  and  C_5
REMARK    5  A    between atoms: C_9  and  C_10
REMARK    6  A    between atoms: N_16  and  C_17
REMARK    7  A    between atoms: C_17  and  C_18
REMARK                            x       y       z     vdW  Elec       q    Type
REMARK                         _______ _______ _______ _____ _____    ______ ____
ROOT
ATOM      1  C   UNL     1      47.783   4.786  16.078  0.00  0.00    +0.000 A 
ATOM      2  N   UNL     1      46.743   4.341  15.390  0.00  0.00    +0.000 NA
ATOM      3  C   UNL     1      46.718   5.004  14.202  0.00  0.00    +0.000 A 
ATOM      4  C   UNL     1      45.806   4.903  13.152  0.00  0.00    +0.000 A 
ATOM      5  C   UNL     1      46.051   5.730  12.069  0.00  0.00    +0.000 A 
ATOM      6  N   UNL     1      47.118   6.577  11.955  0.00  0.00    +0.000 NA
ATOM      7  C   UNL     1      48.004   6.655  12.979  0.00  0.00    +0.000 A 
ATOM      8  C   UNL     1      47.782   5.889  14.119  0.00  0.00    +0.000 A 
ATOM      9  N   UNL     1      48.403   5.803  15.359  0.00  0.00    +0.000 N 
ENDROOT
BRANCH   5  10
ATOM     10  C   UNL     1      45.060   5.745  10.942  0.00  0.00    +0.000 C 
ATOM     11  N   UNL     1      45.578   5.561   9.687  0.00  0.00    +0.000 N 
ATOM     12  O   UNL     1      43.862   5.929  11.115  0.00  0.00    +0.000 OA
ATOM     13  H   UNL     1      46.577   5.437   9.569  0.00  0.00    +0.000 HD
ATOM     14  H   UNL     1      44.964   5.600   8.890  0.00  0.00    +0.000 HD
ENDBRANCH   5  10
BRANCH   1  16
ATOM     15  C   UNL     1      47.462   2.841  17.614  0.00  0.00    +0.000 C 
ATOM     16  C   UNL     1      48.189   4.199  17.433  0.00  0.00    +0.000 C 
ATOM     17  C   UNL     1      47.768   5.085  18.614  0.00  0.00    +0.000 C 
ATOM     18  C   UNL     1      49.698   3.911  17.494  0.00  0.00    +0.000 C 
ENDBRANCH   1  16
BRANCH   9  19
ATOM     19  C   UNL     1      49.502   6.666  15.776  0.00  0.00    +0.000 C 
BRANCH  19  20
ATOM     20  C   UNL     1      49.097   7.802  16.687  0.00  0.00    +0.000 A 
ATOM     21  C   UNL     1      48.196   8.813  16.321  0.00  0.00    +0.000 A 
ATOM     22  C   UNL     1      47.955   9.897  17.171  0.00  0.00    +0.000 A 
ATOM     23  C   UNL     1      48.604   9.986  18.402  0.00  0.00    +0.000 A 
ATOM     24  C   UNL     1      49.482   8.980  18.792  0.00  0.00    +0.000 A 
ATOM     25  C   UNL     1      49.723   7.908  17.936  0.00  0.00    +0.000 A 
ATOM     26  F   UNL     1      50.580   6.955  18.330  0.00  0.00    +0.000 F 
ENDBRANCH  19  20
ENDBRANCH   9  19
TORSDOF 4
ENDMDL
MODEL 8
REMARK VINA RESULT:    -5.553      2.981      5.559
REMARK INTER + INTRA:          -7.220
REMARK INTER:                  -6.559
REMARK INTRA:                  -0.661
REMARK UNBOUND:                -0.368
REMARK  Name = 
REMARK  7 active torsions:
REMARK  status: ('A' for Active; 'I' for Inactive)
REMARK    1  A    between atoms: C_1  and  C_2
REMARK    2  A    between atoms: C_2  and  C_3
REMARK    3  A    between atoms: C_2  and  C_4
REMARK    4  A    between atoms: C_2  and  C_5
REMARK    5  A    between atoms: C_9  and  C_10
REMARK    6  A    between atoms: N_16  and  C_17
REMARK    7  A    between atoms: C_17  and  C_18
REMARK                            x       y       z     vdW  Elec       q    Type
REMARK                         _______ _______ _______ _____ _____    ______ ____
ROOT
ATOM      1  C   UNL     1      47.530   8.421  12.596  0.00  0.00    +0.000 A 
ATOM      2  N   UNL     1      46.292   8.186  12.187  0.00  0.00    +0.000 NA
ATOM      3  C   UNL     1      45.952   6.933  12.599  0.00  0.00    +0.000 A 
ATOM      4  C   UNL     1      44.767   6.228  12.394  0.00  0.00    +0.000 A 
ATOM      5  C   UNL     1      44.732   4.953  12.935  0.00  0.00    +0.000 A 
ATOM      6  N   UNL     1      45.736   4.386  13.669  0.00  0.00    +0.000 NA
ATOM      7  C   UNL     1      46.877   5.091  13.872  0.00  0.00    +0.000 A 
ATOM      8  C   UNL     1      46.995   6.356  13.304  0.00  0.00    +0.000 A 
ATOM      9  N   UNL     1      48.028   7.282  13.220  0.00  0.00    +0.000 N 
ENDROOT
BRANCH   5  10
ATOM     10  C   UNL     1      43.526   4.099  12.674  0.00  0.00    +0.000 C 
ATOM     11  N   UNL     1      42.464   4.728  12.082  0.00  0.00    +0.000 N 
ATOM     12  O   UNL     1      43.473   2.915  12.984  0.00  0.00    +0.000 OA
ATOM     13  H   UNL     1      42.524   5.716  11.859  0.00  0.00    +0.000 HD
ATOM     14  H   UNL     1      41.614   4.213  11.919  0.00  0.00    +0.000 HD
ENDBRANCH   5  10
BRANCH   1  16
ATOM     15  C   UNL     1      49.578   9.527  11.689  0.00  0.00    +0.000 C 
ATOM     16  C   UNL     1      48.221   9.773  12.398  0.00  0.00    +0.000 C 
ATOM     17  C   UNL     1      48.539  10.477  13.725  0.00  0.00    +0.000 C 
ATOM     18  C   UNL     1      47.400  10.699  11.486  0.00  0.00    +0.000 C 
ENDBRANCH   1  16
BRANCH   9  19
ATOM     19  C   UNL     1      49.379   7.035  13.710  0.00  0.00    +0.000 C 
BRANCH  19  20
ATOM     20  C   UNL     1      49.603   7.422  15.154  0.00  0.00    +0.000 A 
ATOM     21  C   UNL     1      48.794   6.988  16.214  0.00  0.00    +0.000 A 
ATOM     22  C   UNL     1      48.989   7.478  17.509  0.00  0.00    +0.000 A 
ATOM     23  C   UNL     1      49.999   8.404  17.768  0.00  0.00    +0.000 A 
ATOM     24  C   UNL     1      50.827   8.827  16.734  0.00  0.00    +0.000 A 
ATOM     25  C   UNL     1      50.621   8.341  15.445  0.00  0.00    +0.000 A 
ATOM     26  F   UNL     1      51.426   8.770  14.462  0.00  0.00    +0.000 F 
ENDBRANCH  19  20
ENDBRANCH   9  19
TORSDOF 4
ENDMDL
MODEL 9
REMARK VINA RESULT:    -4.843      2.594      5.131
REMARK INTER + INTRA:          -6.343
REMARK INTER:                  -5.584
REMARK INTRA:                  -0.759
REMARK UNBOUND:                -0.368
REMARK  Name = 
REMARK  7 active torsions:
REMARK  status: ('A' for Active; 'I' for Inactive)
REMARK    1  A    between atoms: C_1  and  C_2
REMARK    2  A    between atoms: C_2  and  C_3
REMARK    3  A    between atoms: C_2  and  C_4
REMARK    4  A    between atoms: C_2  and  C_5
REMARK    5  A    between atoms: C_9  and  C_10
REMARK    6  A    between atoms: N_16  and  C_17
REMARK    7  A    between atoms: C_17  and  C_18
REMARK                            x       y       z     vdW  Elec       q    Type
REMARK                         _______ _______ _______ _____ _____    ______ ____
ROOT
ATOM      1  C   UNL     1      46.914   6.478  13.589  0.00  0.00    +0.000 A 
ATOM      2  N   UNL     1      46.928   5.384  14.335  0.00  0.00    +0.000 NA
ATOM      3  C   UNL     1      47.903   5.535  15.273  0.00  0.00    +0.000 A 
ATOM      4  C   UNL     1      48.315   4.651  16.269  0.00  0.00    +0.000 A 
ATOM      5  C   UNL     1      49.354   5.097  17.069  0.00  0.00    +0.000 A 
ATOM      6  N   UNL     1      49.945   6.326  16.971  0.00  0.00    +0.000 NA
ATOM      7  C   UNL     1      49.524   7.181  16.006  0.00  0.00    +0.000 A 
ATOM      8  C   UNL     1      48.521   6.767  15.134  0.00  0.00    +0.000 A 
ATOM      9  N   UNL     1      47.940   7.323  14.001  0.00  0.00    +0.000 N 
ENDROOT
BRANCH   5  10
ATOM     10  C   UNL     1      49.915   4.163  18.101  0.00  0.00    +0.000 C 
ATOM     11  N   UNL     1      50.825   3.246  17.646  0.00  0.00    +0.000 N 
ATOM     12  O   UNL     1      49.574   4.192  19.276  0.00  0.00    +0.000 OA
ATOM     13  H   UNL     1      51.071   3.227  16.662  0.00  0.00    +0.000 HD
ATOM     14  H   UNL     1      51.205   2.569  18.286  0.00  0.00    +0.000 HD
ENDBRANCH   5  10
BRANCH   1  16
ATOM     15  C   UNL     1      44.649   5.811  12.771  0.00  0.00    +0.000 C 
ATOM     16  C   UNL     1      45.880   6.711  12.485  0.00  0.00    +0.000 C 
ATOM     17  C   UNL     1      46.398   6.320  11.093  0.00  0.00    +0.000 C 
ATOM     18  C   UNL     1      45.379   8.165  12.478  0.00  0.00    +0.000 C 
ENDBRANCH   1  16
BRANCH   9  19
ATOM     19  C   UNL     1      48.384   8.572  13.393  0.00  0.00    +0.000 C 
BRANCH  19  20
ATOM     20  C   UNL     1      49.674   8.467  12.613  0.00  0.00    +0.000 A 
ATOM     21  C   UNL     1      49.819   7.709  11.441  0.00  0.00    +0.000 A 
ATOM     22  C   UNL     1      51.071   7.564  10.835  0.00  0.00    +0.000 A 
ATOM     23  C   UNL     1      52.196   8.176  11.385  0.00  0.00    +0.000 A 
ATOM     24  C   UNL     1      52.067   8.951  12.532  0.00  0.00    +0.000 A 
ATOM     25  C   UNL     1      50.819   9.085  13.135  0.00  0.00    +0.000 A 
ATOM     26  F   UNL     1      50.720   9.830  14.246  0.00  0.00    +0.000 F 
ENDBRANCH  19  20
ENDBRANCH   9  19
TORSDOF 4
ENDMDL
