MODEL 1
REMARK VINA RESULT:    -7.895      0.000      0.000
REMARK INTER + INTRA:         -12.283
REMARK INTER:                 -11.126
REMARK INTRA:                  -1.157
REMARK UNBOUND:                -1.157
REMARK  Name = 
REMARK  9 active torsions:
REMARK  status: ('A' for Active; 'I' for Inactive)
REMARK    1  A    between atoms: C_1  and  C_2
REMARK    2  A    between atoms: C_2  and  N_3
REMARK    3  A    between atoms: C_2  and  C_26
REMARK    4  A    between atoms: N_3  and  C_4
REMARK    5  A    between atoms: C_4  and  C_5
REMARK    6  A    between atoms: C_8  and  C_9
REMARK    7  A    between atoms: C_9  and  N_10
REMARK    8  A    between atoms: N_10  and  C_11
REMARK    9  A    between atoms: C_12  and  C_14
REMARK                            x       y       z     vdW  Elec       q    Type
REMARK                         _______ _______ _______ _____ _____    ______ ____
ROOT
ATOM      1  C   UNL     1      45.712   5.618  11.785  0.00  0.00    +0.000 A 
ATOM      2  C   UNL     1      46.423   6.741  11.344  0.00  0.00    +0.000 A 
ATOM      3  C   UNL     1      47.516   7.221  12.066  0.00  0.00    +0.000 A 
ATOM      4  C   UNL     1      47.912   6.614  13.267  0.00  0.00    +0.000 A 
ATOM      5  C   UNL     1      47.171   5.523  13.740  0.00  0.00    +0.000 A 
ATOM      6  C   UNL     1      46.090   5.027  13.001  0.00  0.00    +0.000 A 
ENDROOT
BRANCH   1   7
ATOM      7  C   UNL     1      44.534   5.085  11.001  0.00  0.00    +0.000 C 
BRANCH   7   8
ATOM      8  N   UNL     1      44.877   4.796   9.605  0.00  0.00    +0.000 NA
ATOM      9  H   UNL     1      44.357   5.432   9.000  0.00  0.00    +0.000 HD
BRANCH   8  11
ATOM     10  C   UNL     1      44.188   2.521  10.405  0.00  0.00    +0.000 C 
ATOM     11  C   UNL     1      44.501   3.422   9.204  0.00  0.00    +0.000 C 
BRANCH  11  12
ATOM     12  C   UNL     1      45.595   2.781   8.351  0.00  0.00    +0.000 A 
ATOM     13  C   UNL     1      46.340   3.538   7.445  0.00  0.00    +0.000 A 
ATOM     14  C   UNL     1      47.351   2.923   6.712  0.00  0.00    +0.000 A 
ATOM     15  C   UNL     1      47.591   1.568   6.890  0.00  0.00    +0.000 A 
ATOM     16  C   UNL     1      46.799   0.879   7.796  0.00  0.00    +0.000 A 
ATOM     17  N   UNL     1      45.814   1.449   8.523  0.00  0.00    +0.000 NA
ENDBRANCH  11  12
ENDBRANCH   8  11
ENDBRANCH   7   8
ENDBRANCH   1   7
BRANCH   4  18
ATOM     18  C   UNL     1      49.148   7.091  13.996  0.00  0.00    +0.000 C 
BRANCH  18  19
ATOM     19  N   UNL     1      48.982   7.519  15.388  0.00  0.00    +0.000 N 
ATOM     20  C   UNL     1      48.225   8.736  15.660  0.00  0.00    +0.000 C 
ATOM     21  C   UNL     1      49.815   6.881  16.328  0.00  0.00    +0.000 C 
ATOM     22  O   UNL     1      50.582   5.982  15.983  0.00  0.00    +0.000 OA
BRANCH  21  23
ATOM     23  C   UNL     1      49.737   7.263  17.743  0.00  0.00    +0.000 A 
ATOM     24  C   UNL     1      50.464   8.299  18.310  0.00  0.00    +0.000 A 
ATOM     25  S   UNL     1      50.137   8.533  19.968  0.00  0.00    +0.000 S 
ATOM     26  C   UNL     1      48.914   7.352  19.950  0.00  0.00    +0.000 A 
ATOM     27  N   UNL     1      48.160   7.113  21.058  0.00  0.00    +0.000 NA
ATOM     28  C   UNL     1      47.224   6.242  20.880  0.00  0.00    +0.000 A 
ATOM     29  N   UNL     1      46.997   5.563  19.709  0.00  0.00    +0.000 N 
ATOM     30  C   UNL     1      47.820   5.673  18.604  0.00  0.00    +0.000 A 
ATOM     31  O   UNL     1      47.721   4.887  17.672  0.00  0.00    +0.000 OA
ATOM     32  C   UNL     1      48.812   6.728  18.720  0.00  0.00    +0.000 A 
ATOM     33  H   UNL     1      46.287   4.849  19.656  0.00  0.00    +0.000 HD
ENDBRANCH  21  23
ENDBRANCH  18  19
ENDBRANCH   4  18
TORSDOF 7
ENDMDL
MODEL 2
REMARK VINA RESULT:    -7.648      1.643      1.828
REMARK INTER + INTRA:         -11.935
REMARK INTER:                 -10.680
REMARK INTRA:                  -1.255
REMARK UNBOUND:                -1.157
REMARK  Name = 
REMARK  9 active torsions:
REMARK  status: ('A' for Active; 'I' for Inactive)
REMARK    1  A    between atoms: C_1  and  C_2
REMARK    2  A    between atoms: C_2  and  N_3
REMARK    3  A    between atoms: C_2  and  C_26
REMARK    4  A    between atoms: N_3  and  C_4
REMARK    5  A    between atoms: C_4  and  C_5
REMARK    6  A    between atoms: C_8  and  C_9
REMARK    7  A    between atoms: C_9  and  N_10
REMARK    8  A    between atoms: N_10  and  C_11
REMARK    9  A    between atoms: C_12  and  C_14
REMARK                            x       y       z     vdW  Elec       q    Type
REMARK                         _______ _______ _______ _____ _____    ______ ____
ROOT
ATOM      1  C   UNL     1      44.992   6.443  11.577  0.00  0.00    +0.000 A 
ATOM      2  C   UNL     1      46.337   6.162  11.306  0.00  0.00    +0.000 A 
ATOM      3  C   UNL     1      47.355   6.928  11.876  0.00  0.00    +0.000 A 
ATOM      4  C   UNL     1      47.059   8.018  12.709  0.00  0.00    +0.000 A 
ATOM      5  C   UNL     1      45.715   8.336  12.940  0.00  0.00    +0.000 A 
ATOM      6  C   UNL     1      44.694   7.551  12.388  0.00  0.00    +0.000 A 
ENDROOT
BRANCH   1   7
ATOM      7  C   UNL     1      43.885   5.609  10.973  0.00  0.00    +0.000 C 
BRANCH   7   8
ATOM      8  N   UNL     1      44.243   5.075   9.656  0.00  0.00    +0.000 NA
ATOM      9  H   UNL     1      43.577   5.425   8.967  0.00  0.00    +0.000 HD
BRANCH   8  11
ATOM     10  C   UNL     1      44.295   2.955  10.994  0.00  0.00    +0.000 C 
ATOM     11  C   UNL     1      44.174   3.598   9.606  0.00  0.00    +0.000 C 
BRANCH  11  12
ATOM     12  C   UNL     1      45.247   3.029   8.679  0.00  0.00    +0.000 A 
ATOM     13  C   UNL     1      45.950   3.853   7.798  0.00  0.00    +0.000 A 
ATOM     14  C   UNL     1      46.944   3.301   6.995  0.00  0.00    +0.000 A 
ATOM     15  C   UNL     1      47.208   1.941   7.079  0.00  0.00    +0.000 A 
ATOM     16  C   UNL     1      46.458   1.185   7.966  0.00  0.00    +0.000 A 
ATOM     17  N   UNL     1      45.490   1.693   8.760  0.00  0.00    +0.000 NA
ENDBRANCH  11  12
ENDBRANCH   8  11
ENDBRANCH   7   8
ENDBRANCH   1   7
BRANCH   4  18
ATOM     18  C   UNL     1      48.170   8.788  13.387  0.00  0.00    +0.000 C 
BRANCH  18  19
ATOM     19  N   UNL     1      48.550   8.365  14.737  0.00  0.00    +0.000 N 
ATOM     20  C   UNL     1      48.029   9.111  15.877  0.00  0.00    +0.000 C 
ATOM     21  C   UNL     1      49.623   7.454  14.814  0.00  0.00    +0.000 C 
ATOM     22  O   UNL     1      50.150   7.012  13.793  0.00  0.00    +0.000 OA
BRANCH  21  23
ATOM     23  C   UNL     1      50.091   6.994  16.127  0.00  0.00    +0.000 A 
ATOM     24  C   UNL     1      51.103   7.606  16.850  0.00  0.00    +0.000 A 
ATOM     25  S   UNL     1      51.404   6.870  18.360  0.00  0.00    +0.000 S 
ATOM     26  C   UNL     1      50.100   5.797  18.158  0.00  0.00    +0.000 A 
ATOM     27  N   UNL     1      49.749   4.933  19.149  0.00  0.00    +0.000 NA
ATOM     28  C   UNL     1      48.700   4.228  18.886  0.00  0.00    +0.000 A 
ATOM     29  N   UNL     1      47.992   4.284  17.712  0.00  0.00    +0.000 N 
ATOM     30  C   UNL     1      48.390   5.044  16.629  0.00  0.00    +0.000 A 
ATOM     31  O   UNL     1      47.870   4.889  15.532  0.00  0.00    +0.000 OA
ATOM     32  C   UNL     1      49.496   5.941  16.921  0.00  0.00    +0.000 A 
ATOM     33  H   UNL     1      47.217   3.660  17.546  0.00  0.00    +0.000 HD
ENDBRANCH  21  23
ENDBRANCH  18  19
ENDBRANCH   4  18
TORSDOF 7
ENDMDL
MODEL 3
REMARK VINA RESULT:    -7.195      1.791      2.227
REMARK INTER + INTRA:         -11.297
REMARK INTER:                 -10.263
REMARK INTRA:                  -1.034
REMARK UNBOUND:                -1.157
REMARK  Name = 
REMARK  9 active torsions:
REMARK  status: ('A' for Active; 'I' for Inactive)
REMARK    1  A    between atoms: C_1  and  C_2
REMARK    2  A    between atoms: C_2  and  N_3
REMARK    3  A    between atoms: C_2  and  C_26
REMARK    4  A    between atoms: N_3  and  C_4
REMARK    5  A    between atoms: C_4  and  C_5
REMARK    6  A    between atoms: C_8  and  C_9
REMARK    7  A    between atoms: C_9  and  N_10
REMARK    8  A    between atoms: N_10  and  C_11
REMARK    9  A    between atoms: C_12  and  C_14
REMARK                            x       y       z     vdW  Elec       q    Type
REMARK                         _______ _______ _______ _____ _____    ______ ____
ROOT
ATOM      1  C   UNL     1      45.620   6.702  11.920  0.00  0.00    +0.000 A 
ATOM      2  C   UNL     1      45.303   7.998  12.350  0.00  0.00    +0.000 A 
ATOM      3  C   UNL     1      46.283   8.830  12.891  0.00  0.00    +0.000 A 
ATOM      4  C   UNL     1      47.603   8.382  13.050  0.00  0.00    +0.000 A 
ATOM      5  C   UNL     1      47.914   7.071  12.671  0.00  0.00    +0.000 A 
ATOM      6  C   UNL     1      46.935   6.245  12.104  0.00  0.00    +0.000 A 
ENDROOT
BRANCH   1   7
ATOM      7  C   UNL     1      44.565   5.800  11.321  0.00  0.00    +0.000 C 
BRANCH   7   8
ATOM      8  N   UNL     1      44.825   5.497   9.910  0.00  0.00    +0.000 NA
ATOM      9  H   UNL     1      44.362   6.199   9.332  0.00  0.00    +0.000 HD
BRANCH   8  11
ATOM     10  C   UNL     1      43.872   3.317  10.704  0.00  0.00    +0.000 C 
ATOM     11  C   UNL     1      44.279   4.183   9.505  0.00  0.00    +0.000 C 
BRANCH  11  12
ATOM     12  C   UNL     1      45.276   3.419   8.634  0.00  0.00    +0.000 A 
ATOM     13  C   UNL     1      45.493   2.052   8.816  0.00  0.00    +0.000 A 
ATOM     14  C   UNL     1      46.384   1.386   7.980  0.00  0.00    +0.000 A 
ATOM     15  C   UNL     1      47.046   2.097   6.988  0.00  0.00    +0.000 A 
ATOM     16  C   UNL     1      46.790   3.455   6.879  0.00  0.00    +0.000 A 
ATOM     17  N   UNL     1      45.928   4.127   7.673  0.00  0.00    +0.000 NA
ENDBRANCH  11  12
ENDBRANCH   8  11
ENDBRANCH   7   8
ENDBRANCH   1   7
BRANCH   4  18
ATOM     18  C   UNL     1      48.674   9.321  13.559  0.00  0.00    +0.000 C 
BRANCH  18  19
ATOM     19  N   UNL     1      49.581   8.806  14.588  0.00  0.00    +0.000 N 
ATOM     20  C   UNL     1      50.816   8.153  14.169  0.00  0.00    +0.000 C 
ATOM     21  C   UNL     1      49.046   8.722  15.889  0.00  0.00    +0.000 C 
ATOM     22  O   UNL     1      47.906   9.119  16.130  0.00  0.00    +0.000 OA
BRANCH  21  23
ATOM     23  C   UNL     1      49.875   8.194  16.981  0.00  0.00    +0.000 A 
ATOM     24  C   UNL     1      50.626   8.982  17.838  0.00  0.00    +0.000 A 
ATOM     25  S   UNL     1      51.457   8.091  19.032  0.00  0.00    +0.000 S 
ATOM     26  C   UNL     1      50.731   6.637  18.530  0.00  0.00    +0.000 A 
ATOM     27  N   UNL     1      50.955   5.478  19.206  0.00  0.00    +0.000 NA
ATOM     28  C   UNL     1      50.285   4.469  18.757  0.00  0.00    +0.000 A 
ATOM     29  N   UNL     1      49.441   4.507  17.675  0.00  0.00    +0.000 N 
ATOM     30  C   UNL     1      49.289   5.626  16.879  0.00  0.00    +0.000 A 
ATOM     31  O   UNL     1      48.715   5.551  15.801  0.00  0.00    +0.000 OA
ATOM     32  C   UNL     1      49.931   6.814  17.415  0.00  0.00    +0.000 A 
ATOM     33  H   UNL     1      48.996   3.667  17.339  0.00  0.00    +0.000 HD
ENDBRANCH  21  23
ENDBRANCH  18  19
ENDBRANCH   4  18
TORSDOF 7
ENDMDL
MODEL 4
REMARK VINA RESULT:    -6.831      2.258      3.003
REMARK INTER + INTRA:         -10.784
REMARK INTER:                  -9.855
REMARK INTRA:                  -0.928
REMARK UNBOUND:                -1.157
REMARK  Name = 
REMARK  9 active torsions:
REMARK  status: ('A' for Active; 'I' for Inactive)
REMARK    1  A    between atoms: C_1  and  C_2
REMARK    2  A    between atoms: C_2  and  N_3
REMARK    3  A    between atoms: C_2  and  C_26
REMARK    4  A    between atoms: N_3  and  C_4
REMARK    5  A    between atoms: C_4  and  C_5
REMARK    6  A    between atoms: C_8  and  C_9
REMARK    7  A    between atoms: C_9  and  N_10
REMARK    8  A    between atoms: N_10  and  C_11
REMARK    9  A    between atoms: C_12  and  C_14
REMARK                            x       y       z     vdW  Elec       q    Type
REMARK                         _______ _______ _______ _____ _____    ______ ____
ROOT
ATOM      1  C   UNL     1      44.869   5.612  11.239  0.00  0.00    +0.000 A 
ATOM      2  C   UNL     1      46.024   5.996  10.545  0.00  0.00    +0.000 A 
ATOM      3  C   UNL     1      46.929   6.895  11.110  0.00  0.00    +0.000 A 
ATOM      4  C   UNL     1      46.691   7.464  12.370  0.00  0.00    +0.000 A 
ATOM      5  C   UNL     1      45.511   7.125  13.044  0.00  0.00    +0.000 A 
ATOM      6  C   UNL     1      44.616   6.202  12.487  0.00  0.00    +0.000 A 
ENDROOT
BRANCH   1   7
ATOM      7  C   UNL     1      43.891   4.627  10.637  0.00  0.00    +0.000 C 
BRANCH   7   8
ATOM      8  N   UNL     1      44.103   4.436   9.200  0.00  0.00    +0.000 NA
ATOM      9  H   UNL     1      43.280   4.770   8.698  0.00  0.00    +0.000 HD
BRANCH   8  11
ATOM     10  C   UNL     1      44.307   2.091  10.065  0.00  0.00    +0.000 C 
ATOM     11  C   UNL     1      44.275   3.012   8.838  0.00  0.00    +0.000 C 
BRANCH  11  12
ATOM     12  C   UNL     1      45.541   2.805   8.007  0.00  0.00    +0.000 A 
ATOM     13  C   UNL     1      46.265   1.613   8.081  0.00  0.00    +0.000 A 
ATOM     14  C   UNL     1      47.394   1.452   7.282  0.00  0.00    +0.000 A 
ATOM     15  C   UNL     1      47.781   2.482   6.436  0.00  0.00    +0.000 A 
ATOM     16  C   UNL     1      47.021   3.641   6.430  0.00  0.00    +0.000 A 
ATOM     17  N   UNL     1      45.920   3.825   7.191  0.00  0.00    +0.000 NA
ENDBRANCH  11  12
ENDBRANCH   8  11
ENDBRANCH   7   8
ENDBRANCH   1   7
BRANCH   4  18
ATOM     18  C   UNL     1      47.718   8.373  13.007  0.00  0.00    +0.000 C 
BRANCH  18  19
ATOM     19  N   UNL     1      48.109   8.078  14.388  0.00  0.00    +0.000 N 
ATOM     20  C   UNL     1      48.062   9.152  15.374  0.00  0.00    +0.000 C 
ATOM     21  C   UNL     1      48.779   6.854  14.586  0.00  0.00    +0.000 C 
ATOM     22  O   UNL     1      48.958   6.073  13.651  0.00  0.00    +0.000 OA
BRANCH  21  23
ATOM     23  C   UNL     1      49.231   6.485  15.934  0.00  0.00    +0.000 A 
ATOM     24  C   UNL     1      48.435   5.847  16.873  0.00  0.00    +0.000 A 
ATOM     25  S   UNL     1      49.244   5.512  18.337  0.00  0.00    +0.000 S 
ATOM     26  C   UNL     1      50.721   6.082  17.715  0.00  0.00    +0.000 A 
ATOM     27  N   UNL     1      51.864   5.997  18.448  0.00  0.00    +0.000 NA
ATOM     28  C   UNL     1      52.920   6.402  17.825  0.00  0.00    +0.000 A 
ATOM     29  N   UNL     1      52.931   6.917  16.552  0.00  0.00    +0.000 N 
ATOM     30  C   UNL     1      51.779   7.147  15.825  0.00  0.00    +0.000 A 
ATOM     31  O   UNL     1      51.812   7.816  14.800  0.00  0.00    +0.000 OA
ATOM     32  C   UNL     1      50.582   6.598  16.439  0.00  0.00    +0.000 A 
ATOM     33  H   UNL     1      53.783   7.273  16.147  0.00  0.00    +0.000 HD
ENDBRANCH  21  23
ENDBRANCH  18  19
ENDBRANCH   4  18
TORSDOF 7
ENDMDL
MODEL 5
REMARK VINA RESULT:    -6.558      1.967      2.603
REMARK INTER + INTRA:         -10.398
REMARK INTER:                  -9.418
REMARK INTRA:                  -0.980
REMARK UNBOUND:                -1.157
REMARK  Name = 
REMARK  9 active torsions:
REMARK  status: ('A' for Active; 'I' for Inactive)
REMARK    1  A    between atoms: C_1  and  C_2
REMARK    2  A    between atoms: C_2  and  N_3
REMARK    3  A    between atoms: C_2  and  C_26
REMARK    4  A    between atoms: N_3  and  C_4
REMARK    5  A    between atoms: C_4  and  C_5
REMARK    6  A    between atoms: C_8  and  C_9
REMARK    7  A    between atoms: C_9  and  N_10
REMARK    8  A    between atoms: N_10  and  C_11
REMARK    9  A    between atoms: C_12  and  C_14
REMARK                            x       y       z     vdW  Elec       q    Type
REMARK                         _______ _______ _______ _____ _____    ______ ____
ROOT
ATOM      1  C   UNL     1      45.633   6.521  11.531  0.00  0.00    +0.000 A 
ATOM      2  C   UNL     1      47.012   6.389  11.317  0.00  0.00    +0.000 A 
ATOM      3  C   UNL     1      47.926   7.084  12.109  0.00  0.00    +0.000 A 
ATOM      4  C   UNL     1      47.491   7.956  13.118  0.00  0.00    +0.000 A 
ATOM      5  C   UNL     1      46.114   8.133  13.300  0.00  0.00    +0.000 A 
ATOM      6  C   UNL     1      45.197   7.415  12.521  0.00  0.00    +0.000 A 
ENDROOT
BRANCH   1   7
ATOM      7  C   UNL     1      44.638   5.760  10.684  0.00  0.00    +0.000 C 
BRANCH   7   8
ATOM      8  N   UNL     1      45.228   5.266   9.436  0.00  0.00    +0.000 NA
ATOM      9  H   UNL     1      45.029   5.935   8.691  0.00  0.00    +0.000 HD
BRANCH   8  11
ATOM     10  C   UNL     1      44.234   3.094  10.200  0.00  0.00    +0.000 C 
ATOM     11  C   UNL     1      44.652   3.971   9.012  0.00  0.00    +0.000 C 
BRANCH  11  12
ATOM     12  C   UNL     1      45.627   3.201   8.123  0.00  0.00    +0.000 A 
ATOM     13  C   UNL     1      45.977   1.880   8.410  0.00  0.00    +0.000 A 
ATOM     14  C   UNL     1      46.842   1.203   7.555  0.00  0.00    +0.000 A 
ATOM     15  C   UNL     1      47.347   1.858   6.441  0.00  0.00    +0.000 A 
ATOM     16  C   UNL     1      46.967   3.174   6.231  0.00  0.00    +0.000 A 
ATOM     17  N   UNL     1      46.127   3.856   7.040  0.00  0.00    +0.000 NA
ENDBRANCH  11  12
ENDBRANCH   8  11
ENDBRANCH   7   8
ENDBRANCH   1   7
BRANCH   4  18
ATOM     18  C   UNL     1      48.491   8.639  14.023  0.00  0.00    +0.000 C 
BRANCH  18  19
ATOM     19  N   UNL     1      48.675   8.075  15.364  0.00  0.00    +0.000 N 
ATOM     20  C   UNL     1      48.680   6.625  15.518  0.00  0.00    +0.000 C 
ATOM     21  C   UNL     1      48.537   8.982  16.433  0.00  0.00    +0.000 C 
ATOM     22  O   UNL     1      48.334  10.178  16.224  0.00  0.00    +0.000 OA
BRANCH  21  23
ATOM     23  C   UNL     1      48.679   8.502  17.814  0.00  0.00    +0.000 A 
ATOM     24  C   UNL     1      47.612   8.251  18.662  0.00  0.00    +0.000 A 
ATOM     25  S   UNL     1      48.083   7.666  20.195  0.00  0.00    +0.000 S 
ATOM     26  C   UNL     1      49.717   7.597  19.726  0.00  0.00    +0.000 A 
ATOM     27  N   UNL     1      50.661   7.091  20.566  0.00  0.00    +0.000 NA
ATOM     28  C   UNL     1      51.845   7.035  20.054  0.00  0.00    +0.000 A 
ATOM     29  N   UNL     1      52.176   7.470  18.795  0.00  0.00    +0.000 N 
ATOM     30  C   UNL     1      51.281   8.113  17.962  0.00  0.00    +0.000 A 
ATOM     31  O   UNL     1      51.669   8.688  16.954  0.00  0.00    +0.000 OA
ATOM     32  C   UNL     1      49.912   8.091  18.449  0.00  0.00    +0.000 A 
ATOM     33  H   UNL     1      53.134   7.454  18.479  0.00  0.00    +0.000 HD
ENDBRANCH  21  23
ENDBRANCH  18  19
ENDBRANCH   4  18
TORSDOF 7
ENDMDL
MODEL 6
REMARK VINA RESULT:    -6.423      1.662      2.311
REMARK INTER + INTRA:         -10.208
REMARK INTER:                  -9.949
REMARK INTRA:                  -0.259
REMARK UNBOUND:                -1.157
REMARK  Name = 
REMARK  9 active torsions:
REMARK  status: ('A' for Active; 'I' for Inactive)
REMARK    1  A    between atoms: C_1  and  C_2
REMARK    2  A    between atoms: C_2  and  N_3
REMARK    3  A    between atoms: C_2  and  C_26
REMARK    4  A    between atoms: N_3  and  C_4
REMARK    5  A    between atoms: C_4  and  C_5
REMARK    6  A    between atoms: C_8  and  C_9
REMARK    7  A    between atoms: C_9  and  N_10
REMARK    8  A    between atoms: N_10  and  C_11
REMARK    9  A    between atoms: C_12  and  C_14
REMARK                            x       y       z     vdW  Elec       q    Type
REMARK                         _______ _______ _______ _____ _____    ______ ____
ROOT
ATOM      1  C   UNL     1      45.498   5.084  11.775  0.00  0.00    +0.000 A 
ATOM      2  C   UNL     1      45.933   6.102  12.634  0.00  0.00    +0.000 A 
ATOM      3  C   UNL     1      46.566   5.796  13.840  0.00  0.00    +0.000 A 
ATOM      4  C   UNL     1      46.755   4.464  14.238  0.00  0.00    +0.000 A 
ATOM      5  C   UNL     1      46.275   3.443  13.409  0.00  0.00    +0.000 A 
ATOM      6  C   UNL     1      45.662   3.751  12.187  0.00  0.00    +0.000 A 
ENDROOT
BRANCH   1   7
ATOM      7  C   UNL     1      44.823   5.409  10.462  0.00  0.00    +0.000 C 
BRANCH   7   8
ATOM      8  N   UNL     1      45.596   4.946   9.306  0.00  0.00    +0.000 NA
ATOM      9  H   UNL     1      45.714   5.724   8.656  0.00  0.00    +0.000 HD
BRANCH   8  11
ATOM     10  C   UNL     1      44.151   2.904   9.484  0.00  0.00    +0.000 C 
ATOM     11  C   UNL     1      44.910   3.867   8.562  0.00  0.00    +0.000 C 
BRANCH  11  12
ATOM     12  C   UNL     1      45.896   3.083   7.698  0.00  0.00    +0.000 A 
ATOM     13  C   UNL     1      46.407   3.622   6.515  0.00  0.00    +0.000 A 
ATOM     14  C   UNL     1      47.329   2.888   5.775  0.00  0.00    +0.000 A 
ATOM     15  C   UNL     1      47.716   1.632   6.222  0.00  0.00    +0.000 A 
ATOM     16  C   UNL     1      47.154   1.158   7.397  0.00  0.00    +0.000 A 
ATOM     17  N   UNL     1      46.259   1.848   8.138  0.00  0.00    +0.000 NA
ENDBRANCH  11  12
ENDBRANCH   8  11
ENDBRANCH   7   8
ENDBRANCH   1   7
BRANCH   4  18
ATOM     18  C   UNL     1      47.517   4.145  15.505  0.00  0.00    +0.000 C 
BRANCH  18  19
ATOM     19  N   UNL     1      48.021   5.277  16.287  0.00  0.00    +0.000 N 
ATOM     20  C   UNL     1      49.016   6.156  15.684  0.00  0.00    +0.000 C 
ATOM     21  C   UNL     1      47.721   5.252  17.664  0.00  0.00    +0.000 C 
ATOM     22  O   UNL     1      47.027   4.355  18.142  0.00  0.00    +0.000 OA
BRANCH  21  23
ATOM     23  C   UNL     1      48.207   6.333  18.531  0.00  0.00    +0.000 A 
ATOM     24  C   UNL     1      47.494   7.489  18.806  0.00  0.00    +0.000 A 
ATOM     25  S   UNL     1      48.297   8.547  19.876  0.00  0.00    +0.000 S 
ATOM     26  C   UNL     1      49.559   7.433  20.117  0.00  0.00    +0.000 A 
ATOM     27  N   UNL     1      50.555   7.692  21.007  0.00  0.00    +0.000 NA
ATOM     28  C   UNL     1      51.407   6.730  21.139  0.00  0.00    +0.000 A 
ATOM     29  N   UNL     1      51.372   5.551  20.437  0.00  0.00    +0.000 N 
ATOM     30  C   UNL     1      50.460   5.303  19.429  0.00  0.00    +0.000 A 
ATOM     31  O   UNL     1      50.606   4.348  18.677  0.00  0.00    +0.000 OA
ATOM     32  C   UNL     1      49.414   6.306  19.329  0.00  0.00    +0.000 A 
ATOM     33  H   UNL     1      52.104   4.865  20.543  0.00  0.00    +0.000 HD
ENDBRANCH  21  23
ENDBRANCH  18  19
ENDBRANCH   4  18
TORSDOF 7
ENDMDL
MODEL 7
REMARK VINA RESULT:    -6.285      4.542      6.230
REMARK INTER + INTRA:         -10.014
REMARK INTER:                  -8.742
REMARK INTRA:                  -1.272
REMARK UNBOUND:                -1.157
REMARK  Name = 
REMARK  9 active torsions:
REMARK  status: ('A' for Active; 'I' for Inactive)
REMARK    1  A    between atoms: C_1  and  C_2
REMARK    2  A    between atoms: C_2  and  N_3
REMARK    3  A    between atoms: C_2  and  C_26
REMARK    4  A    between atoms: N_3  and  C_4
REMARK    5  A    between atoms: C_4  and  C_5
REMARK    6  A    between atoms: C_8  and  C_9
REMARK    7  A    between atoms: C_9  and  N_10
REMARK    8  A    between atoms: N_10  and  C_11
REMARK    9  A    between atoms: C_12  and  C_14
REMARK                            x       y       z     vdW  Elec       q    Type
REMARK                         _______ _______ _______ _____ _____    ______ ____
ROOT
ATOM      1  C   UNL     1      45.682   7.173  11.881  0.00  0.00    +0.000 A 
ATOM      2  C   UNL     1      45.365   8.489  12.244  0.00  0.00    +0.000 A 
ATOM      3  C   UNL     1      46.340   9.339  12.767  0.00  0.00    +0.000 A 
ATOM      4  C   UNL     1      47.654   8.890  12.973  0.00  0.00    +0.000 A 
ATOM      5  C   UNL     1      47.963   7.561  12.661  0.00  0.00    +0.000 A 
ATOM      6  C   UNL     1      46.989   6.716  12.113  0.00  0.00    +0.000 A 
ENDROOT
BRANCH   1   7
ATOM      7  C   UNL     1      44.632   6.251  11.302  0.00  0.00    +0.000 C 
BRANCH   7   8
ATOM      8  N   UNL     1      45.067   4.851  11.284  0.00  0.00    +0.000 NA
ATOM      9  H   UNL     1      46.035   4.811  10.962  0.00  0.00    +0.000 HD
BRANCH   8  11
ATOM     10  C   UNL     1      43.541   2.874  11.057  0.00  0.00    +0.000 C 
ATOM     11  C   UNL     1      44.272   4.024  10.350  0.00  0.00    +0.000 C 
BRANCH  11  12
ATOM     12  C   UNL     1      45.147   3.466   9.229  0.00  0.00    +0.000 A 
ATOM     13  C   UNL     1      45.401   2.096   9.127  0.00  0.00    +0.000 A 
ATOM     14  C   UNL     1      46.176   1.624   8.071  0.00  0.00    +0.000 A 
ATOM     15  C   UNL     1      46.687   2.525   7.147  0.00  0.00    +0.000 A 
ATOM     16  C   UNL     1      46.404   3.871   7.324  0.00  0.00    +0.000 A 
ATOM     17  N   UNL     1      45.654   4.358   8.336  0.00  0.00    +0.000 NA
ENDBRANCH  11  12
ENDBRANCH   8  11
ENDBRANCH   7   8
ENDBRANCH   1   7
BRANCH   4  18
ATOM     18  C   UNL     1      48.721   9.845  13.461  0.00  0.00    +0.000 C 
BRANCH  18  19
ATOM     19  N   UNL     1      49.842  10.116  12.556  0.00  0.00    +0.000 N 
ATOM     20  C   UNL     1      49.559  10.678  11.240  0.00  0.00    +0.000 C 
ATOM     21  C   UNL     1      51.074   9.536  12.919  0.00  0.00    +0.000 C 
ATOM     22  O   UNL     1      51.188   8.898  13.965  0.00  0.00    +0.000 OA
BRANCH  21  23
ATOM     23  C   UNL     1      52.248   9.732  12.059  0.00  0.00    +0.000 A 
ATOM     24  C   UNL     1      53.185  10.737  12.240  0.00  0.00    +0.000 A 
ATOM     25  S   UNL     1      54.460  10.694  11.107  0.00  0.00    +0.000 S 
ATOM     26  C   UNL     1      53.877   9.249  10.425  0.00  0.00    +0.000 A 
ATOM     27  N   UNL     1      54.569   8.614   9.441  0.00  0.00    +0.000 NA
ATOM     28  C   UNL     1      54.047   7.495   9.067  0.00  0.00    +0.000 A 
ATOM     29  N   UNL     1      52.879   6.970   9.562  0.00  0.00    +0.000 N 
ATOM     30  C   UNL     1      52.075   7.644  10.461  0.00  0.00    +0.000 A 
ATOM     31  O   UNL     1      50.940   7.252  10.698  0.00  0.00    +0.000 OA
ATOM     32  C   UNL     1      52.682   8.850  10.997  0.00  0.00    +0.000 A 
ATOM     33  H   UNL     1      52.493   6.120   9.181  0.00  0.00    +0.000 HD
ENDBRANCH  21  23
ENDBRANCH  18  19
ENDBRANCH   4  18
TORSDOF 7
ENDMDL
MODEL 8
REMARK VINA RESULT:    -6.208      3.762      8.387
REMARK INTER + INTRA:          -9.905
REMARK INTER:                  -8.295
REMARK INTRA:                  -1.609
REMARK UNBOUND:                -1.157
REMARK  Name = 
REMARK  9 active torsions:
REMARK  status: ('A' for Active; 'I' for Inactive)
REMARK    1  A    between atoms: C_1  and  C_2
REMARK    2  A    between atoms: C_2  and  N_3
REMARK    3  A    between atoms: C_2  and  C_26
REMARK    4  A    between atoms: N_3  and  C_4
REMARK    5  A    between atoms: C_4  and  C_5
REMARK    6  A    between atoms: C_8  and  C_9
REMARK    7  A    between atoms: C_9  and  N_10
REMARK    8  A    between atoms: N_10  and  C_11
REMARK    9  A    between atoms: C_12  and  C_14
REMARK                            x       y       z     vdW  Elec       q    Type
REMARK                         _______ _______ _______ _____ _____    ______ ____
ROOT
ATOM      1  C   UNL     1      52.438   6.640  16.432  0.00  0.00    +0.000 A 
ATOM      2  C   UNL     1      52.959   7.421  15.392  0.00  0.00    +0.000 A 
ATOM      3  C   UNL     1      52.111   8.073  14.496  0.00  0.00    +0.000 A 
ATOM      4  C   UNL     1      50.718   7.939  14.592  0.00  0.00    +0.000 A 
ATOM      5  C   UNL     1      50.194   7.117  15.597  0.00  0.00    +0.000 A 
ATOM      6  C   UNL     1      51.045   6.483  16.511  0.00  0.00    +0.000 A 
ENDROOT
BRANCH   1   7
ATOM      7  C   UNL     1      53.352   5.941  17.413  0.00  0.00    +0.000 C 
BRANCH   7   8
ATOM      8  N   UNL     1      52.650   5.525  18.631  0.00  0.00    +0.000 NA
ATOM      9  H   UNL     1      53.190   5.826  19.442  0.00  0.00    +0.000 HD
BRANCH   8  11
ATOM     10  C   UNL     1      53.599   3.307  17.945  0.00  0.00    +0.000 C 
ATOM     11  C   UNL     1      52.513   4.055  18.731  0.00  0.00    +0.000 C 
BRANCH  11  12
ATOM     12  C   UNL     1      51.133   3.598  18.262  0.00  0.00    +0.000 A 
ATOM     13  C   UNL     1      50.993   2.586  17.309  0.00  0.00    +0.000 A 
ATOM     14  C   UNL     1      49.717   2.176  16.934  0.00  0.00    +0.000 A 
ATOM     15  C   UNL     1      48.610   2.786  17.507  0.00  0.00    +0.000 A 
ATOM     16  C   UNL     1      48.829   3.793  18.434  0.00  0.00    +0.000 A 
ATOM     17  N   UNL     1      50.055   4.211  18.820  0.00  0.00    +0.000 NA
ENDBRANCH  11  12
ENDBRANCH   8  11
ENDBRANCH   7   8
ENDBRANCH   1   7
BRANCH   4  18
ATOM     18  C   UNL     1      49.808   8.717  13.668  0.00  0.00    +0.000 C 
BRANCH  18  19
ATOM     19  N   UNL     1      48.766   7.965  12.964  0.00  0.00    +0.000 N 
ATOM     20  C   UNL     1      49.051   7.458  11.627  0.00  0.00    +0.000 C 
ATOM     21  C   UNL     1      47.473   8.046  13.519  0.00  0.00    +0.000 C 
ATOM     22  O   UNL     1      47.272   8.667  14.562  0.00  0.00    +0.000 OA
BRANCH  21  23
ATOM     23  C   UNL     1      46.359   7.345  12.867  0.00  0.00    +0.000 A 
ATOM     24  C   UNL     1      45.463   7.949  12.000  0.00  0.00    +0.000 A 
ATOM     25  S   UNL     1      44.297   6.875  11.368  0.00  0.00    +0.000 S 
ATOM     26  C   UNL     1      45.036   5.542  12.123  0.00  0.00    +0.000 A 
ATOM     27  N   UNL     1      44.573   4.280  11.916  0.00  0.00    +0.000 NA
ATOM     28  C   UNL     1      45.272   3.361  12.495  0.00  0.00    +0.000 A 
ATOM     29  N   UNL     1      46.367   3.592  13.288  0.00  0.00    +0.000 N 
ATOM     30  C   UNL     1      46.789   4.861  13.635  0.00  0.00    +0.000 A 
ATOM     31  O   UNL     1      47.617   5.023  14.523  0.00  0.00    +0.000 OA
ATOM     32  C   UNL     1      46.106   5.921  12.913  0.00  0.00    +0.000 A 
ATOM     33  H   UNL     1      46.832   2.832  13.762  0.00  0.00    +0.000 HD
ENDBRANCH  21  23
ENDBRANCH  18  19
ENDBRANCH   4  18
TORSDOF 7
ENDMDL
MODEL 9
REMARK VINA RESULT:    -6.082      1.636      2.294
REMARK INTER + INTRA:          -9.727
REMARK INTER:                  -8.858
REMARK INTRA:                  -0.869
REMARK UNBOUND:                -1.157
REMARK  Name = 
REMARK  9 active torsions:
REMARK  status: ('A' for Active; 'I' for Inactive)
REMARK    1  A    between atoms: C_1  and  C_2
REMARK    2  A    between atoms: C_2  and  N_3
REMARK    3  A    between atoms: C_2  and  C_26
REMARK    4  A    between atoms: N_3  and  C_4
REMARK    5  A    between atoms: C_4  and  C_5
REMARK    6  A    between atoms: C_8  and  C_9
REMARK    7  A    between atoms: C_9  and  N_10
REMARK    8  A    between atoms: N_10  and  C_11
REMARK    9  A    between atoms: C_12  and  C_14
REMARK                            x       y       z     vdW  Elec       q    Type
REMARK                         _______ _______ _______ _____ _____    ______ ____
ROOT
ATOM      1  C   UNL     1      47.199   7.068  12.197  0.00  0.00    +0.000 A 
ATOM      2  C   UNL     1      48.562   6.878  12.457  0.00  0.00    +0.000 A 
ATOM      3  C   UNL     1      49.211   7.626  13.441  0.00  0.00    +0.000 A 
ATOM      4  C   UNL     1      48.525   8.607  14.172  0.00  0.00    +0.000 A 
ATOM      5  C   UNL     1      47.175   8.837  13.879  0.00  0.00    +0.000 A 
ATOM      6  C   UNL     1      46.519   8.069  12.909  0.00  0.00    +0.000 A 
ENDROOT
BRANCH   1   7
ATOM      7  C   UNL     1      46.487   6.252  11.141  0.00  0.00    +0.000 C 
BRANCH   7   8
ATOM      8  N   UNL     1      45.359   5.492  11.688  0.00  0.00    +0.000 NA
ATOM      9  H   UNL     1      45.711   4.619  12.082  0.00  0.00    +0.000 HD
BRANCH   8  11
ATOM     10  C   UNL     1      43.088   4.526  11.246  0.00  0.00    +0.000 C 
ATOM     11  C   UNL     1      44.369   5.125  10.651  0.00  0.00    +0.000 C 
BRANCH  11  12
ATOM     12  C   UNL     1      44.970   4.152   9.639  0.00  0.00    +0.000 A 
ATOM     13  C   UNL     1      44.899   2.771   9.835  0.00  0.00    +0.000 A 
ATOM     14  C   UNL     1      45.428   1.917   8.872  0.00  0.00    +0.000 A 
ATOM     15  C   UNL     1      46.025   2.456   7.740  0.00  0.00    +0.000 A 
ATOM     16  C   UNL     1      46.071   3.836   7.623  0.00  0.00    +0.000 A 
ATOM     17  N   UNL     1      45.563   4.689   8.539  0.00  0.00    +0.000 NA
ENDBRANCH  11  12
ENDBRANCH   8  11
ENDBRANCH   7   8
ENDBRANCH   1   7
BRANCH   4  18
ATOM     18  C   UNL     1      49.218   9.351  15.292  0.00  0.00    +0.000 C 
BRANCH  18  19
ATOM     19  N   UNL     1      49.173   8.746  16.626  0.00  0.00    +0.000 N 
ATOM     20  C   UNL     1      48.079   9.105  17.521  0.00  0.00    +0.000 C 
ATOM     21  C   UNL     1      50.351   8.095  17.042  0.00  0.00    +0.000 C 
ATOM     22  O   UNL     1      51.321   8.002  16.289  0.00  0.00    +0.000 OA
BRANCH  21  23
ATOM     23  C   UNL     1      50.409   7.481  18.374  0.00  0.00    +0.000 A 
ATOM     24  C   UNL     1      50.935   8.104  19.495  0.00  0.00    +0.000 A 
ATOM     25  S   UNL     1      50.831   7.160  20.912  0.00  0.00    +0.000 S 
ATOM     26  C   UNL     1      49.955   5.946  20.105  0.00  0.00    +0.000 A 
ATOM     27  N   UNL     1      49.473   4.869  20.781  0.00  0.00    +0.000 NA
ATOM     28  C   UNL     1      48.769   4.064  20.057  0.00  0.00    +0.000 A 
ATOM     29  N   UNL     1      48.533   4.221  18.715  0.00  0.00    +0.000 N 
ATOM     30  C   UNL     1      49.114   5.223  17.961  0.00  0.00    +0.000 A 
ATOM     31  O   UNL     1      49.066   5.192  16.739  0.00  0.00    +0.000 OA
ATOM     32  C   UNL     1      49.816   6.217  18.755  0.00  0.00    +0.000 A 
ATOM     33  H   UNL     1      48.025   3.522  18.195  0.00  0.00    +0.000 HD
ENDBRANCH  21  23
ENDBRANCH  18  19
ENDBRANCH   4  18
TORSDOF 7
ENDMDL
