MODEL 1
REMARK VINA RESULT:    -7.812      0.000      0.000
REMARK INTER + INTRA:         -12.183
REMARK INTER:                 -11.009
REMARK INTRA:                  -1.174
REMARK UNBOUND:                -1.174
REMARK  Name = 
REMARK  8 active torsions:
REMARK  status: ('A' for Active; 'I' for Inactive)
REMARK    1  A    between atoms: C_1  and  O_2
REMARK    2  A    between atoms: O_2  and  C_3
REMARK    3  A    between atoms: C_7  and  C_8
REMARK    4  A    between atoms: N_10  and  C_11
REMARK    5  A    between atoms: C_11  and  C_12
REMARK    6  A    between atoms: C_15  and  C_16
REMARK    7  A    between atoms: C_16  and  N_17
REMARK    8  A    between atoms: C_18  and  C_20
REMARK                            x       y       z     vdW  Elec       q    Type
REMARK                         _______ _______ _______ _____ _____    ______ ____
ROOT
ATOM      1  C   UNL     1      45.284   6.720  11.376  0.00  0.00    +0.000 A 
ATOM      2  C   UNL     1      46.561   6.215  11.654  0.00  0.00    +0.000 A 
ATOM      3  C   UNL     1      47.408   6.867  12.559  0.00  0.00    +0.000 A 
ATOM      4  C   UNL     1      46.988   8.028  13.222  0.00  0.00    +0.000 A 
ATOM      5  C   UNL     1      45.730   8.560  12.906  0.00  0.00    +0.000 A 
ATOM      6  C   UNL     1      44.882   7.906  12.005  0.00  0.00    +0.000 A 
ENDROOT
BRANCH   1   7
ATOM      7  C   UNL     1      44.358   5.996  10.433  0.00  0.00    +0.000 C 
BRANCH   7  10
ATOM      8  C   UNL     1      44.729   3.812   9.357  0.00  0.00    +0.000 C 
ATOM      9  O   UNL     1      43.816   3.272   9.972  0.00  0.00    +0.000 OA
ATOM     10  N   UNL     1      45.066   5.142   9.510  0.00  0.00    +0.000 N 
ATOM     11  H   UNL     1      45.848   5.496   8.966  0.00  0.00    +0.000 HD
BRANCH   8  16
ATOM     12  C   UNL     1      46.551   1.051   7.798  0.00  0.00    +0.000 A 
ATOM     13  C   UNL     1      47.069   1.588   6.627  0.00  0.00    +0.000 A 
ATOM     14  C   UNL     1      46.814   2.925   6.341  0.00  0.00    +0.000 A 
ATOM     15  C   UNL     1      46.050   3.675   7.231  0.00  0.00    +0.000 A 
ATOM     16  C   UNL     1      45.571   3.049   8.378  0.00  0.00    +0.000 A 
ATOM     17  N   UNL     1      45.808   1.746   8.684  0.00  0.00    +0.000 NA
BRANCH  12  19
ATOM     18  C   UNL     1      46.412  -1.124   6.961  0.00  0.00    +0.000 C 
ATOM     19  O   UNL     1      46.821  -0.282   8.033  0.00  0.00    +0.000 OA
ENDBRANCH  12  19
ENDBRANCH   8  16
ENDBRANCH   7  10
ENDBRANCH   1   7
BRANCH   4  20
ATOM     20  C   UNL     1      47.866   8.698  14.250  0.00  0.00    +0.000 C 
BRANCH  20  21
ATOM     21  N   UNL     1      48.142   7.828  15.362  0.00  0.00    +0.000 N 
ATOM     22  C   UNL     1      49.342   7.169  15.479  0.00  0.00    +0.000 C 
ATOM     23  O   UNL     1      50.270   7.351  14.695  0.00  0.00    +0.000 OA
ATOM     24  H   UNL     1      47.337   7.478  15.870  0.00  0.00    +0.000 HD
BRANCH  22  25
ATOM     25  C   UNL     1      49.476   6.277  16.637  0.00  0.00    +0.000 A 
ATOM     26  C   UNL     1      50.441   6.525  17.604  0.00  0.00    +0.000 A 
ATOM     27  S   UNL     1      50.391   5.432  18.914  0.00  0.00    +0.000 S 
ATOM     28  C   UNL     1      49.113   4.557  18.207  0.00  0.00    +0.000 A 
ATOM     29  N   UNL     1      48.585   3.466  18.824  0.00  0.00    +0.000 NA
ATOM     30  C   UNL     1      47.639   2.883  18.159  0.00  0.00    +0.000 A 
ATOM     31  N   UNL     1      47.180   3.293  16.934  0.00  0.00    +0.000 N 
ATOM     32  C   UNL     1      47.677   4.394  16.282  0.00  0.00    +0.000 A 
ATOM     33  O   UNL     1      47.232   4.741  15.193  0.00  0.00    +0.000 OA
ATOM     34  C   UNL     1      48.731   5.091  16.990  0.00  0.00    +0.000 A 
ATOM     35  H   UNL     1      46.439   2.794  16.465  0.00  0.00    +0.000 HD
ENDBRANCH  22  25
ENDBRANCH  20  21
ENDBRANCH   4  20
TORSDOF 7
ENDMDL
MODEL 2
REMARK VINA RESULT:    -7.561      1.189      1.526
REMARK INTER + INTRA:         -11.829
REMARK INTER:                 -10.642
REMARK INTRA:                  -1.187
REMARK UNBOUND:                -1.174
REMARK  Name = 
REMARK  8 active torsions:
REMARK  status: ('A' for Active; 'I' for Inactive)
REMARK    1  A    between atoms: C_1  and  O_2
REMARK    2  A    between atoms: O_2  and  C_3
REMARK    3  A    between atoms: C_7  and  C_8
REMARK    4  A    between atoms: N_10  and  C_11
REMARK    5  A    between atoms: C_11  and  C_12
REMARK    6  A    between atoms: C_15  and  C_16
REMARK    7  A    between atoms: C_16  and  N_17
REMARK    8  A    between atoms: C_18  and  C_20
REMARK                            x       y       z     vdW  Elec       q    Type
REMARK                         _______ _______ _______ _____ _____    ______ ____
ROOT
ATOM      1  C   UNL     1      45.483   7.299  11.741  0.00  0.00    +0.000 A 
ATOM      2  C   UNL     1      46.666   6.592  11.995  0.00  0.00    +0.000 A 
ATOM      3  C   UNL     1      47.605   7.074  12.915  0.00  0.00    +0.000 A 
ATOM      4  C   UNL     1      47.372   8.265  13.617  0.00  0.00    +0.000 A 
ATOM      5  C   UNL     1      46.212   8.997  13.325  0.00  0.00    +0.000 A 
ATOM      6  C   UNL     1      45.272   8.512  12.408  0.00  0.00    +0.000 A 
ENDROOT
BRANCH   1   7
ATOM      7  C   UNL     1      44.454   6.759  10.780  0.00  0.00    +0.000 C 
BRANCH   7  10
ATOM      8  C   UNL     1      44.423   4.459   9.902  0.00  0.00    +0.000 C 
ATOM      9  O   UNL     1      43.448   4.138  10.573  0.00  0.00    +0.000 OA
ATOM     10  N   UNL     1      44.984   5.720   9.930  0.00  0.00    +0.000 N 
ATOM     11  H   UNL     1      45.800   5.886   9.348  0.00  0.00    +0.000 HD
BRANCH   8  16
ATOM     12  C   UNL     1      46.255   3.127   7.031  0.00  0.00    +0.000 A 
ATOM     13  C   UNL     1      46.366   1.766   7.285  0.00  0.00    +0.000 A 
ATOM     14  C   UNL     1      45.804   1.261   8.453  0.00  0.00    +0.000 A 
ATOM     15  C   UNL     1      45.155   2.132   9.325  0.00  0.00    +0.000 A 
ATOM     16  C   UNL     1      45.097   3.481   8.987  0.00  0.00    +0.000 A 
ATOM     17  N   UNL     1      45.634   4.000   7.851  0.00  0.00    +0.000 NA
BRANCH  12  19
ATOM     18  C   UNL     1      47.589   2.575   5.195  0.00  0.00    +0.000 C 
ATOM     19  O   UNL     1      46.838   3.583   5.866  0.00  0.00    +0.000 OA
ENDBRANCH  12  19
ENDBRANCH   8  16
ENDBRANCH   7  10
ENDBRANCH   1   7
BRANCH   4  20
ATOM     20  C   UNL     1      48.345   8.756  14.660  0.00  0.00    +0.000 C 
BRANCH  20  21
ATOM     21  N   UNL     1      48.521   7.797  15.718  0.00  0.00    +0.000 N 
ATOM     22  C   UNL     1      49.669   7.052  15.829  0.00  0.00    +0.000 C 
ATOM     23  O   UNL     1      50.637   7.223  15.092  0.00  0.00    +0.000 OA
ATOM     24  H   UNL     1      47.675   7.469  16.172  0.00  0.00    +0.000 HD
BRANCH  22  25
ATOM     25  C   UNL     1      49.700   6.077  16.926  0.00  0.00    +0.000 A 
ATOM     26  C   UNL     1      50.607   6.223  17.968  0.00  0.00    +0.000 A 
ATOM     27  S   UNL     1      50.437   5.043  19.190  0.00  0.00    +0.000 S 
ATOM     28  C   UNL     1      49.183   4.264  18.342  0.00  0.00    +0.000 A 
ATOM     29  N   UNL     1      48.582   3.152  18.844  0.00  0.00    +0.000 NA
ATOM     30  C   UNL     1      47.665   2.652  18.080  0.00  0.00    +0.000 A 
ATOM     31  N   UNL     1      47.300   3.161  16.862  0.00  0.00    +0.000 N 
ATOM     32  C   UNL     1      47.871   4.288  16.324  0.00  0.00    +0.000 A 
ATOM     33  O   UNL     1      47.510   4.726  15.236  0.00  0.00    +0.000 OA
ATOM     34  C   UNL     1      48.898   4.896  17.146  0.00  0.00    +0.000 A 
ATOM     35  H   UNL     1      46.575   2.724  16.312  0.00  0.00    +0.000 HD
ENDBRANCH  22  25
ENDBRANCH  20  21
ENDBRANCH   4  20
TORSDOF 7
ENDMDL
MODEL 3
REMARK VINA RESULT:    -7.404      3.271      4.309
REMARK INTER + INTRA:         -11.609
REMARK INTER:                 -10.635
REMARK INTRA:                  -0.974
REMARK UNBOUND:                -1.174
REMARK  Name = 
REMARK  8 active torsions:
REMARK  status: ('A' for Active; 'I' for Inactive)
REMARK    1  A    between atoms: C_1  and  O_2
REMARK    2  A    between atoms: O_2  and  C_3
REMARK    3  A    between atoms: C_7  and  C_8
REMARK    4  A    between atoms: N_10  and  C_11
REMARK    5  A    between atoms: C_11  and  C_12
REMARK    6  A    between atoms: C_15  and  C_16
REMARK    7  A    between atoms: C_16  and  N_17
REMARK    8  A    between atoms: C_18  and  C_20
REMARK                            x       y       z     vdW  Elec       q    Type
REMARK                         _______ _______ _______ _____ _____    ______ ____
ROOT
ATOM      1  C   UNL     1      47.279   6.357  13.644  0.00  0.00    +0.000 A 
ATOM      2  C   UNL     1      46.799   5.115  14.080  0.00  0.00    +0.000 A 
ATOM      3  C   UNL     1      47.230   4.566  15.295  0.00  0.00    +0.000 A 
ATOM      4  C   UNL     1      48.136   5.257  16.110  0.00  0.00    +0.000 A 
ATOM      5  C   UNL     1      48.655   6.475  15.649  0.00  0.00    +0.000 A 
ATOM      6  C   UNL     1      48.220   7.026  14.437  0.00  0.00    +0.000 A 
ENDROOT
BRANCH   1   7
ATOM      7  C   UNL     1      46.785   6.965  12.357  0.00  0.00    +0.000 C 
BRANCH   7  10
ATOM      8  C   UNL     1      45.280   5.694  10.881  0.00  0.00    +0.000 C 
ATOM      9  O   UNL     1      44.274   6.257  11.299  0.00  0.00    +0.000 OA
ATOM     10  N   UNL     1      46.553   5.976  11.332  0.00  0.00    +0.000 N 
ATOM     11  H   UNL     1      47.323   5.446  10.933  0.00  0.00    +0.000 HD
BRANCH   8  16
ATOM     12  C   UNL     1      45.795   3.922   7.723  0.00  0.00    +0.000 A 
ATOM     13  C   UNL     1      45.118   2.721   7.879  0.00  0.00    +0.000 A 
ATOM     14  C   UNL     1      44.452   2.485   9.077  0.00  0.00    +0.000 A 
ATOM     15  C   UNL     1      44.489   3.455  10.076  0.00  0.00    +0.000 A 
ATOM     16  C   UNL     1      45.198   4.627   9.829  0.00  0.00    +0.000 A 
ATOM     17  N   UNL     1      45.854   4.885   8.666  0.00  0.00    +0.000 NA
BRANCH  12  19
ATOM     18  C   UNL     1      47.022   2.903   6.017  0.00  0.00    +0.000 C 
ATOM     19  O   UNL     1      46.450   4.106   6.521  0.00  0.00    +0.000 OA
ENDBRANCH  12  19
ENDBRANCH   8  16
ENDBRANCH   7  10
ENDBRANCH   1   7
BRANCH   4  20
ATOM     20  C   UNL     1      48.553   4.706  17.451  0.00  0.00    +0.000 C 
BRANCH  20  21
ATOM     21  N   UNL     1      49.904   4.211  17.427  0.00  0.00    +0.000 N 
ATOM     22  C   UNL     1      50.722   4.302  18.526  0.00  0.00    +0.000 C 
ATOM     23  O   UNL     1      50.324   4.726  19.608  0.00  0.00    +0.000 OA
ATOM     24  H   UNL     1      50.321   4.090  16.511  0.00  0.00    +0.000 HD
BRANCH  22  25
ATOM     25  C   UNL     1      52.091   3.800  18.352  0.00  0.00    +0.000 A 
ATOM     26  C   UNL     1      53.178   4.617  18.634  0.00  0.00    +0.000 A 
ATOM     27  S   UNL     1      54.684   3.835  18.453  0.00  0.00    +0.000 S 
ATOM     28  C   UNL     1      53.938   2.393  17.940  0.00  0.00    +0.000 A 
ATOM     29  N   UNL     1      54.676   1.300  17.612  0.00  0.00    +0.000 NA
ATOM     30  C   UNL     1      53.977   0.285  17.213  0.00  0.00    +0.000 A 
ATOM     31  N   UNL     1      52.611   0.271  17.111  0.00  0.00    +0.000 N 
ATOM     32  C   UNL     1      51.827   1.348  17.443  0.00  0.00    +0.000 A 
ATOM     33  O   UNL     1      50.604   1.295  17.353  0.00  0.00    +0.000 OA
ATOM     34  C   UNL     1      52.560   2.508  17.908  0.00  0.00    +0.000 A 
ATOM     35  H   UNL     1      52.123  -0.553  16.792  0.00  0.00    +0.000 HD
ENDBRANCH  22  25
ENDBRANCH  20  21
ENDBRANCH   4  20
TORSDOF 7
ENDMDL
MODEL 4
REMARK VINA RESULT:    -7.253      3.324      5.013
REMARK INTER + INTRA:         -11.395
REMARK INTER:                 -10.551
REMARK INTRA:                  -0.844
REMARK UNBOUND:                -1.174
REMARK  Name = 
REMARK  8 active torsions:
REMARK  status: ('A' for Active; 'I' for Inactive)
REMARK    1  A    between atoms: C_1  and  O_2
REMARK    2  A    between atoms: O_2  and  C_3
REMARK    3  A    between atoms: C_7  and  C_8
REMARK    4  A    between atoms: N_10  and  C_11
REMARK    5  A    between atoms: C_11  and  C_12
REMARK    6  A    between atoms: C_15  and  C_16
REMARK    7  A    between atoms: C_16  and  N_17
REMARK    8  A    between atoms: C_18  and  C_20
REMARK                            x       y       z     vdW  Elec       q    Type
REMARK                         _______ _______ _______ _____ _____    ______ ____
ROOT
ATOM      1  C   UNL     1      47.520   5.798  14.429  0.00  0.00    +0.000 A 
ATOM      2  C   UNL     1      46.990   4.520  14.655  0.00  0.00    +0.000 A 
ATOM      3  C   UNL     1      47.309   3.808  15.818  0.00  0.00    +0.000 A 
ATOM      4  C   UNL     1      48.150   4.366  16.790  0.00  0.00    +0.000 A 
ATOM      5  C   UNL     1      48.719   5.623  16.540  0.00  0.00    +0.000 A 
ATOM      6  C   UNL     1      48.397   6.336  15.380  0.00  0.00    +0.000 A 
ENDROOT
BRANCH   1   7
ATOM      7  C   UNL     1      47.144   6.580  13.197  0.00  0.00    +0.000 C 
BRANCH   7  10
ATOM      8  C   UNL     1      45.542   5.897  11.457  0.00  0.00    +0.000 C 
ATOM      9  O   UNL     1      44.734   6.771  11.754  0.00  0.00    +0.000 OA
ATOM     10  N   UNL     1      46.751   5.729  12.100  0.00  0.00    +0.000 N 
ATOM     11  H   UNL     1      47.348   4.967  11.790  0.00  0.00    +0.000 HD
BRANCH   8  16
ATOM     12  C   UNL     1      45.704   4.249   8.196  0.00  0.00    +0.000 A 
ATOM     13  C   UNL     1      44.837   3.170   8.304  0.00  0.00    +0.000 A 
ATOM     14  C   UNL     1      44.160   2.980   9.504  0.00  0.00    +0.000 A 
ATOM     15  C   UNL     1      44.375   3.871  10.552  0.00  0.00    +0.000 A 
ATOM     16  C   UNL     1      45.266   4.922  10.351  0.00  0.00    +0.000 A 
ATOM     17  N   UNL     1      45.937   5.133   9.189  0.00  0.00    +0.000 NA
BRANCH  12  19
ATOM     18  C   UNL     1      46.703   3.139   6.400  0.00  0.00    +0.000 C 
ATOM     19  O   UNL     1      46.361   4.389   6.991  0.00  0.00    +0.000 OA
ENDBRANCH  12  19
ENDBRANCH   8  16
ENDBRANCH   7  10
ENDBRANCH   1   7
BRANCH   4  20
ATOM     20  C   UNL     1      48.444   3.636  18.077  0.00  0.00    +0.000 C 
BRANCH  20  21
ATOM     21  N   UNL     1      49.838   3.297  18.190  0.00  0.00    +0.000 N 
ATOM     22  C   UNL     1      50.412   2.340  17.389  0.00  0.00    +0.000 C 
ATOM     23  O   UNL     1      49.796   1.788  16.481  0.00  0.00    +0.000 OA
ATOM     24  H   UNL     1      50.291   3.546  19.062  0.00  0.00    +0.000 HD
BRANCH  22  25
ATOM     25  C   UNL     1      51.831   2.059  17.639  0.00  0.00    +0.000 A 
ATOM     26  C   UNL     1      52.269   0.750  17.793  0.00  0.00    +0.000 A 
ATOM     27  S   UNL     1      53.960   0.615  17.992  0.00  0.00    +0.000 S 
ATOM     28  C   UNL     1      54.157   2.305  17.934  0.00  0.00    +0.000 A 
ATOM     29  N   UNL     1      55.388   2.871  18.052  0.00  0.00    +0.000 NA
ATOM     30  C   UNL     1      55.384   4.166  18.017  0.00  0.00    +0.000 A 
ATOM     31  N   UNL     1      54.262   4.940  17.879  0.00  0.00    +0.000 N 
ATOM     32  C   UNL     1      53.003   4.409  17.744  0.00  0.00    +0.000 A 
ATOM     33  O   UNL     1      52.021   5.132  17.607  0.00  0.00    +0.000 OA
ATOM     34  C   UNL     1      52.952   2.961  17.765  0.00  0.00    +0.000 A 
ATOM     35  H   UNL     1      54.325   5.947  17.859  0.00  0.00    +0.000 HD
ENDBRANCH  22  25
ENDBRANCH  20  21
ENDBRANCH   4  20
TORSDOF 7
ENDMDL
MODEL 5
REMARK VINA RESULT:    -6.984      2.677      3.172
REMARK INTER + INTRA:         -11.016
REMARK INTER:                 -10.083
REMARK INTRA:                  -0.933
REMARK UNBOUND:                -1.174
REMARK  Name = 
REMARK  8 active torsions:
REMARK  status: ('A' for Active; 'I' for Inactive)
REMARK    1  A    between atoms: C_1  and  O_2
REMARK    2  A    between atoms: O_2  and  C_3
REMARK    3  A    between atoms: C_7  and  C_8
REMARK    4  A    between atoms: N_10  and  C_11
REMARK    5  A    between atoms: C_11  and  C_12
REMARK    6  A    between atoms: C_15  and  C_16
REMARK    7  A    between atoms: C_16  and  N_17
REMARK    8  A    between atoms: C_18  and  C_20
REMARK                            x       y       z     vdW  Elec       q    Type
REMARK                         _______ _______ _______ _____ _____    ______ ____
ROOT
ATOM      1  C   UNL     1      45.073   7.096  11.918  0.00  0.00    +0.000 A 
ATOM      2  C   UNL     1      44.983   8.460  12.225  0.00  0.00    +0.000 A 
ATOM      3  C   UNL     1      45.933   9.073  13.051  0.00  0.00    +0.000 A 
ATOM      4  C   UNL     1      47.007   8.339  13.572  0.00  0.00    +0.000 A 
ATOM      5  C   UNL     1      47.069   6.964  13.306  0.00  0.00    +0.000 A 
ATOM      6  C   UNL     1      46.121   6.353  12.476  0.00  0.00    +0.000 A 
ENDROOT
BRANCH   1   7
ATOM      7  C   UNL     1      44.073   6.445  10.996  0.00  0.00    +0.000 C 
BRANCH   7  10
ATOM      8  C   UNL     1      44.282   4.196  10.018  0.00  0.00    +0.000 C 
ATOM      9  O   UNL     1      43.380   3.732  10.707  0.00  0.00    +0.000 OA
ATOM     10  N   UNL     1      44.689   5.513  10.083  0.00  0.00    +0.000 N 
ATOM     11  H   UNL     1      45.456   5.800   9.481  0.00  0.00    +0.000 HD
BRANCH   8  16
ATOM     12  C   UNL     1      46.241   3.233   7.084  0.00  0.00    +0.000 A 
ATOM     13  C   UNL     1      46.433   1.866   7.222  0.00  0.00    +0.000 A 
ATOM     14  C   UNL     1      45.885   1.227   8.329  0.00  0.00    +0.000 A 
ATOM     15  C   UNL     1      45.168   1.977   9.258  0.00  0.00    +0.000 A 
ATOM     16  C   UNL     1      45.031   3.344   9.036  0.00  0.00    +0.000 A 
ATOM     17  N   UNL     1      45.554   3.993   7.962  0.00  0.00    +0.000 NA
BRANCH  12  19
ATOM     18  C   UNL     1      47.298   2.873   5.032  0.00  0.00    +0.000 C 
ATOM     19  O   UNL     1      46.814   3.824   5.975  0.00  0.00    +0.000 OA
ENDBRANCH  12  19
ENDBRANCH   8  16
ENDBRANCH   7  10
ENDBRANCH   1   7
BRANCH   4  20
ATOM     20  C   UNL     1      48.073   9.006  14.406  0.00  0.00    +0.000 C 
BRANCH  20  21
ATOM     21  N   UNL     1      47.778   8.925  15.812  0.00  0.00    +0.000 N 
ATOM     22  C   UNL     1      48.313   9.815  16.711  0.00  0.00    +0.000 C 
ATOM     23  O   UNL     1      48.997  10.773  16.359  0.00  0.00    +0.000 OA
ATOM     24  H   UNL     1      47.433   8.033  16.147  0.00  0.00    +0.000 HD
BRANCH  22  25
ATOM     25  C   UNL     1      47.967   9.592  18.120  0.00  0.00    +0.000 A 
ATOM     26  C   UNL     1      47.599  10.660  18.928  0.00  0.00    +0.000 A 
ATOM     27  S   UNL     1      47.152  10.196  20.510  0.00  0.00    +0.000 S 
ATOM     28  C   UNL     1      47.487   8.559  20.184  0.00  0.00    +0.000 A 
ATOM     29  N   UNL     1      47.317   7.605  21.139  0.00  0.00    +0.000 NA
ATOM     30  C   UNL     1      47.636   6.409  20.760  0.00  0.00    +0.000 A 
ATOM     31  N   UNL     1      48.112   6.085  19.516  0.00  0.00    +0.000 N 
ATOM     32  C   UNL     1      48.287   7.014  18.520  0.00  0.00    +0.000 A 
ATOM     33  O   UNL     1      48.701   6.687  17.413  0.00  0.00    +0.000 OA
ATOM     34  C   UNL     1      47.932   8.369  18.889  0.00  0.00    +0.000 A 
ATOM     35  H   UNL     1      48.344   5.131  19.281  0.00  0.00    +0.000 HD
ENDBRANCH  22  25
ENDBRANCH  20  21
ENDBRANCH   4  20
TORSDOF 7
ENDMDL
MODEL 6
REMARK VINA RESULT:    -6.886      5.570      7.860
REMARK INTER + INTRA:         -10.879
REMARK INTER:                  -9.838
REMARK INTRA:                  -1.041
REMARK UNBOUND:                -1.174
REMARK  Name = 
REMARK  8 active torsions:
REMARK  status: ('A' for Active; 'I' for Inactive)
REMARK    1  A    between atoms: C_1  and  O_2
REMARK    2  A    between atoms: O_2  and  C_3
REMARK    3  A    between atoms: C_7  and  C_8
REMARK    4  A    between atoms: N_10  and  C_11
REMARK    5  A    between atoms: C_11  and  C_12
REMARK    6  A    between atoms: C_15  and  C_16
REMARK    7  A    between atoms: C_16  and  N_17
REMARK    8  A    between atoms: C_18  and  C_20
REMARK                            x       y       z     vdW  Elec       q    Type
REMARK                         _______ _______ _______ _____ _____    ______ ____
ROOT
ATOM      1  C   UNL     1      49.114   7.003  13.924  0.00  0.00    +0.000 A 
ATOM      2  C   UNL     1      49.036   7.070  12.527  0.00  0.00    +0.000 A 
ATOM      3  C   UNL     1      49.981   7.796  11.790  0.00  0.00    +0.000 A 
ATOM      4  C   UNL     1      51.037   8.454  12.435  0.00  0.00    +0.000 A 
ATOM      5  C   UNL     1      51.085   8.429  13.836  0.00  0.00    +0.000 A 
ATOM      6  C   UNL     1      50.143   7.700  14.571  0.00  0.00    +0.000 A 
ENDROOT
BRANCH   1   7
ATOM      7  C   UNL     1      48.120   6.189  14.713  0.00  0.00    +0.000 C 
BRANCH   7  10
ATOM      8  C   UNL     1      46.516   4.652  13.652  0.00  0.00    +0.000 C 
ATOM      9  O   UNL     1      47.153   3.653  13.968  0.00  0.00    +0.000 OA
ATOM     10  N   UNL     1      46.906   5.935  13.977  0.00  0.00    +0.000 N 
ATOM     11  H   UNL     1      46.318   6.701  13.658  0.00  0.00    +0.000 HD
BRANCH   8  16
ATOM     12  C   UNL     1      44.018   3.416  11.284  0.00  0.00    +0.000 A 
ATOM     13  C   UNL     1      42.944   4.283  11.422  0.00  0.00    +0.000 A 
ATOM     14  C   UNL     1      43.049   5.331  12.331  0.00  0.00    +0.000 A 
ATOM     15  C   UNL     1      44.220   5.472  13.070  0.00  0.00    +0.000 A 
ATOM     16  C   UNL     1      45.243   4.551  12.866  0.00  0.00    +0.000 A 
ATOM     17  N   UNL     1      45.168   3.520  11.982  0.00  0.00    +0.000 NA
BRANCH  12  19
ATOM     18  C   UNL     1      44.509   2.643   9.136  0.00  0.00    +0.000 C 
ATOM     19  O   UNL     1      43.863   2.386  10.379  0.00  0.00    +0.000 OA
ENDBRANCH  12  19
ENDBRANCH   8  16
ENDBRANCH   7  10
ENDBRANCH   1   7
BRANCH   4  20
ATOM     20  C   UNL     1      52.099   9.181  11.646  0.00  0.00    +0.000 C 
BRANCH  20  21
ATOM     21  N   UNL     1      52.282   8.601  10.341  0.00  0.00    +0.000 N 
ATOM     22  C   UNL     1      53.412   8.844   9.600  0.00  0.00    +0.000 C 
ATOM     23  O   UNL     1      54.359   9.491  10.039  0.00  0.00    +0.000 OA
ATOM     24  H   UNL     1      51.443   8.281   9.871  0.00  0.00    +0.000 HD
BRANCH  22  25
ATOM     25  C   UNL     1      53.452   8.229   8.267  0.00  0.00    +0.000 A 
ATOM     26  C   UNL     1      53.370   9.019   7.128  0.00  0.00    +0.000 A 
ATOM     27  S   UNL     1      53.517   8.137   5.674  0.00  0.00    +0.000 S 
ATOM     28  C   UNL     1      53.641   6.663   6.516  0.00  0.00    +0.000 A 
ATOM     29  N   UNL     1      53.785   5.486   5.850  0.00  0.00    +0.000 NA
ATOM     30  C   UNL     1      53.839   4.443   6.617  0.00  0.00    +0.000 A 
ATOM     31  N   UNL     1      53.758   4.475   7.984  0.00  0.00    +0.000 N 
ATOM     32  C   UNL     1      53.625   5.641   8.696  0.00  0.00    +0.000 A 
ATOM     33  O   UNL     1      53.570   5.635   9.921  0.00  0.00    +0.000 OA
ATOM     34  C   UNL     1      53.571   6.841   7.885  0.00  0.00    +0.000 A 
ATOM     35  H   UNL     1      53.805   3.625   8.527  0.00  0.00    +0.000 HD
ENDBRANCH  22  25
ENDBRANCH  20  21
ENDBRANCH   4  20
TORSDOF 7
ENDMDL
MODEL 7
REMARK VINA RESULT:    -6.852      4.399      9.010
REMARK INTER + INTRA:         -10.831
REMARK INTER:                  -9.775
REMARK INTRA:                  -1.056
REMARK UNBOUND:                -1.174
REMARK  Name = 
REMARK  8 active torsions:
REMARK  status: ('A' for Active; 'I' for Inactive)
REMARK    1  A    between atoms: C_1  and  O_2
REMARK    2  A    between atoms: O_2  and  C_3
REMARK    3  A    between atoms: C_7  and  C_8
REMARK    4  A    between atoms: N_10  and  C_11
REMARK    5  A    between atoms: C_11  and  C_12
REMARK    6  A    between atoms: C_15  and  C_16
REMARK    7  A    between atoms: C_16  and  N_17
REMARK    8  A    between atoms: C_18  and  C_20
REMARK                            x       y       z     vdW  Elec       q    Type
REMARK                         _______ _______ _______ _____ _____    ______ ____
ROOT
ATOM      1  C   UNL     1      48.912   4.761  17.328  0.00  0.00    +0.000 A 
ATOM      2  C   UNL     1      47.828   4.363  16.534  0.00  0.00    +0.000 A 
ATOM      3  C   UNL     1      47.512   5.053  15.356  0.00  0.00    +0.000 A 
ATOM      4  C   UNL     1      48.285   6.143  14.937  0.00  0.00    +0.000 A 
ATOM      5  C   UNL     1      49.338   6.572  15.759  0.00  0.00    +0.000 A 
ATOM      6  C   UNL     1      49.656   5.880  16.933  0.00  0.00    +0.000 A 
ENDROOT
BRANCH   1   7
ATOM      7  C   UNL     1      49.277   3.994  18.574  0.00  0.00    +0.000 C 
BRANCH   7  10
ATOM      8  C   UNL     1      50.948   2.382  17.754  0.00  0.00    +0.000 C 
ATOM      9  O   UNL     1      50.137   1.788  17.051  0.00  0.00    +0.000 OA
ATOM     10  N   UNL     1      50.623   3.477  18.529  0.00  0.00    +0.000 N 
ATOM     11  H   UNL     1      51.362   3.894  19.089  0.00  0.00    +0.000 HD
BRANCH   8  16
ATOM     12  C   UNL     1      53.883   0.222  18.049  0.00  0.00    +0.000 A 
ATOM     13  C   UNL     1      54.966   1.083  17.944  0.00  0.00    +0.000 A 
ATOM     14  C   UNL     1      54.720   2.442  17.777  0.00  0.00    +0.000 A 
ATOM     15  C   UNL     1      53.402   2.889  17.718  0.00  0.00    +0.000 A 
ATOM     16  C   UNL     1      52.382   1.950  17.829  0.00  0.00    +0.000 A 
ATOM     17  N   UNL     1      52.595   0.618  17.996  0.00  0.00    +0.000 NA
BRANCH  12  19
ATOM     18  C   UNL     1      55.083  -1.600  17.213  0.00  0.00    +0.000 C 
ATOM     19  O   UNL     1      54.178  -1.118  18.202  0.00  0.00    +0.000 OA
ENDBRANCH  12  19
ENDBRANCH   8  16
ENDBRANCH   7  10
ENDBRANCH   1   7
BRANCH   4  20
ATOM     20  C   UNL     1      47.994   6.849  13.636  0.00  0.00    +0.000 C 
BRANCH  20  21
ATOM     21  N   UNL     1      47.309   5.991  12.706  0.00  0.00    +0.000 N 
ATOM     22  C   UNL     1      46.363   6.480  11.840  0.00  0.00    +0.000 C 
ATOM     23  O   UNL     1      46.113   7.680  11.749  0.00  0.00    +0.000 OA
ATOM     24  H   UNL     1      47.313   5.000  12.923  0.00  0.00    +0.000 HD
BRANCH  22  25
ATOM     25  C   UNL     1      45.706   5.490  10.977  0.00  0.00    +0.000 A 
ATOM     26  C   UNL     1      45.814   5.583   9.596  0.00  0.00    +0.000 A 
ATOM     27  S   UNL     1      45.057   4.298   8.764  0.00  0.00    +0.000 S 
ATOM     28  C   UNL     1      44.513   3.603  10.220  0.00  0.00    +0.000 A 
ATOM     29  N   UNL     1      43.780   2.457  10.219  0.00  0.00    +0.000 NA
ATOM     30  C   UNL     1      43.412   2.059  11.394  0.00  0.00    +0.000 A 
ATOM     31  N   UNL     1      43.709   2.705  12.566  0.00  0.00    +0.000 N 
ATOM     32  C   UNL     1      44.456   3.856  12.613  0.00  0.00    +0.000 A 
ATOM     33  O   UNL     1      44.715   4.402  13.681  0.00  0.00    +0.000 OA
ATOM     34  C   UNL     1      44.904   4.340  11.323  0.00  0.00    +0.000 A 
ATOM     35  H   UNL     1      43.391   2.344  13.453  0.00  0.00    +0.000 HD
ENDBRANCH  22  25
ENDBRANCH  20  21
ENDBRANCH   4  20
TORSDOF 7
ENDMDL
MODEL 8
REMARK VINA RESULT:    -6.822      4.351      5.722
REMARK INTER + INTRA:         -10.788
REMARK INTER:                  -9.667
REMARK INTRA:                  -1.121
REMARK UNBOUND:                -1.174
REMARK  Name = 
REMARK  8 active torsions:
REMARK  status: ('A' for Active; 'I' for Inactive)
REMARK    1  A    between atoms: C_1  and  O_2
REMARK    2  A    between atoms: O_2  and  C_3
REMARK    3  A    between atoms: C_7  and  C_8
REMARK    4  A    between atoms: N_10  and  C_11
REMARK    5  A    between atoms: C_11  and  C_12
REMARK    6  A    between atoms: C_15  and  C_16
REMARK    7  A    between atoms: C_16  and  N_17
REMARK    8  A    between atoms: C_18  and  C_20
REMARK                            x       y       z     vdW  Elec       q    Type
REMARK                         _______ _______ _______ _____ _____    ______ ____
ROOT
ATOM      1  C   UNL     1      45.577   8.009  11.918  0.00  0.00    +0.000 A 
ATOM      2  C   UNL     1      46.759   7.546  12.511  0.00  0.00    +0.000 A 
ATOM      3  C   UNL     1      47.772   8.438  12.882  0.00  0.00    +0.000 A 
ATOM      4  C   UNL     1      47.617   9.817  12.687  0.00  0.00    +0.000 A 
ATOM      5  C   UNL     1      46.456  10.276  12.049  0.00  0.00    +0.000 A 
ATOM      6  C   UNL     1      45.441   9.384  11.681  0.00  0.00    +0.000 A 
ENDROOT
BRANCH   1   7
ATOM      7  C   UNL     1      44.470   7.052  11.555  0.00  0.00    +0.000 C 
BRANCH   7  10
ATOM      8  C   UNL     1      44.151   4.885  10.432  0.00  0.00    +0.000 C 
ATOM      9  O   UNL     1      43.067   4.684  10.967  0.00  0.00    +0.000 OA
ATOM     10  N   UNL     1      44.909   6.017  10.651  0.00  0.00    +0.000 N 
ATOM     11  H   UNL     1      45.802   6.087  10.171  0.00  0.00    +0.000 HD
BRANCH   8  16
ATOM     12  C   UNL     1      45.947   3.517   7.555  0.00  0.00    +0.000 A 
ATOM     13  C   UNL     1      45.891   2.141   7.727  0.00  0.00    +0.000 A 
ATOM     14  C   UNL     1      45.223   1.638   8.839  0.00  0.00    +0.000 A 
ATOM     15  C   UNL     1      44.639   2.526   9.738  0.00  0.00    +0.000 A 
ATOM     16  C   UNL     1      44.750   3.889   9.483  0.00  0.00    +0.000 A 
ATOM     17  N   UNL     1      45.394   4.408   8.404  0.00  0.00    +0.000 NA
BRANCH  12  19
ATOM     18  C   UNL     1      46.907   2.931   5.508  0.00  0.00    +0.000 C 
ATOM     19  O   UNL     1      46.631   3.968   6.444  0.00  0.00    +0.000 OA
ENDBRANCH  12  19
ENDBRANCH   8  16
ENDBRANCH   7  10
ENDBRANCH   1   7
BRANCH   4  20
ATOM     20  C   UNL     1      48.672  10.792  13.147  0.00  0.00    +0.000 C 
BRANCH  20  21
ATOM     21  N   UNL     1      49.958  10.493  12.575  0.00  0.00    +0.000 N 
ATOM     22  C   UNL     1      50.266  10.836  11.281  0.00  0.00    +0.000 C 
ATOM     23  O   UNL     1      49.501  11.488  10.575  0.00  0.00    +0.000 OA
ATOM     24  H   UNL     1      50.495   9.765  13.033  0.00  0.00    +0.000 HD
BRANCH  22  25
ATOM     25  C   UNL     1      51.596  10.432  10.807  0.00  0.00    +0.000 A 
ATOM     26  C   UNL     1      52.537  11.391  10.459  0.00  0.00    +0.000 A 
ATOM     27  S   UNL     1      54.048  10.734  10.013  0.00  0.00    +0.000 S 
ATOM     28  C   UNL     1      53.479   9.142  10.217  0.00  0.00    +0.000 A 
ATOM     29  N   UNL     1      54.288   8.074   9.987  0.00  0.00    +0.000 NA
ATOM     30  C   UNL     1      53.714   6.925  10.156  0.00  0.00    +0.000 A 
ATOM     31  N   UNL     1      52.407   6.753  10.529  0.00  0.00    +0.000 N 
ATOM     32  C   UNL     1      51.560   7.803  10.783  0.00  0.00    +0.000 A 
ATOM     33  O   UNL     1      50.399   7.613  11.130  0.00  0.00    +0.000 OA
ATOM     34  C   UNL     1      52.157   9.114  10.620  0.00  0.00    +0.000 A 
ATOM     35  H   UNL     1      52.017   5.829  10.644  0.00  0.00    +0.000 HD
ENDBRANCH  22  25
ENDBRANCH  20  21
ENDBRANCH   4  20
TORSDOF 7
ENDMDL
MODEL 9
REMARK VINA RESULT:    -6.713      5.225      7.721
REMARK INTER + INTRA:         -10.634
REMARK INTER:                  -9.636
REMARK INTRA:                  -0.997
REMARK UNBOUND:                -1.174
REMARK  Name = 
REMARK  8 active torsions:
REMARK  status: ('A' for Active; 'I' for Inactive)
REMARK    1  A    between atoms: C_1  and  O_2
REMARK    2  A    between atoms: O_2  and  C_3
REMARK    3  A    between atoms: C_7  and  C_8
REMARK    4  A    between atoms: N_10  and  C_11
REMARK    5  A    between atoms: C_11  and  C_12
REMARK    6  A    between atoms: C_15  and  C_16
REMARK    7  A    between atoms: C_16  and  N_17
REMARK    8  A    between atoms: C_18  and  C_20
REMARK                            x       y       z     vdW  Elec       q    Type
REMARK                         _______ _______ _______ _____ _____    ______ ____
ROOT
ATOM      1  C   UNL     1      50.111   9.201  11.343  0.00  0.00    +0.000 A 
ATOM      2  C   UNL     1      49.177  10.191  11.674  0.00  0.00    +0.000 A 
ATOM      3  C   UNL     1      47.923   9.848  12.194  0.00  0.00    +0.000 A 
ATOM      4  C   UNL     1      47.583   8.506  12.414  0.00  0.00    +0.000 A 
ATOM      5  C   UNL     1      48.499   7.514  12.036  0.00  0.00    +0.000 A 
ATOM      6  C   UNL     1      49.754   7.858  11.520  0.00  0.00    +0.000 A 
ENDROOT
BRANCH   1   7
ATOM      7  C   UNL     1      51.476   9.572  10.821  0.00  0.00    +0.000 C 
BRANCH   7  10
ATOM      8  C   UNL     1      52.876   8.416   9.158  0.00  0.00    +0.000 C 
ATOM      9  O   UNL     1      52.870   9.366   8.384  0.00  0.00    +0.000 OA
ATOM     10  N   UNL     1      52.229   8.424  10.377  0.00  0.00    +0.000 N 
ATOM     11  H   UNL     1      52.280   7.582  10.944  0.00  0.00    +0.000 HD
BRANCH   8  16
ATOM     12  C   UNL     1      53.698   5.243   7.537  0.00  0.00    +0.000 A 
ATOM     13  C   UNL     1      54.873   4.828   8.150  0.00  0.00    +0.000 A 
ATOM     14  C   UNL     1      55.416   5.626   9.151  0.00  0.00    +0.000 A 
ATOM     15  C   UNL     1      54.770   6.809   9.501  0.00  0.00    +0.000 A 
ATOM     16  C   UNL     1      53.598   7.143   8.828  0.00  0.00    +0.000 A 
ATOM     17  N   UNL     1      53.044   6.380   7.849  0.00  0.00    +0.000 NA
BRANCH  12  19
ATOM     18  C   UNL     1      53.953   3.221   6.395  0.00  0.00    +0.000 C 
ATOM     19  O   UNL     1      53.204   4.423   6.542  0.00  0.00    +0.000 OA
ENDBRANCH  12  19
ENDBRANCH   8  16
ENDBRANCH   7  10
ENDBRANCH   1   7
BRANCH   4  20
ATOM     20  C   UNL     1      46.262   8.130  13.039  0.00  0.00    +0.000 C 
BRANCH  20  21
ATOM     21  N   UNL     1      45.863   6.795  12.677  0.00  0.00    +0.000 N 
ATOM     22  C   UNL     1      44.894   6.566  11.732  0.00  0.00    +0.000 C 
ATOM     23  O   UNL     1      44.379   7.475  11.085  0.00  0.00    +0.000 OA
ATOM     24  H   UNL     1      46.082   6.065  13.346  0.00  0.00    +0.000 HD
BRANCH  22  25
ATOM     25  C   UNL     1      44.549   5.159  11.491  0.00  0.00    +0.000 A 
ATOM     26  C   UNL     1      43.844   4.437  12.445  0.00  0.00    +0.000 A 
ATOM     27  S   UNL     1      43.463   2.848  11.953  0.00  0.00    +0.000 S 
ATOM     28  C   UNL     1      44.275   3.052  10.471  0.00  0.00    +0.000 A 
ATOM     29  N   UNL     1      44.336   2.044   9.560  0.00  0.00    +0.000 NA
ATOM     30  C   UNL     1      45.008   2.332   8.491  0.00  0.00    +0.000 A 
ATOM     31  N   UNL     1      45.626   3.533   8.257  0.00  0.00    +0.000 N 
ATOM     32  C   UNL     1      45.579   4.580   9.143  0.00  0.00    +0.000 A 
ATOM     33  O   UNL     1      46.131   5.647   8.895  0.00  0.00    +0.000 OA
ATOM     34  C   UNL     1      44.828   4.315  10.353  0.00  0.00    +0.000 A 
ATOM     35  H   UNL     1      46.137   3.696   7.402  0.00  0.00    +0.000 HD
ENDBRANCH  22  25
ENDBRANCH  20  21
ENDBRANCH   4  20
TORSDOF 7
ENDMDL
