MODEL 1
REMARK VINA RESULT:    -8.288      0.000      0.000
REMARK INTER + INTRA:         -14.661
REMARK INTER:                 -13.375
REMARK INTRA:                  -1.286
REMARK UNBOUND:                -1.286
REMARK  Name = 
REMARK  11 active torsions:
REMARK  status: ('A' for Active; 'I' for Inactive)
REMARK    1  A    between atoms: N_1  and  C_2
REMARK    2  A    between atoms: C_2  and  C_3
REMARK    3  A    between atoms: C_3  and  N_4
REMARK    4  A    between atoms: N_4  and  C_5
REMARK    5  A    between atoms: C_5  and  C_6
REMARK    6  A    between atoms: C_9  and  C_10
REMARK    7  A    between atoms: C_10  and  N_11
REMARK    8  A    between atoms: C_12  and  C_14
REMARK    9  A    between atoms: C_25  and  C_26
REMARK   10  A    between atoms: C_26  and  N_27
REMARK   11  A    between atoms: N_27  and  C_28
REMARK                            x       y       z     vdW  Elec       q    Type
REMARK                         _______ _______ _______ _____ _____    ______ ____
ROOT
ATOM      1  C   UNL     1      45.181   6.736  11.962  0.00  0.00    +0.000 A 
ATOM      2  C   UNL     1      46.284   6.916  12.823  0.00  0.00    +0.000 A 
ATOM      3  C   UNL     1      46.855   5.844  13.508  0.00  0.00    +0.000 A 
ATOM      4  C   UNL     1      46.338   4.557  13.355  0.00  0.00    +0.000 A 
ATOM      5  C   UNL     1      45.267   4.370  12.464  0.00  0.00    +0.000 A 
ATOM      6  C   UNL     1      44.681   5.434  11.749  0.00  0.00    +0.000 A 
ENDROOT
BRANCH   1   7
ATOM      7  C   UNL     1      44.536   7.982  11.390  0.00  0.00    +0.000 C 
BRANCH   7   8
ATOM      8  N   UNL     1      44.717   9.177  12.221  0.00  0.00    +0.000 NA
ATOM      9  H   UNL     1      44.055   9.118  12.995  0.00  0.00    +0.000 HD
BRANCH   8  10
ATOM     10  C   UNL     1      44.431  10.427  11.496  0.00  0.00    +0.000 C 
BRANCH  10  11
ATOM     11  C   UNL     1      42.937  10.519  11.140  0.00  0.00    +0.000 C 
BRANCH  11  12
ATOM     12  N   UNL     1      42.143  11.097  12.229  0.00  0.00    +0.000 NA
ATOM     13  H   UNL     1      42.160  10.451  13.018  0.00  0.00    +0.000 HD
ATOM     14  H   UNL     1      41.171  11.126  11.926  0.00  0.00    +0.000 HD
ENDBRANCH  11  12
ENDBRANCH  10  11
ENDBRANCH   8  10
ENDBRANCH   7   8
ENDBRANCH   1   7
BRANCH   4  15
ATOM     15  C   UNL     1      46.872   3.412  14.182  0.00  0.00    +0.000 C 
BRANCH  15  16
ATOM     16  N   UNL     1      47.790   3.847  15.210  0.00  0.00    +0.000 N 
ATOM     17  C   UNL     1      47.528   3.730  16.545  0.00  0.00    +0.000 C 
ATOM     18  O   UNL     1      46.476   3.269  16.980  0.00  0.00    +0.000 OA
ATOM     19  H   UNL     1      48.596   4.381  14.899  0.00  0.00    +0.000 HD
BRANCH  17  20
ATOM     20  C   UNL     1      48.606   4.130  17.453  0.00  0.00    +0.000 A 
ATOM     21  C   UNL     1      48.442   5.234  18.277  0.00  0.00    +0.000 A 
ATOM     22  S   UNL     1      49.790   5.550  19.273  0.00  0.00    +0.000 S 
ATOM     23  C   UNL     1      50.653   4.240  18.611  0.00  0.00    +0.000 A 
ATOM     24  N   UNL     1      51.922   3.964  19.011  0.00  0.00    +0.000 NA
ATOM     25  C   UNL     1      52.466   2.961  18.403  0.00  0.00    +0.000 A 
ATOM     26  N   UNL     1      51.852   2.204  17.440  0.00  0.00    +0.000 N 
ATOM     27  C   UNL     1      50.554   2.417  17.038  0.00  0.00    +0.000 A 
ATOM     28  O   UNL     1      50.006   1.666  16.239  0.00  0.00    +0.000 OA
ATOM     29  C   UNL     1      49.911   3.553  17.665  0.00  0.00    +0.000 A 
ATOM     30  H   UNL     1      52.327   1.419  17.020  0.00  0.00    +0.000 HD
ENDBRANCH  17  20
ENDBRANCH  15  16
ENDBRANCH   4  15
BRANCH   6  31
ATOM     31  C   UNL     1      43.536   5.103  10.802  0.00  0.00    +0.000 C 
BRANCH  31  32
ATOM     32  N   UNL     1      44.046   4.831   9.470  0.00  0.00    +0.000 N 
ATOM     33  H   UNL     1      44.435   5.661   9.027  0.00  0.00    +0.000 HD
BRANCH  32  34
ATOM     34  C   UNL     1      44.643   3.639   9.078  0.00  0.00    +0.000 C 
ATOM     35  N   UNL     1      44.104   2.500   9.551  0.00  0.00    +0.000 NA
ATOM     36  C   UNL     1      44.823   1.481   9.068  0.00  0.00    +0.000 C 
ATOM     37  C   UNL     1      45.844   1.936   8.284  0.00  0.00    +0.000 C 
ATOM     38 CL   UNL     1      47.001   0.955   7.501  0.00  0.00    +0.000 Cl
ATOM     39  C   UNL     1      45.733   3.308   8.274  0.00  0.00    +0.000 C 
ATOM     40 CL   UNL     1      46.780   4.384   7.444  0.00  0.00    +0.000 Cl
ENDBRANCH  32  34
ENDBRANCH  31  32
ENDBRANCH   6  31
TORSDOF 11
ENDMDL
MODEL 2
REMARK VINA RESULT:    -7.929      2.647      3.846
REMARK INTER + INTRA:         -14.082
REMARK INTER:                 -12.505
REMARK INTRA:                  -1.576
REMARK UNBOUND:                -1.286
REMARK  Name = 
REMARK  11 active torsions:
REMARK  status: ('A' for Active; 'I' for Inactive)
REMARK    1  A    between atoms: N_1  and  C_2
REMARK    2  A    between atoms: C_2  and  C_3
REMARK    3  A    between atoms: C_3  and  N_4
REMARK    4  A    between atoms: N_4  and  C_5
REMARK    5  A    between atoms: C_5  and  C_6
REMARK    6  A    between atoms: C_9  and  C_10
REMARK    7  A    between atoms: C_10  and  N_11
REMARK    8  A    between atoms: C_12  and  C_14
REMARK    9  A    between atoms: C_25  and  C_26
REMARK   10  A    between atoms: C_26  and  N_27
REMARK   11  A    between atoms: N_27  and  C_28
REMARK                            x       y       z     vdW  Elec       q    Type
REMARK                         _______ _______ _______ _____ _____    ______ ____
ROOT
ATOM      1  C   UNL     1      44.110   6.544  11.440  0.00  0.00    +0.000 A 
ATOM      2  C   UNL     1      44.582   7.464  12.399  0.00  0.00    +0.000 A 
ATOM      3  C   UNL     1      45.947   7.670  12.600  0.00  0.00    +0.000 A 
ATOM      4  C   UNL     1      46.883   6.958  11.849  0.00  0.00    +0.000 A 
ATOM      5  C   UNL     1      46.413   6.073  10.863  0.00  0.00    +0.000 A 
ATOM      6  C   UNL     1      45.040   5.858  10.631  0.00  0.00    +0.000 A 
ENDROOT
BRANCH   1   7
ATOM      7  C   UNL     1      42.619   6.278  11.408  0.00  0.00    +0.000 C 
BRANCH   7   8
ATOM      8  N   UNL     1      42.251   4.920  11.828  0.00  0.00    +0.000 NA
ATOM      9  H   UNL     1      41.297   4.957  12.189  0.00  0.00    +0.000 HD
BRANCH   8  10
ATOM     10  C   UNL     1      43.108   4.405  12.909  0.00  0.00    +0.000 C 
BRANCH  10  11
ATOM     11  C   UNL     1      43.650   3.009  12.554  0.00  0.00    +0.000 C 
BRANCH  11  12
ATOM     12  N   UNL     1      45.110   2.936  12.667  0.00  0.00    +0.000 NA
ATOM     13  H   UNL     1      45.348   2.733  13.638  0.00  0.00    +0.000 HD
ATOM     14  H   UNL     1      45.483   3.868  12.489  0.00  0.00    +0.000 HD
ENDBRANCH  11  12
ENDBRANCH  10  11
ENDBRANCH   8  10
ENDBRANCH   7   8
ENDBRANCH   1   7
BRANCH   4  15
ATOM     15  C   UNL     1      48.359   7.086  12.141  0.00  0.00    +0.000 C 
BRANCH  15  16
ATOM     16  N   UNL     1      48.729   6.495  13.407  0.00  0.00    +0.000 N 
ATOM     17  C   UNL     1      48.787   7.202  14.575  0.00  0.00    +0.000 C 
ATOM     18  O   UNL     1      48.555   8.407  14.636  0.00  0.00    +0.000 OA
ATOM     19  H   UNL     1      49.086   5.545  13.375  0.00  0.00    +0.000 HD
BRANCH  17  20
ATOM     20  C   UNL     1      49.085   6.431  15.784  0.00  0.00    +0.000 A 
ATOM     21  C   UNL     1      50.124   6.823  16.616  0.00  0.00    +0.000 A 
ATOM     22  S   UNL     1      50.323   5.819  17.979  0.00  0.00    +0.000 S 
ATOM     23  C   UNL     1      49.047   4.805  17.486  0.00  0.00    +0.000 A 
ATOM     24  N   UNL     1      48.706   3.707  18.209  0.00  0.00    +0.000 NA
ATOM     25  C   UNL     1      47.740   3.014  17.702  0.00  0.00    +0.000 A 
ATOM     26  N   UNL     1      47.078   3.326  16.543  0.00  0.00    +0.000 N 
ATOM     27  C   UNL     1      47.358   4.452  15.804  0.00  0.00    +0.000 A 
ATOM     28  O   UNL     1      46.687   4.749  14.821  0.00  0.00    +0.000 OA
ATOM     29  C   UNL     1      48.458   5.245  16.313  0.00  0.00    +0.000 A 
ATOM     30  H   UNL     1      46.316   2.753  16.213  0.00  0.00    +0.000 HD
ENDBRANCH  17  20
ENDBRANCH  15  16
ENDBRANCH   4  15
BRANCH   6  31
ATOM     31  C   UNL     1      44.654   4.886   9.524  0.00  0.00    +0.000 C 
BRANCH  31  32
ATOM     32  N   UNL     1      45.750   4.731   8.584  0.00  0.00    +0.000 N 
ATOM     33  H   UNL     1      46.467   5.443   8.704  0.00  0.00    +0.000 HD
BRANCH  32  34
ATOM     34  C   UNL     1      46.226   3.512   8.114  0.00  0.00    +0.000 C 
ATOM     35  N   UNL     1      47.273   3.550   7.270  0.00  0.00    +0.000 NA
ATOM     36  C   UNL     1      47.565   2.289   6.932  0.00  0.00    +0.000 C 
ATOM     37  C   UNL     1      46.713   1.414   7.541  0.00  0.00    +0.000 C 
ATOM     38 CL   UNL     1      46.740  -0.283   7.353  0.00  0.00    +0.000 Cl
ATOM     39  C   UNL     1      45.863   2.180   8.305  0.00  0.00    +0.000 C 
ATOM     40 CL   UNL     1      44.581   1.579   9.273  0.00  0.00    +0.000 Cl
ENDBRANCH  32  34
ENDBRANCH  31  32
ENDBRANCH   6  31
TORSDOF 11
ENDMDL
MODEL 3
REMARK VINA RESULT:    -7.491      2.288      3.255
REMARK INTER + INTRA:         -13.375
REMARK INTER:                 -11.936
REMARK INTRA:                  -1.439
REMARK UNBOUND:                -1.286
REMARK  Name = 
REMARK  11 active torsions:
REMARK  status: ('A' for Active; 'I' for Inactive)
REMARK    1  A    between atoms: N_1  and  C_2
REMARK    2  A    between atoms: C_2  and  C_3
REMARK    3  A    between atoms: C_3  and  N_4
REMARK    4  A    between atoms: N_4  and  C_5
REMARK    5  A    between atoms: C_5  and  C_6
REMARK    6  A    between atoms: C_9  and  C_10
REMARK    7  A    between atoms: C_10  and  N_11
REMARK    8  A    between atoms: C_12  and  C_14
REMARK    9  A    between atoms: C_25  and  C_26
REMARK   10  A    between atoms: C_26  and  N_27
REMARK   11  A    between atoms: N_27  and  C_28
REMARK                            x       y       z     vdW  Elec       q    Type
REMARK                         _______ _______ _______ _____ _____    ______ ____
ROOT
ATOM      1  C   UNL     1      45.502   9.110  11.990  0.00  0.00    +0.000 A 
ATOM      2  C   UNL     1      46.643   9.924  11.827  0.00  0.00    +0.000 A 
ATOM      3  C   UNL     1      47.929   9.425  12.037  0.00  0.00    +0.000 A 
ATOM      4  C   UNL     1      48.113   8.096  12.421  0.00  0.00    +0.000 A 
ATOM      5  C   UNL     1      46.979   7.274  12.542  0.00  0.00    +0.000 A 
ATOM      6  C   UNL     1      45.671   7.749  12.321  0.00  0.00    +0.000 A 
ENDROOT
BRANCH   1   7
ATOM      7  C   UNL     1      44.149   9.784  11.893  0.00  0.00    +0.000 C 
BRANCH   7   8
ATOM      8  N   UNL     1      43.328   9.306  10.775  0.00  0.00    +0.000 NA
ATOM      9  H   UNL     1      43.961   8.958  10.054  0.00  0.00    +0.000 HD
BRANCH   8  10
ATOM     10  C   UNL     1      42.514  10.371  10.166  0.00  0.00    +0.000 C 
BRANCH  10  11
ATOM     11  C   UNL     1      41.228  10.604  10.978  0.00  0.00    +0.000 C 
BRANCH  11  12
ATOM     12  N   UNL     1      40.597   9.345  11.389  0.00  0.00    +0.000 NA
ATOM     13  H   UNL     1      40.959   9.089  12.307  0.00  0.00    +0.000 HD
ATOM     14  H   UNL     1      40.923   8.613  10.759  0.00  0.00    +0.000 HD
ENDBRANCH  11  12
ENDBRANCH  10  11
ENDBRANCH   8  10
ENDBRANCH   7   8
ENDBRANCH   1   7
BRANCH   4  15
ATOM     15  C   UNL     1      49.489   7.581  12.766  0.00  0.00    +0.000 C 
BRANCH  15  16
ATOM     16  N   UNL     1      49.514   6.847  14.011  0.00  0.00    +0.000 N 
ATOM     17  C   UNL     1      49.362   7.439  15.232  0.00  0.00    +0.000 C 
ATOM     18  O   UNL     1      49.220   8.651  15.372  0.00  0.00    +0.000 OA
ATOM     19  H   UNL     1      49.791   5.872  13.955  0.00  0.00    +0.000 HD
BRANCH  17  20
ATOM     20  C   UNL     1      49.314   6.538  16.387  0.00  0.00    +0.000 A 
ATOM     21  C   UNL     1      50.122   6.781  17.488  0.00  0.00    +0.000 A 
ATOM     22  S   UNL     1      49.931   5.640  18.740  0.00  0.00    +0.000 S 
ATOM     23  C   UNL     1      48.784   4.763  17.839  0.00  0.00    +0.000 A 
ATOM     24  N   UNL     1      48.229   3.624  18.331  0.00  0.00    +0.000 NA
ATOM     25  C   UNL     1      47.399   3.046  17.527  0.00  0.00    +0.000 A 
ATOM     26  N   UNL     1      47.064   3.509  16.281  0.00  0.00    +0.000 N 
ATOM     27  C   UNL     1      47.564   4.680  15.762  0.00  0.00    +0.000 A 
ATOM     28  O   UNL     1      47.177   5.112  14.681  0.00  0.00    +0.000 OA
ATOM     29  C   UNL     1      48.529   5.349  16.611  0.00  0.00    +0.000 A 
ATOM     30  H   UNL     1      46.390   3.020  15.713  0.00  0.00    +0.000 HD
ENDBRANCH  17  20
ENDBRANCH  15  16
ENDBRANCH   4  15
BRANCH   6  31
ATOM     31  C   UNL     1      44.525   6.758  12.467  0.00  0.00    +0.000 C 
BRANCH  31  32
ATOM     32  N   UNL     1      44.105   6.276  11.164  0.00  0.00    +0.000 N 
ATOM     33  H   UNL     1      44.240   6.971  10.432  0.00  0.00    +0.000 HD
BRANCH  32  34
ATOM     34  C   UNL     1      44.215   4.959  10.732  0.00  0.00    +0.000 C 
ATOM     35  N   UNL     1      43.487   4.037  11.389  0.00  0.00    +0.000 NA
ATOM     36  C   UNL     1      43.741   2.849  10.831  0.00  0.00    +0.000 C 
ATOM     37  C   UNL     1      44.640   2.974   9.811  0.00  0.00    +0.000 C 
ATOM     38 CL   UNL     1      45.241   1.689   8.860  0.00  0.00    +0.000 Cl
ATOM     39  C   UNL     1      44.940   4.315   9.731  0.00  0.00    +0.000 C 
ATOM     40 CL   UNL     1      46.037   5.024   8.620  0.00  0.00    +0.000 Cl
ENDBRANCH  32  34
ENDBRANCH  31  32
ENDBRANCH   6  31
TORSDOF 11
ENDMDL
MODEL 4
REMARK VINA RESULT:    -7.335      2.039      2.747
REMARK INTER + INTRA:         -13.122
REMARK INTER:                 -11.617
REMARK INTRA:                  -1.506
REMARK UNBOUND:                -1.286
REMARK  Name = 
REMARK  11 active torsions:
REMARK  status: ('A' for Active; 'I' for Inactive)
REMARK    1  A    between atoms: N_1  and  C_2
REMARK    2  A    between atoms: C_2  and  C_3
REMARK    3  A    between atoms: C_3  and  N_4
REMARK    4  A    between atoms: N_4  and  C_5
REMARK    5  A    between atoms: C_5  and  C_6
REMARK    6  A    between atoms: C_9  and  C_10
REMARK    7  A    between atoms: C_10  and  N_11
REMARK    8  A    between atoms: C_12  and  C_14
REMARK    9  A    between atoms: C_25  and  C_26
REMARK   10  A    between atoms: C_26  and  N_27
REMARK   11  A    between atoms: N_27  and  C_28
REMARK                            x       y       z     vdW  Elec       q    Type
REMARK                         _______ _______ _______ _____ _____    ______ ____
ROOT
ATOM      1  C   UNL     1      45.816   7.001  12.210  0.00  0.00    +0.000 A 
ATOM      2  C   UNL     1      47.145   6.962  12.682  0.00  0.00    +0.000 A 
ATOM      3  C   UNL     1      47.588   5.943  13.525  0.00  0.00    +0.000 A 
ATOM      4  C   UNL     1      46.714   4.932  13.926  0.00  0.00    +0.000 A 
ATOM      5  C   UNL     1      45.402   4.947  13.422  0.00  0.00    +0.000 A 
ATOM      6  C   UNL     1      44.933   5.956  12.558  0.00  0.00    +0.000 A 
ENDROOT
BRANCH   1   7
ATOM      7  C   UNL     1      45.391   8.229  11.431  0.00  0.00    +0.000 C 
BRANCH   7   8
ATOM      8  N   UNL     1      44.583   9.174  12.210  0.00  0.00    +0.000 NA
ATOM      9  H   UNL     1      43.601   8.958  12.035  0.00  0.00    +0.000 HD
BRANCH   8  10
ATOM     10  C   UNL     1      44.800  10.575  11.813  0.00  0.00    +0.000 C 
BRANCH  10  11
ATOM     11  C   UNL     1      43.487  11.211  11.325  0.00  0.00    +0.000 C 
BRANCH  11  12
ATOM     12  N   UNL     1      42.354  10.876  12.194  0.00  0.00    +0.000 NA
ATOM     13  H   UNL     1      42.495  11.331  13.096  0.00  0.00    +0.000 HD
ATOM     14  H   UNL     1      42.394   9.877  12.388  0.00  0.00    +0.000 HD
ENDBRANCH  11  12
ENDBRANCH  10  11
ENDBRANCH   8  10
ENDBRANCH   7   8
ENDBRANCH   1   7
BRANCH   4  15
ATOM     15  C   UNL     1      47.150   3.894  14.932  0.00  0.00    +0.000 C 
BRANCH  15  16
ATOM     16  N   UNL     1      47.366   4.449  16.248  0.00  0.00    +0.000 N 
ATOM     17  C   UNL     1      48.476   4.186  16.999  0.00  0.00    +0.000 C 
ATOM     18  O   UNL     1      49.369   3.431  16.625  0.00  0.00    +0.000 OA
ATOM     19  H   UNL     1      46.583   4.945  16.663  0.00  0.00    +0.000 HD
BRANCH  17  20
ATOM     20  C   UNL     1      48.583   4.907  18.270  0.00  0.00    +0.000 A 
ATOM     21  C   UNL     1      48.593   4.203  19.466  0.00  0.00    +0.000 A 
ATOM     22  S   UNL     1      48.733   5.198  20.843  0.00  0.00    +0.000 S 
ATOM     23  C   UNL     1      48.751   6.608  19.888  0.00  0.00    +0.000 A 
ATOM     24  N   UNL     1      48.822   7.839  20.459  0.00  0.00    +0.000 NA
ATOM     25  C   UNL     1      48.796   8.819  19.616  0.00  0.00    +0.000 A 
ATOM     26  N   UNL     1      48.717   8.679  18.256  0.00  0.00    +0.000 N 
ATOM     27  C   UNL     1      48.690   7.453  17.632  0.00  0.00    +0.000 A 
ATOM     28  O   UNL     1      48.709   7.362  16.409  0.00  0.00    +0.000 OA
ATOM     29  C   UNL     1      48.681   6.321  18.536  0.00  0.00    +0.000 A 
ATOM     30  H   UNL     1      48.723   9.487  17.652  0.00  0.00    +0.000 HD
ENDBRANCH  17  20
ENDBRANCH  15  16
ENDBRANCH   4  15
BRANCH   6  31
ATOM     31  C   UNL     1      43.495   5.855  12.066  0.00  0.00    +0.000 C 
BRANCH  31  32
ATOM     32  N   UNL     1      43.467   5.457  10.670  0.00  0.00    +0.000 N 
ATOM     33  H   UNL     1      43.520   6.254  10.038  0.00  0.00    +0.000 HD
BRANCH  32  34
ATOM     34  C   UNL     1      44.027   4.289  10.167  0.00  0.00    +0.000 C 
ATOM     35  N   UNL     1      43.489   3.126  10.578  0.00  0.00    +0.000 NA
ATOM     36  C   UNL     1      44.171   2.136   9.993  0.00  0.00    +0.000 C 
ATOM     37  C   UNL     1      45.165   2.633   9.201  0.00  0.00    +0.000 C 
ATOM     38 CL   UNL     1      46.272   1.696   8.299  0.00  0.00    +0.000 Cl
ATOM     39  C   UNL     1      45.077   4.003   9.295  0.00  0.00    +0.000 C 
ATOM     40 CL   UNL     1      46.106   5.123   8.502  0.00  0.00    +0.000 Cl
ENDBRANCH  32  34
ENDBRANCH  31  32
ENDBRANCH   6  31
TORSDOF 11
ENDMDL
MODEL 5
REMARK VINA RESULT:    -7.286      4.371      6.838
REMARK INTER + INTRA:         -13.045
REMARK INTER:                 -10.846
REMARK INTRA:                  -2.199
REMARK UNBOUND:                -1.286
REMARK  Name = 
REMARK  11 active torsions:
REMARK  status: ('A' for Active; 'I' for Inactive)
REMARK    1  A    between atoms: N_1  and  C_2
REMARK    2  A    between atoms: C_2  and  C_3
REMARK    3  A    between atoms: C_3  and  N_4
REMARK    4  A    between atoms: N_4  and  C_5
REMARK    5  A    between atoms: C_5  and  C_6
REMARK    6  A    between atoms: C_9  and  C_10
REMARK    7  A    between atoms: C_10  and  N_11
REMARK    8  A    between atoms: C_12  and  C_14
REMARK    9  A    between atoms: C_25  and  C_26
REMARK   10  A    between atoms: C_26  and  N_27
REMARK   11  A    between atoms: N_27  and  C_28
REMARK                            x       y       z     vdW  Elec       q    Type
REMARK                         _______ _______ _______ _____ _____    ______ ____
ROOT
ATOM      1  C   UNL     1      44.298   5.068  12.290  0.00  0.00    +0.000 A 
ATOM      2  C   UNL     1      43.650   6.066  11.533  0.00  0.00    +0.000 A 
ATOM      3  C   UNL     1      44.114   7.381  11.513  0.00  0.00    +0.000 A 
ATOM      4  C   UNL     1      45.241   7.740  12.254  0.00  0.00    +0.000 A 
ATOM      5  C   UNL     1      45.912   6.737  12.974  0.00  0.00    +0.000 A 
ATOM      6  C   UNL     1      45.472   5.399  12.999  0.00  0.00    +0.000 A 
ENDROOT
BRANCH   1   7
ATOM      7  C   UNL     1      43.627   3.712  12.372  0.00  0.00    +0.000 C 
BRANCH   7   8
ATOM      8  N   UNL     1      43.427   3.071  11.068  0.00  0.00    +0.000 NA
ATOM      9  H   UNL     1      42.904   2.209  11.224  0.00  0.00    +0.000 HD
BRANCH   8  10
ATOM     10  C   UNL     1      44.693   2.702  10.412  0.00  0.00    +0.000 C 
BRANCH  10  11
ATOM     11  C   UNL     1      44.595   2.904   8.890  0.00  0.00    +0.000 C 
BRANCH  11  12
ATOM     12  N   UNL     1      44.160   4.260   8.538  0.00  0.00    +0.000 NA
ATOM     13  H   UNL     1      43.789   4.242   7.588  0.00  0.00    +0.000 HD
ATOM     14  H   UNL     1      44.989   4.851   8.491  0.00  0.00    +0.000 HD
ENDBRANCH  11  12
ENDBRANCH  10  11
ENDBRANCH   8  10
ENDBRANCH   7   8
ENDBRANCH   1   7
BRANCH   4  15
ATOM     15  C   UNL     1      45.679   9.183  12.333  0.00  0.00    +0.000 C 
BRANCH  15  16
ATOM     16  N   UNL     1      46.779   9.381  13.249  0.00  0.00    +0.000 N 
ATOM     17  C   UNL     1      48.057   9.638  12.840  0.00  0.00    +0.000 C 
ATOM     18  O   UNL     1      48.379   9.693  11.656  0.00  0.00    +0.000 OA
ATOM     19  H   UNL     1      46.594   9.183  14.227  0.00  0.00    +0.000 HD
BRANCH  17  20
ATOM     20  C   UNL     1      49.033   9.911  13.898  0.00  0.00    +0.000 A 
ATOM     21  C   UNL     1      49.219  11.210  14.349  0.00  0.00    +0.000 A 
ATOM     22  S   UNL     1      50.383  11.343  15.587  0.00  0.00    +0.000 S 
ATOM     23  C   UNL     1      50.704   9.672  15.538  0.00  0.00    +0.000 A 
ATOM     24  N   UNL     1      51.647   9.116  16.343  0.00  0.00    +0.000 NA
ATOM     25  C   UNL     1      51.806   7.844  16.178  0.00  0.00    +0.000 A 
ATOM     26  N   UNL     1      51.100   7.076  15.289  0.00  0.00    +0.000 N 
ATOM     27  C   UNL     1      50.104   7.586  14.489  0.00  0.00    +0.000 A 
ATOM     28  O   UNL     1      49.431   6.856  13.769  0.00  0.00    +0.000 OA
ATOM     29  C   UNL     1      49.911   9.017  14.611  0.00  0.00    +0.000 A 
ATOM     30  H   UNL     1      51.258   6.082  15.226  0.00  0.00    +0.000 HD
ENDBRANCH  17  20
ENDBRANCH  15  16
ENDBRANCH   4  15
BRANCH   6  31
ATOM     31  C   UNL     1      46.293   4.400  13.804  0.00  0.00    +0.000 C 
BRANCH  31  32
ATOM     32  N   UNL     1      47.114   5.093  14.781  0.00  0.00    +0.000 N 
ATOM     33  H   UNL     1      46.956   6.098  14.777  0.00  0.00    +0.000 HD
BRANCH  32  34
ATOM     34  C   UNL     1      47.480   4.576  16.019  0.00  0.00    +0.000 C 
ATOM     35  N   UNL     1      47.290   3.257  16.211  0.00  0.00    +0.000 NA
ATOM     36  C   UNL     1      47.692   2.968  17.453  0.00  0.00    +0.000 C 
ATOM     37  C   UNL     1      48.142   4.088  18.091  0.00  0.00    +0.000 C 
ATOM     38 CL   UNL     1      48.721   4.145  19.696  0.00  0.00    +0.000 Cl
ATOM     39  C   UNL     1      48.022   5.116  17.184  0.00  0.00    +0.000 C 
ATOM     40 CL   UNL     1      48.437   6.754  17.476  0.00  0.00    +0.000 Cl
ENDBRANCH  32  34
ENDBRANCH  31  32
ENDBRANCH   6  31
TORSDOF 11
ENDMDL
MODEL 6
REMARK VINA RESULT:    -7.245      4.315     10.434
REMARK INTER + INTRA:         -12.978
REMARK INTER:                 -11.475
REMARK INTRA:                  -1.503
REMARK UNBOUND:                -1.286
REMARK  Name = 
REMARK  11 active torsions:
REMARK  status: ('A' for Active; 'I' for Inactive)
REMARK    1  A    between atoms: N_1  and  C_2
REMARK    2  A    between atoms: C_2  and  C_3
REMARK    3  A    between atoms: C_3  and  N_4
REMARK    4  A    between atoms: N_4  and  C_5
REMARK    5  A    between atoms: C_5  and  C_6
REMARK    6  A    between atoms: C_9  and  C_10
REMARK    7  A    between atoms: C_10  and  N_11
REMARK    8  A    between atoms: C_12  and  C_14
REMARK    9  A    between atoms: C_25  and  C_26
REMARK   10  A    between atoms: C_26  and  N_27
REMARK   11  A    between atoms: N_27  and  C_28
REMARK                            x       y       z     vdW  Elec       q    Type
REMARK                         _______ _______ _______ _____ _____    ______ ____
ROOT
ATOM      1  C   UNL     1      51.438   3.500  17.694  0.00  0.00    +0.000 A 
ATOM      2  C   UNL     1      50.775   2.307  17.339  0.00  0.00    +0.000 A 
ATOM      3  C   UNL     1      49.423   2.299  16.999  0.00  0.00    +0.000 A 
ATOM      4  C   UNL     1      48.689   3.486  17.007  0.00  0.00    +0.000 A 
ATOM      5  C   UNL     1      49.359   4.681  17.320  0.00  0.00    +0.000 A 
ATOM      6  C   UNL     1      50.728   4.718  17.652  0.00  0.00    +0.000 A 
ENDROOT
BRANCH   1   7
ATOM      7  C   UNL     1      52.862   3.380  18.198  0.00  0.00    +0.000 C 
BRANCH   7   8
ATOM      8  N   UNL     1      53.115   2.160  18.972  0.00  0.00    +0.000 NA
ATOM      9  H   UNL     1      53.261   2.436  19.944  0.00  0.00    +0.000 HD
BRANCH   8  10
ATOM     10  C   UNL     1      54.326   1.445  18.534  0.00  0.00    +0.000 C 
BRANCH  10  11
ATOM     11  C   UNL     1      53.955   0.117  17.852  0.00  0.00    +0.000 C 
BRANCH  11  12
ATOM     12  N   UNL     1      52.777  -0.509  18.462  0.00  0.00    +0.000 NA
ATOM     13  H   UNL     1      52.888  -1.521  18.411  0.00  0.00    +0.000 HD
ATOM     14  H   UNL     1      51.972  -0.297  17.874  0.00  0.00    +0.000 HD
ENDBRANCH  11  12
ENDBRANCH  10  11
ENDBRANCH   8  10
ENDBRANCH   7   8
ENDBRANCH   1   7
BRANCH   4  15
ATOM     15  C   UNL     1      47.200   3.470  16.758  0.00  0.00    +0.000 C 
BRANCH  15  16
ATOM     16  N   UNL     1      46.790   4.438  15.767  0.00  0.00    +0.000 N 
ATOM     17  C   UNL     1      46.824   4.195  14.423  0.00  0.00    +0.000 C 
ATOM     18  O   UNL     1      47.234   3.138  13.948  0.00  0.00    +0.000 OA
ATOM     19  H   UNL     1      46.601   5.377  16.104  0.00  0.00    +0.000 HD
BRANCH  17  20
ATOM     20  C   UNL     1      46.282   5.247  13.561  0.00  0.00    +0.000 A 
ATOM     21  C   UNL     1      47.008   6.411  13.349  0.00  0.00    +0.000 A 
ATOM     22  S   UNL     1      46.233   7.521  12.314  0.00  0.00    +0.000 S 
ATOM     23  C   UNL     1      44.883   6.498  12.140  0.00  0.00    +0.000 A 
ATOM     24  N   UNL     1      43.813   6.872  11.390  0.00  0.00    +0.000 NA
ATOM     25  C   UNL     1      42.849   6.011  11.371  0.00  0.00    +0.000 A 
ATOM     26  N   UNL     1      42.862   4.808  12.025  0.00  0.00    +0.000 N 
ATOM     27  C   UNL     1      43.941   4.368  12.757  0.00  0.00    +0.000 A 
ATOM     28  O   UNL     1      43.955   3.248  13.256  0.00  0.00    +0.000 OA
ATOM     29  C   UNL     1      45.035   5.313  12.839  0.00  0.00    +0.000 A 
ATOM     30  H   UNL     1      42.084   4.171  11.951  0.00  0.00    +0.000 HD
ENDBRANCH  17  20
ENDBRANCH  15  16
ENDBRANCH   4  15
BRANCH   6  31
ATOM     31  C   UNL     1      51.345   6.077  17.956  0.00  0.00    +0.000 C 
BRANCH  31  32
ATOM     32  N   UNL     1      50.866   6.574  19.233  0.00  0.00    +0.000 N 
ATOM     33  H   UNL     1      51.574   6.514  19.963  0.00  0.00    +0.000 HD
BRANCH  32  34
ATOM     34  C   UNL     1      49.970   7.625  19.390  0.00  0.00    +0.000 C 
ATOM     35  N   UNL     1      50.470   8.872  19.308  0.00  0.00    +0.000 NA
ATOM     36  C   UNL     1      49.458   9.726  19.494  0.00  0.00    +0.000 C 
ATOM     37  C   UNL     1      48.289   9.055  19.708  0.00  0.00    +0.000 C 
ATOM     38 CL   UNL     1      46.773   9.780  20.008  0.00  0.00    +0.000 Cl
ATOM     39  C   UNL     1      48.600   7.716  19.632  0.00  0.00    +0.000 C 
ATOM     40 CL   UNL     1      47.492   6.424  19.840  0.00  0.00    +0.000 Cl
ENDBRANCH  32  34
ENDBRANCH  31  32
ENDBRANCH   6  31
TORSDOF 11
ENDMDL
MODEL 7
REMARK VINA RESULT:    -7.077      3.725      9.847
REMARK INTER + INTRA:         -12.706
REMARK INTER:                 -11.083
REMARK INTRA:                  -1.623
REMARK UNBOUND:                -1.286
REMARK  Name = 
REMARK  11 active torsions:
REMARK  status: ('A' for Active; 'I' for Inactive)
REMARK    1  A    between atoms: N_1  and  C_2
REMARK    2  A    between atoms: C_2  and  C_3
REMARK    3  A    between atoms: C_3  and  N_4
REMARK    4  A    between atoms: N_4  and  C_5
REMARK    5  A    between atoms: C_5  and  C_6
REMARK    6  A    between atoms: C_9  and  C_10
REMARK    7  A    between atoms: C_10  and  N_11
REMARK    8  A    between atoms: C_12  and  C_14
REMARK    9  A    between atoms: C_25  and  C_26
REMARK   10  A    between atoms: C_26  and  N_27
REMARK   11  A    between atoms: N_27  and  C_28
REMARK                            x       y       z     vdW  Elec       q    Type
REMARK                         _______ _______ _______ _____ _____    ______ ____
ROOT
ATOM      1  C   UNL     1      51.340   3.571  17.802  0.00  0.00    +0.000 A 
ATOM      2  C   UNL     1      50.742   2.370  17.368  0.00  0.00    +0.000 A 
ATOM      3  C   UNL     1      49.403   2.321  16.981  0.00  0.00    +0.000 A 
ATOM      4  C   UNL     1      48.618   3.474  17.021  0.00  0.00    +0.000 A 
ATOM      5  C   UNL     1      49.225   4.680  17.412  0.00  0.00    +0.000 A 
ATOM      6  C   UNL     1      50.579   4.759  17.793  0.00  0.00    +0.000 A 
ENDROOT
BRANCH   1   7
ATOM      7  C   UNL     1      52.751   3.487  18.349  0.00  0.00    +0.000 C 
BRANCH   7   8
ATOM      8  N   UNL     1      53.127   2.147  18.813  0.00  0.00    +0.000 NA
ATOM      9  H   UNL     1      53.438   2.233  19.782  0.00  0.00    +0.000 HD
BRANCH   8  10
ATOM     10  C   UNL     1      54.242   1.568  18.045  0.00  0.00    +0.000 C 
BRANCH  10  11
ATOM     11  C   UNL     1      53.893   0.147  17.570  0.00  0.00    +0.000 C 
BRANCH  11  12
ATOM     12  N   UNL     1      52.824  -0.459  18.371  0.00  0.00    +0.000 NA
ATOM     13  H   UNL     1      51.983   0.108  18.265  0.00  0.00    +0.000 HD
ATOM     14  H   UNL     1      53.084  -0.373  19.353  0.00  0.00    +0.000 HD
ENDBRANCH  11  12
ENDBRANCH  10  11
ENDBRANCH   8  10
ENDBRANCH   7   8
ENDBRANCH   1   7
BRANCH   4  15
ATOM     15  C   UNL     1      47.140   3.407  16.719  0.00  0.00    +0.000 C 
BRANCH  15  16
ATOM     16  N   UNL     1      46.729   4.374  15.727  0.00  0.00    +0.000 N 
ATOM     17  C   UNL     1      46.746   4.122  14.385  0.00  0.00    +0.000 C 
ATOM     18  O   UNL     1      47.140   3.058  13.912  0.00  0.00    +0.000 OA
ATOM     19  H   UNL     1      46.553   5.317  16.060  0.00  0.00    +0.000 HD
BRANCH  17  20
ATOM     20  C   UNL     1      46.205   5.174  13.521  0.00  0.00    +0.000 A 
ATOM     21  C   UNL     1      46.945   6.324  13.286  0.00  0.00    +0.000 A 
ATOM     22  S   UNL     1      46.168   7.437  12.254  0.00  0.00    +0.000 S 
ATOM     23  C   UNL     1      44.800   6.433  12.113  0.00  0.00    +0.000 A 
ATOM     24  N   UNL     1      43.723   6.816  11.378  0.00  0.00    +0.000 NA
ATOM     25  C   UNL     1      42.746   5.971  11.385  0.00  0.00    +0.000 A 
ATOM     26  N   UNL     1      42.752   4.773  12.050  0.00  0.00    +0.000 N 
ATOM     27  C   UNL     1      43.837   4.323  12.767  0.00  0.00    +0.000 A 
ATOM     28  O   UNL     1      43.843   3.208  13.277  0.00  0.00    +0.000 OA
ATOM     29  C   UNL     1      44.947   5.252  12.821  0.00  0.00    +0.000 A 
ATOM     30  H   UNL     1      41.963   4.148  11.995  0.00  0.00    +0.000 HD
ENDBRANCH  17  20
ENDBRANCH  15  16
ENDBRANCH   4  15
BRANCH   6  31
ATOM     31  C   UNL     1      51.126   6.126  18.183  0.00  0.00    +0.000 C 
BRANCH  31  32
ATOM     32  N   UNL     1      50.044   7.087  18.301  0.00  0.00    +0.000 N 
ATOM     33  H   UNL     1      49.757   7.230  19.267  0.00  0.00    +0.000 HD
BRANCH  32  34
ATOM     34  C   UNL     1      49.877   8.198  17.483  0.00  0.00    +0.000 C 
ATOM     35  N   UNL     1      49.686   9.383  18.092  0.00  0.00    +0.000 NA
ATOM     36  C   UNL     1      49.539  10.309  17.139  0.00  0.00    +0.000 C 
ATOM     37  C   UNL     1      49.622   9.746  15.898  0.00  0.00    +0.000 C 
ATOM     38 CL   UNL     1      49.465  10.585  14.420  0.00  0.00    +0.000 Cl
ATOM     39  C   UNL     1      49.848   8.404  16.105  0.00  0.00    +0.000 C 
ATOM     40 CL   UNL     1      50.021   7.224  14.872  0.00  0.00    +0.000 Cl
ENDBRANCH  32  34
ENDBRANCH  31  32
ENDBRANCH   6  31
TORSDOF 11
ENDMDL
MODEL 8
REMARK VINA RESULT:    -7.002      2.710      5.115
REMARK INTER + INTRA:         -12.586
REMARK INTER:                 -10.969
REMARK INTRA:                  -1.617
REMARK UNBOUND:                -1.286
REMARK  Name = 
REMARK  11 active torsions:
REMARK  status: ('A' for Active; 'I' for Inactive)
REMARK    1  A    between atoms: N_1  and  C_2
REMARK    2  A    between atoms: C_2  and  C_3
REMARK    3  A    between atoms: C_3  and  N_4
REMARK    4  A    between atoms: N_4  and  C_5
REMARK    5  A    between atoms: C_5  and  C_6
REMARK    6  A    between atoms: C_9  and  C_10
REMARK    7  A    between atoms: C_10  and  N_11
REMARK    8  A    between atoms: C_12  and  C_14
REMARK    9  A    between atoms: C_25  and  C_26
REMARK   10  A    between atoms: C_26  and  N_27
REMARK   11  A    between atoms: N_27  and  C_28
REMARK                            x       y       z     vdW  Elec       q    Type
REMARK                         _______ _______ _______ _____ _____    ______ ____
ROOT
ATOM      1  C   UNL     1      44.548   4.930  11.751  0.00  0.00    +0.000 A 
ATOM      2  C   UNL     1      44.759   3.547  11.925  0.00  0.00    +0.000 A 
ATOM      3  C   UNL     1      45.655   3.061  12.878  0.00  0.00    +0.000 A 
ATOM      4  C   UNL     1      46.371   3.946  13.684  0.00  0.00    +0.000 A 
ATOM      5  C   UNL     1      46.130   5.323  13.541  0.00  0.00    +0.000 A 
ATOM      6  C   UNL     1      45.220   5.839  12.596  0.00  0.00    +0.000 A 
ENDROOT
BRANCH   1   7
ATOM      7  C   UNL     1      43.678   5.360  10.587  0.00  0.00    +0.000 C 
BRANCH   7   8
ATOM      8  N   UNL     1      44.002   4.684   9.325  0.00  0.00    +0.000 NA
ATOM      9  H   UNL     1      43.807   3.690   9.449  0.00  0.00    +0.000 HD
BRANCH   8  10
ATOM     10  C   UNL     1      45.423   4.809   8.958  0.00  0.00    +0.000 C 
BRANCH  10  11
ATOM     11  C   UNL     1      45.828   3.700   7.972  0.00  0.00    +0.000 C 
BRANCH  11  12
ATOM     12  N   UNL     1      46.738   4.190   6.931  0.00  0.00    +0.000 NA
ATOM     13  H   UNL     1      46.183   4.456   6.118  0.00  0.00    +0.000 HD
ATOM     14  H   UNL     1      47.310   3.406   6.622  0.00  0.00    +0.000 HD
ENDBRANCH  11  12
ENDBRANCH  10  11
ENDBRANCH   8  10
ENDBRANCH   7   8
ENDBRANCH   1   7
BRANCH   4  15
ATOM     15  C   UNL     1      47.428   3.435  14.633  0.00  0.00    +0.000 C 
BRANCH  15  16
ATOM     16  N   UNL     1      47.683   4.346  15.726  0.00  0.00    +0.000 N 
ATOM     17  C   UNL     1      47.289   4.103  17.011  0.00  0.00    +0.000 C 
ATOM     18  O   UNL     1      46.658   3.100  17.335  0.00  0.00    +0.000 OA
ATOM     19  H   UNL     1      48.055   5.257  15.477  0.00  0.00    +0.000 HD
BRANCH  17  20
ATOM     20  C   UNL     1      47.713   5.082  18.014  0.00  0.00    +0.000 A 
ATOM     21  C   UNL     1      46.767   5.698  18.822  0.00  0.00    +0.000 A 
ATOM     22  S   UNL     1      47.436   6.800  19.937  0.00  0.00    +0.000 S 
ATOM     23  C   UNL     1      49.011   6.517  19.354  0.00  0.00    +0.000 A 
ATOM     24  N   UNL     1      50.078   7.183  19.868  0.00  0.00    +0.000 NA
ATOM     25  C   UNL     1      51.207   6.892  19.310  0.00  0.00    +0.000 A 
ATOM     26  N   UNL     1      51.367   5.987  18.294  0.00  0.00    +0.000 N 
ATOM     27  C   UNL     1      50.323   5.256  17.775  0.00  0.00    +0.000 A 
ATOM     28  O   UNL     1      50.514   4.390  16.927  0.00  0.00    +0.000 OA
ATOM     29  C   UNL     1      49.029   5.572  18.343  0.00  0.00    +0.000 A 
ATOM     30  H   UNL     1      52.281   5.789  17.917  0.00  0.00    +0.000 HD
ENDBRANCH  17  20
ENDBRANCH  15  16
ENDBRANCH   4  15
BRANCH   6  31
ATOM     31  C   UNL     1      45.033   7.349  12.546  0.00  0.00    +0.000 C 
BRANCH  31  32
ATOM     32  N   UNL     1      46.102   8.014  13.269  0.00  0.00    +0.000 N 
ATOM     33  H   UNL     1      46.367   7.515  14.116  0.00  0.00    +0.000 HD
BRANCH  32  34
ATOM     34  C   UNL     1      47.139   8.724  12.675  0.00  0.00    +0.000 C 
ATOM     35  N   UNL     1      46.881   9.994  12.313  0.00  0.00    +0.000 NA
ATOM     36  C   UNL     1      47.992  10.490  11.758  0.00  0.00    +0.000 C 
ATOM     37  C   UNL     1      48.986   9.554  11.741  0.00  0.00    +0.000 C 
ATOM     38 CL   UNL     1      50.550   9.785  11.098  0.00  0.00    +0.000 Cl
ATOM     39  C   UNL     1      48.457   8.429  12.332  0.00  0.00    +0.000 C 
ATOM     40 CL   UNL     1      49.283   6.942  12.556  0.00  0.00    +0.000 Cl
ENDBRANCH  32  34
ENDBRANCH  31  32
ENDBRANCH   6  31
TORSDOF 11
ENDMDL
MODEL 9
REMARK VINA RESULT:    -6.949      3.348      5.999
REMARK INTER + INTRA:         -12.500
REMARK INTER:                 -10.365
REMARK INTRA:                  -2.135
REMARK UNBOUND:                -1.286
REMARK  Name = 
REMARK  11 active torsions:
REMARK  status: ('A' for Active; 'I' for Inactive)
REMARK    1  A    between atoms: N_1  and  C_2
REMARK    2  A    between atoms: C_2  and  C_3
REMARK    3  A    between atoms: C_3  and  N_4
REMARK    4  A    between atoms: N_4  and  C_5
REMARK    5  A    between atoms: C_5  and  C_6
REMARK    6  A    between atoms: C_9  and  C_10
REMARK    7  A    between atoms: C_10  and  N_11
REMARK    8  A    between atoms: C_12  and  C_14
REMARK    9  A    between atoms: C_25  and  C_26
REMARK   10  A    between atoms: C_26  and  N_27
REMARK   11  A    between atoms: N_27  and  C_28
REMARK                            x       y       z     vdW  Elec       q    Type
REMARK                         _______ _______ _______ _____ _____    ______ ____
ROOT
ATOM      1  C   UNL     1      45.097   5.054  11.694  0.00  0.00    +0.000 A 
ATOM      2  C   UNL     1      45.368   3.714  12.044  0.00  0.00    +0.000 A 
ATOM      3  C   UNL     1      46.126   3.395  13.171  0.00  0.00    +0.000 A 
ATOM      4  C   UNL     1      46.641   4.408  13.981  0.00  0.00    +0.000 A 
ATOM      5  C   UNL     1      46.336   5.741  13.657  0.00  0.00    +0.000 A 
ATOM      6  C   UNL     1      45.560   6.089  12.533  0.00  0.00    +0.000 A 
ENDROOT
BRANCH   1   7
ATOM      7  C   UNL     1      44.403   5.299  10.370  0.00  0.00    +0.000 C 
BRANCH   7   8
ATOM      8  N   UNL     1      45.261   5.076   9.201  0.00  0.00    +0.000 NA
ATOM      9  H   UNL     1      45.224   5.918   8.626  0.00  0.00    +0.000 HD
BRANCH   8  10
ATOM     10  C   UNL     1      44.804   3.955   8.363  0.00  0.00    +0.000 C 
BRANCH  10  11
ATOM     11  C   UNL     1      45.996   3.279   7.662  0.00  0.00    +0.000 C 
BRANCH  11  12
ATOM     12  N   UNL     1      46.822   4.241   6.925  0.00  0.00    +0.000 NA
ATOM     13  H   UNL     1      46.207   4.938   6.505  0.00  0.00    +0.000 HD
ATOM     14  H   UNL     1      47.247   3.750   6.140  0.00  0.00    +0.000 HD
ENDBRANCH  11  12
ENDBRANCH  10  11
ENDBRANCH   8  10
ENDBRANCH   7   8
ENDBRANCH   1   7
BRANCH   4  15
ATOM     15  C   UNL     1      47.560   4.077  15.132  0.00  0.00    +0.000 C 
BRANCH  15  16
ATOM     16  N   UNL     1      47.532   5.078  16.174  0.00  0.00    +0.000 N 
ATOM     17  C   UNL     1      48.599   5.346  16.983  0.00  0.00    +0.000 C 
ATOM     18  O   UNL     1      49.662   4.735  16.908  0.00  0.00    +0.000 OA
ATOM     19  H   UNL     1      46.628   5.491  16.379  0.00  0.00    +0.000 HD
BRANCH  17  20
ATOM     20  C   UNL     1      48.435   6.458  17.922  0.00  0.00    +0.000 A 
ATOM     21  C   UNL     1      48.387   6.210  19.287  0.00  0.00    +0.000 A 
ATOM     22  S   UNL     1      48.202   7.618  20.231  0.00  0.00    +0.000 S 
ATOM     23  C   UNL     1      48.146   8.605  18.845  0.00  0.00    +0.000 A 
ATOM     24  N   UNL     1      47.967   9.948  18.948  0.00  0.00    +0.000 NA
ATOM     25  C   UNL     1      47.915  10.567  17.815  0.00  0.00    +0.000 A 
ATOM     26  N   UNL     1      48.036   9.967  16.589  0.00  0.00    +0.000 N 
ATOM     27  C   UNL     1      48.265   8.619  16.438  0.00  0.00    +0.000 A 
ATOM     28  O   UNL     1      48.458   8.128  15.331  0.00  0.00    +0.000 OA
ATOM     29  C   UNL     1      48.297   7.873  17.679  0.00  0.00    +0.000 A 
ATOM     30  H   UNL     1      48.008  10.513  15.742  0.00  0.00    +0.000 HD
ENDBRANCH  17  20
ENDBRANCH  15  16
ENDBRANCH   4  15
BRANCH   6  31
ATOM     31  C   UNL     1      45.285   7.568  12.295  0.00  0.00    +0.000 C 
BRANCH  31  32
ATOM     32  N   UNL     1      46.255   8.382  13.005  0.00  0.00    +0.000 N 
ATOM     33  H   UNL     1      46.532   7.970  13.893  0.00  0.00    +0.000 HD
BRANCH  32  34
ATOM     34  C   UNL     1      47.242   9.150  12.397  0.00  0.00    +0.000 C 
ATOM     35  N   UNL     1      46.950  10.442  12.158  0.00  0.00    +0.000 NA
ATOM     36  C   UNL     1      48.015  10.994  11.567  0.00  0.00    +0.000 C 
ATOM     37  C   UNL     1      49.011  10.074  11.404  0.00  0.00    +0.000 C 
ATOM     38 CL   UNL     1      50.524  10.375  10.672  0.00  0.00    +0.000 Cl
ATOM     39  C   UNL     1      48.534   8.899  11.939  0.00  0.00    +0.000 C 
ATOM     40 CL   UNL     1      49.384   7.410  11.984  0.00  0.00    +0.000 Cl
ENDBRANCH  32  34
ENDBRANCH  31  32
ENDBRANCH   6  31
TORSDOF 11
ENDMDL
