MODEL 1
REMARK VINA RESULT:    -8.254      0.000      0.000
REMARK INTER + INTRA:         -13.527
REMARK INTER:                 -12.115
REMARK INTRA:                  -1.412
REMARK UNBOUND:                -1.412
REMARK  Name = 
REMARK  10 active torsions:
REMARK  status: ('A' for Active; 'I' for Inactive)
REMARK    1  A    between atoms: C_1  and  O_2
REMARK    2  A    between atoms: O_2  and  C_3
REMARK    3  A    between atoms: C_10  and  C_11
REMARK    4  A    between atoms: N_13  and  C_14
REMARK    5  A    between atoms: C_14  and  C_15
REMARK    6  A    between atoms: C_18  and  C_19
REMARK    7  A    between atoms: C_19  and  N_20
REMARK    8  A    between atoms: N_20  and  C_21
REMARK    9  A    between atoms: N_20  and  C_22
REMARK   10  A    between atoms: C_22  and  C_23
REMARK                            x       y       z     vdW  Elec       q    Type
REMARK                         _______ _______ _______ _____ _____    ______ ____
ROOT
ATOM      1  C   UNL     1      47.050   8.264  13.352  0.00  0.00    +0.000 C 
ENDROOT
BRANCH   1   2
ATOM      2  C   UNL     1      46.262   7.277  12.531  0.00  0.00    +0.000 A 
ATOM      3  C   UNL     1      46.819   6.703  11.383  0.00  0.00    +0.000 A 
ATOM      4  C   UNL     1      46.076   5.819  10.597  0.00  0.00    +0.000 A 
ATOM      5  C   UNL     1      44.765   5.477  10.956  0.00  0.00    +0.000 A 
ATOM      6  C   UNL     1      44.199   6.068  12.094  0.00  0.00    +0.000 A 
ATOM      7  C   UNL     1      44.937   6.965  12.870  0.00  0.00    +0.000 A 
BRANCH   5   8
ATOM      8  C   UNL     1      43.967   4.488  10.128  0.00  0.00    +0.000 C 
BRANCH   8   9
ATOM      9  N   UNL     1      44.361   3.080  10.339  0.00  0.00    +0.000 NA
ATOM     10  C   UNL     1      43.520   2.439  11.360  0.00  0.00    +0.000 C 
BRANCH   9  11
ATOM     11  C   UNL     1      44.249   2.312   9.085  0.00  0.00    +0.000 C 
BRANCH  11  12
ATOM     12  C   UNL     1      45.485   2.347   8.209  0.00  0.00    +0.000 A 
ATOM     13  C   UNL     1      45.901   3.542   7.606  0.00  0.00    +0.000 A 
ATOM     14  C   UNL     1      47.092   3.593   6.880  0.00  0.00    +0.000 A 
ATOM     15  C   UNL     1      47.874   2.447   6.740  0.00  0.00    +0.000 A 
ATOM     16  C   UNL     1      47.452   1.243   7.302  0.00  0.00    +0.000 A 
ATOM     17  C   UNL     1      46.264   1.192   8.033  0.00  0.00    +0.000 A 
ENDBRANCH  11  12
ENDBRANCH   9  11
ENDBRANCH   8   9
ENDBRANCH   5   8
ENDBRANCH   1   2
BRANCH   1  20
ATOM     18  C   UNL     1      48.775   7.015  14.581  0.00  0.00    +0.000 C 
ATOM     19  O   UNL     1      49.487   6.955  13.583  0.00  0.00    +0.000 OA
ATOM     20  N   UNL     1      47.559   7.636  14.547  0.00  0.00    +0.000 N 
ATOM     21  H   UNL     1      46.971   7.656  15.369  0.00  0.00    +0.000 HD
BRANCH  18  29
ATOM     22  C   UNL     1      47.574   4.408  16.494  0.00  0.00    +0.000 A 
ATOM     23  N   UNL     1      47.345   3.441  17.404  0.00  0.00    +0.000 NA
ATOM     24  C   UNL     1      48.159   3.361  18.460  0.00  0.00    +0.000 A 
ATOM     25  N   UNL     1      49.197   4.147  18.728  0.00  0.00    +0.000 NA
ATOM     26  C   UNL     1      49.399   5.090  17.791  0.00  0.00    +0.000 A 
ATOM     27  S   UNL     1      50.678   6.189  17.976  0.00  0.00    +0.000 S 
ATOM     28  C   UNL     1      50.289   6.966  16.518  0.00  0.00    +0.000 A 
ATOM     29  C   UNL     1      49.195   6.414  15.860  0.00  0.00    +0.000 A 
ATOM     30  C   UNL     1      48.655   5.297  16.631  0.00  0.00    +0.000 A 
BRANCH  22  32
ATOM     31  C   UNL     1      47.198   3.650  14.325  0.00  0.00    +0.000 C 
ATOM     32  O   UNL     1      46.738   4.470  15.399  0.00  0.00    +0.000 OA
ENDBRANCH  22  32
ENDBRANCH  18  29
ENDBRANCH   1  20
TORSDOF 8
ENDMDL
MODEL 2
REMARK VINA RESULT:    -7.768      1.489      2.087
REMARK INTER + INTRA:         -12.814
REMARK INTER:                 -11.433
REMARK INTRA:                  -1.380
REMARK UNBOUND:                -1.412
REMARK  Name = 
REMARK  10 active torsions:
REMARK  status: ('A' for Active; 'I' for Inactive)
REMARK    1  A    between atoms: C_1  and  O_2
REMARK    2  A    between atoms: O_2  and  C_3
REMARK    3  A    between atoms: C_10  and  C_11
REMARK    4  A    between atoms: N_13  and  C_14
REMARK    5  A    between atoms: C_14  and  C_15
REMARK    6  A    between atoms: C_18  and  C_19
REMARK    7  A    between atoms: C_19  and  N_20
REMARK    8  A    between atoms: N_20  and  C_21
REMARK    9  A    between atoms: N_20  and  C_22
REMARK   10  A    between atoms: C_22  and  C_23
REMARK                            x       y       z     vdW  Elec       q    Type
REMARK                         _______ _______ _______ _____ _____    ______ ____
ROOT
ATOM      1  C   UNL     1      49.167   7.024  13.691  0.00  0.00    +0.000 C 
ENDROOT
BRANCH   1   2
ATOM      2  C   UNL     1      47.918   6.496  13.034  0.00  0.00    +0.000 A 
ATOM      3  C   UNL     1      47.190   5.456  13.624  0.00  0.00    +0.000 A 
ATOM      4  C   UNL     1      46.055   4.937  12.997  0.00  0.00    +0.000 A 
ATOM      5  C   UNL     1      45.616   5.461  11.773  0.00  0.00    +0.000 A 
ATOM      6  C   UNL     1      46.357   6.488  11.171  0.00  0.00    +0.000 A 
ATOM      7  C   UNL     1      47.501   6.995  11.791  0.00  0.00    +0.000 A 
BRANCH   5   8
ATOM      8  C   UNL     1      44.362   4.927  11.107  0.00  0.00    +0.000 C 
BRANCH   8   9
ATOM      9  N   UNL     1      44.423   3.487  10.789  0.00  0.00    +0.000 NA
ATOM     10  C   UNL     1      43.443   2.725  11.577  0.00  0.00    +0.000 C 
BRANCH   9  11
ATOM     11  C   UNL     1      44.159   3.255   9.357  0.00  0.00    +0.000 C 
BRANCH  11  12
ATOM     12  C   UNL     1      45.366   2.813   8.554  0.00  0.00    +0.000 A 
ATOM     13  C   UNL     1      45.757   1.467   8.534  0.00  0.00    +0.000 A 
ATOM     14  C   UNL     1      46.808   1.046   7.718  0.00  0.00    +0.000 A 
ATOM     15  C   UNL     1      47.487   1.969   6.923  0.00  0.00    +0.000 A 
ATOM     16  C   UNL     1      47.135   3.316   6.965  0.00  0.00    +0.000 A 
ATOM     17  C   UNL     1      46.079   3.737   7.775  0.00  0.00    +0.000 A 
ENDBRANCH  11  12
ENDBRANCH   9  11
ENDBRANCH   8   9
ENDBRANCH   5   8
ENDBRANCH   1   2
BRANCH   1  20
ATOM     18  C   UNL     1      50.080   7.304  15.957  0.00  0.00    +0.000 C 
ATOM     19  O   UNL     1      51.145   7.719  15.511  0.00  0.00    +0.000 OA
ATOM     20  N   UNL     1      49.059   6.935  15.127  0.00  0.00    +0.000 N 
ATOM     21  H   UNL     1      48.196   6.571  15.507  0.00  0.00    +0.000 HD
BRANCH  18  29
ATOM     22  C   UNL     1      49.050   4.712  17.988  0.00  0.00    +0.000 A 
ATOM     23  N   UNL     1      48.708   3.890  18.998  0.00  0.00    +0.000 NA
ATOM     24  C   UNL     1      48.705   4.381  20.241  0.00  0.00    +0.000 A 
ATOM     25  N   UNL     1      49.006   5.623  20.607  0.00  0.00    +0.000 NA
ATOM     26  C   UNL     1      49.354   6.408  19.573  0.00  0.00    +0.000 A 
ATOM     27  S   UNL     1      49.763   8.029  19.857  0.00  0.00    +0.000 S 
ATOM     28  C   UNL     1      50.052   8.299  18.206  0.00  0.00    +0.000 A 
ATOM     29  C   UNL     1      49.853   7.177  17.409  0.00  0.00    +0.000 A 
ATOM     30  C   UNL     1      49.422   6.047  18.228  0.00  0.00    +0.000 A 
BRANCH  22  32
ATOM     31  C   UNL     1      47.959   3.323  16.471  0.00  0.00    +0.000 C 
ATOM     32  O   UNL     1      49.068   4.189  16.712  0.00  0.00    +0.000 OA
ENDBRANCH  22  32
ENDBRANCH  18  29
ENDBRANCH   1  20
TORSDOF 8
ENDMDL
MODEL 3
REMARK VINA RESULT:    -7.716      2.559      3.345
REMARK INTER + INTRA:         -12.737
REMARK INTER:                 -11.419
REMARK INTRA:                  -1.319
REMARK UNBOUND:                -1.412
REMARK  Name = 
REMARK  10 active torsions:
REMARK  status: ('A' for Active; 'I' for Inactive)
REMARK    1  A    between atoms: C_1  and  O_2
REMARK    2  A    between atoms: O_2  and  C_3
REMARK    3  A    between atoms: C_10  and  C_11
REMARK    4  A    between atoms: N_13  and  C_14
REMARK    5  A    between atoms: C_14  and  C_15
REMARK    6  A    between atoms: C_18  and  C_19
REMARK    7  A    between atoms: C_19  and  N_20
REMARK    8  A    between atoms: N_20  and  C_21
REMARK    9  A    between atoms: N_20  and  C_22
REMARK   10  A    between atoms: C_22  and  C_23
REMARK                            x       y       z     vdW  Elec       q    Type
REMARK                         _______ _______ _______ _____ _____    ______ ____
ROOT
ATOM      1  C   UNL     1      48.736   6.943  14.114  0.00  0.00    +0.000 C 
ENDROOT
BRANCH   1   2
ATOM      2  C   UNL     1      47.616   6.390  13.271  0.00  0.00    +0.000 A 
ATOM      3  C   UNL     1      47.295   6.979  12.042  0.00  0.00    +0.000 A 
ATOM      4  C   UNL     1      46.230   6.494  11.278  0.00  0.00    +0.000 A 
ATOM      5  C   UNL     1      45.476   5.399  11.722  0.00  0.00    +0.000 A 
ATOM      6  C   UNL     1      45.784   4.823  12.962  0.00  0.00    +0.000 A 
ATOM      7  C   UNL     1      46.838   5.319  13.734  0.00  0.00    +0.000 A 
BRANCH   5   8
ATOM      8  C   UNL     1      44.344   4.845  10.878  0.00  0.00    +0.000 C 
BRANCH   8   9
ATOM      9  N   UNL     1      44.495   3.414  10.544  0.00  0.00    +0.000 NA
ATOM     10  C   UNL     1      43.533   2.589  11.289  0.00  0.00    +0.000 C 
BRANCH   9  11
ATOM     11  C   UNL     1      44.291   3.189   9.101  0.00  0.00    +0.000 C 
BRANCH  11  12
ATOM     12  C   UNL     1      45.518   2.704   8.357  0.00  0.00    +0.000 A 
ATOM     13  C   UNL     1      45.870   1.347   8.365  0.00  0.00    +0.000 A 
ATOM     14  C   UNL     1      46.943   0.887   7.601  0.00  0.00    +0.000 A 
ATOM     15  C   UNL     1      47.684   1.782   6.829  0.00  0.00    +0.000 A 
ATOM     16  C   UNL     1      47.370   3.139   6.843  0.00  0.00    +0.000 A 
ATOM     17  C   UNL     1      46.292   3.599   7.602  0.00  0.00    +0.000 A 
ENDBRANCH  11  12
ENDBRANCH   9  11
ENDBRANCH   8   9
ENDBRANCH   5   8
ENDBRANCH   1   2
BRANCH   1  20
ATOM     18  C   UNL     1      49.054   6.509  16.514  0.00  0.00    +0.000 C 
ATOM     19  O   UNL     1      50.093   5.893  16.297  0.00  0.00    +0.000 OA
ATOM     20  N   UNL     1      48.325   7.051  15.493  0.00  0.00    +0.000 N 
ATOM     21  H   UNL     1      47.458   7.534  15.684  0.00  0.00    +0.000 HD
BRANCH  18  29
ATOM     22  C   UNL     1      47.870   9.228  18.275  0.00  0.00    +0.000 A 
ATOM     23  N   UNL     1      47.346  10.090  19.169  0.00  0.00    +0.000 NA
ATOM     24  C   UNL     1      47.011   9.623  20.375  0.00  0.00    +0.000 A 
ATOM     25  N   UNL     1      47.141   8.374  20.810  0.00  0.00    +0.000 NA
ATOM     26  C   UNL     1      47.655   7.544  19.886  0.00  0.00    +0.000 A 
ATOM     27  S   UNL     1      47.897   5.911  20.274  0.00  0.00    +0.000 S 
ATOM     28  C   UNL     1      48.510   5.581  18.725  0.00  0.00    +0.000 A 
ATOM     29  C   UNL     1      48.540   6.689  17.884  0.00  0.00    +0.000 A 
ATOM     30  C   UNL     1      48.039   7.867  18.586  0.00  0.00    +0.000 A 
BRANCH  22  32
ATOM     31  C   UNL     1      49.547  10.170  16.962  0.00  0.00    +0.000 C 
ATOM     32  O   UNL     1      48.195   9.718  17.027  0.00  0.00    +0.000 OA
ENDBRANCH  22  32
ENDBRANCH  18  29
ENDBRANCH   1  20
TORSDOF 8
ENDMDL
MODEL 4
REMARK VINA RESULT:    -7.238      2.631      3.949
REMARK INTER + INTRA:         -12.036
REMARK INTER:                 -10.752
REMARK INTRA:                  -1.284
REMARK UNBOUND:                -1.412
REMARK  Name = 
REMARK  10 active torsions:
REMARK  status: ('A' for Active; 'I' for Inactive)
REMARK    1  A    between atoms: C_1  and  O_2
REMARK    2  A    between atoms: O_2  and  C_3
REMARK    3  A    between atoms: C_10  and  C_11
REMARK    4  A    between atoms: N_13  and  C_14
REMARK    5  A    between atoms: C_14  and  C_15
REMARK    6  A    between atoms: C_18  and  C_19
REMARK    7  A    between atoms: C_19  and  N_20
REMARK    8  A    between atoms: N_20  and  C_21
REMARK    9  A    between atoms: N_20  and  C_22
REMARK   10  A    between atoms: C_22  and  C_23
REMARK                            x       y       z     vdW  Elec       q    Type
REMARK                         _______ _______ _______ _____ _____    ______ ____
ROOT
ATOM      1  C   UNL     1      47.710   4.362  16.067  0.00  0.00    +0.000 C 
ENDROOT
BRANCH   1   2
ATOM      2  C   UNL     1      47.139   4.646  14.703  0.00  0.00    +0.000 A 
ATOM      3  C   UNL     1      46.516   3.631  13.968  0.00  0.00    +0.000 A 
ATOM      4  C   UNL     1      46.022   3.882  12.685  0.00  0.00    +0.000 A 
ATOM      5  C   UNL     1      46.126   5.161  12.120  0.00  0.00    +0.000 A 
ATOM      6  C   UNL     1      46.769   6.172  12.847  0.00  0.00    +0.000 A 
ATOM      7  C   UNL     1      47.278   5.915  14.123  0.00  0.00    +0.000 A 
BRANCH   5   8
ATOM      8  C   UNL     1      45.557   5.448  10.744  0.00  0.00    +0.000 C 
BRANCH   8   9
ATOM      9  N   UNL     1      44.679   4.379  10.227  0.00  0.00    +0.000 NA
ATOM     10  C   UNL     1      43.288   4.576  10.657  0.00  0.00    +0.000 C 
BRANCH   9  11
ATOM     11  C   UNL     1      44.715   4.340   8.753  0.00  0.00    +0.000 C 
BRANCH  11  12
ATOM     12  C   UNL     1      45.656   3.304   8.170  0.00  0.00    +0.000 A 
ATOM     13  C   UNL     1      45.625   1.976   8.619  0.00  0.00    +0.000 A 
ATOM     14  C   UNL     1      46.423   1.005   8.014  0.00  0.00    +0.000 A 
ATOM     15  C   UNL     1      47.270   1.352   6.963  0.00  0.00    +0.000 A 
ATOM     16  C   UNL     1      47.340   2.676   6.534  0.00  0.00    +0.000 A 
ATOM     17  C   UNL     1      46.538   3.648   7.133  0.00  0.00    +0.000 A 
ENDBRANCH  11  12
ENDBRANCH   9  11
ENDBRANCH   8   9
ENDBRANCH   5   8
ENDBRANCH   1   2
BRANCH   1  20
ATOM     18  C   UNL     1      48.179   5.602  18.139  0.00  0.00    +0.000 C 
ATOM     19  O   UNL     1      48.921   4.711  18.541  0.00  0.00    +0.000 OA
ATOM     20  N   UNL     1      47.541   5.502  16.934  0.00  0.00    +0.000 N 
ATOM     21  H   UNL     1      46.912   6.231  16.627  0.00  0.00    +0.000 HD
BRANCH  18  29
ATOM     22  C   UNL     1      48.162   8.971  17.400  0.00  0.00    +0.000 A 
ATOM     23  N   UNL     1      48.060  10.314  17.389  0.00  0.00    +0.000 NA
ATOM     24  C   UNL     1      47.759  10.935  18.533  0.00  0.00    +0.000 A 
ATOM     25  N   UNL     1      47.543  10.367  19.715  0.00  0.00    +0.000 NA
ATOM     26  C   UNL     1      47.641   9.027  19.682  0.00  0.00    +0.000 A 
ATOM     27  S   UNL     1      47.404   8.137  21.106  0.00  0.00    +0.000 S 
ATOM     28  C   UNL     1      47.669   6.670  20.295  0.00  0.00    +0.000 A 
ATOM     29  C   UNL     1      47.936   6.817  18.937  0.00  0.00    +0.000 A 
ATOM     30  C   UNL     1      47.931   8.232  18.574  0.00  0.00    +0.000 A 
BRANCH  22  32
ATOM     31  C   UNL     1      49.861   8.189  16.013  0.00  0.00    +0.000 C 
ATOM     32  O   UNL     1      48.455   8.340  16.209  0.00  0.00    +0.000 OA
ENDBRANCH  22  32
ENDBRANCH  18  29
ENDBRANCH   1  20
TORSDOF 8
ENDMDL
MODEL 5
REMARK VINA RESULT:    -7.123      2.670      3.583
REMARK INTER + INTRA:         -11.866
REMARK INTER:                 -10.675
REMARK INTRA:                  -1.192
REMARK UNBOUND:                -1.412
REMARK  Name = 
REMARK  10 active torsions:
REMARK  status: ('A' for Active; 'I' for Inactive)
REMARK    1  A    between atoms: C_1  and  O_2
REMARK    2  A    between atoms: O_2  and  C_3
REMARK    3  A    between atoms: C_10  and  C_11
REMARK    4  A    between atoms: N_13  and  C_14
REMARK    5  A    between atoms: C_14  and  C_15
REMARK    6  A    between atoms: C_18  and  C_19
REMARK    7  A    between atoms: C_19  and  N_20
REMARK    8  A    between atoms: N_20  and  C_21
REMARK    9  A    between atoms: N_20  and  C_22
REMARK   10  A    between atoms: C_22  and  C_23
REMARK                            x       y       z     vdW  Elec       q    Type
REMARK                         _______ _______ _______ _____ _____    ______ ____
ROOT
ATOM      1  C   UNL     1      47.821   4.706  15.925  0.00  0.00    +0.000 C 
ENDROOT
BRANCH   1   2
ATOM      2  C   UNL     1      47.244   4.901  14.547  0.00  0.00    +0.000 A 
ATOM      3  C   UNL     1      47.474   6.088  13.842  0.00  0.00    +0.000 A 
ATOM      4  C   UNL     1      46.906   6.289  12.581  0.00  0.00    +0.000 A 
ATOM      5  C   UNL     1      46.109   5.297  11.994  0.00  0.00    +0.000 A 
ATOM      6  C   UNL     1      45.860   4.117  12.708  0.00  0.00    +0.000 A 
ATOM      7  C   UNL     1      46.415   3.924  13.976  0.00  0.00    +0.000 A 
BRANCH   5   8
ATOM      8  C   UNL     1      45.522   5.494  10.609  0.00  0.00    +0.000 C 
BRANCH   8   9
ATOM      9  N   UNL     1      44.576   4.433  10.206  0.00  0.00    +0.000 NA
ATOM     10  C   UNL     1      43.211   4.735  10.661  0.00  0.00    +0.000 C 
BRANCH   9  11
ATOM     11  C   UNL     1      44.560   4.277   8.740  0.00  0.00    +0.000 C 
BRANCH  11  12
ATOM     12  C   UNL     1      45.570   3.284   8.199  0.00  0.00    +0.000 A 
ATOM     13  C   UNL     1      45.550   1.945   8.614  0.00  0.00    +0.000 A 
ATOM     14  C   UNL     1      46.417   1.013   8.043  0.00  0.00    +0.000 A 
ATOM     15  C   UNL     1      47.321   1.411   7.059  0.00  0.00    +0.000 A 
ATOM     16  C   UNL     1      47.378   2.747   6.666  0.00  0.00    +0.000 A 
ATOM     17  C   UNL     1      46.507   3.680   7.232  0.00  0.00    +0.000 A 
ENDBRANCH  11  12
ENDBRANCH   9  11
ENDBRANCH   8   9
ENDBRANCH   5   8
ENDBRANCH   1   2
BRANCH   1  20
ATOM     18  C   UNL     1      49.426   6.333  16.832  0.00  0.00    +0.000 C 
ATOM     19  O   UNL     1      50.365   5.571  16.622  0.00  0.00    +0.000 OA
ATOM     20  N   UNL     1      48.143   5.978  16.523  0.00  0.00    +0.000 N 
ATOM     21  H   UNL     1      47.376   6.605  16.725  0.00  0.00    +0.000 HD
BRANCH  18  29
ATOM     22  C   UNL     1      47.820   8.101  19.321  0.00  0.00    +0.000 A 
ATOM     23  N   UNL     1      47.413   8.983  20.254  0.00  0.00    +0.000 NA
ATOM     24  C   UNL     1      48.076  10.137  20.366  0.00  0.00    +0.000 A 
ATOM     25  N   UNL     1      49.119  10.530  19.641  0.00  0.00    +0.000 NA
ATOM     26  C   UNL     1      49.502   9.618  18.730  0.00  0.00    +0.000 A 
ATOM     27  S   UNL     1      50.815   9.957  17.711  0.00  0.00    +0.000 S 
ATOM     28  C   UNL     1      50.670   8.452  16.939  0.00  0.00    +0.000 A 
ATOM     29  C   UNL     1      49.637   7.662  17.434  0.00  0.00    +0.000 A 
ATOM     30  C   UNL     1      48.930   8.368  18.499  0.00  0.00    +0.000 A 
BRANCH  22  32
ATOM     31  C   UNL     1      47.497   6.000  20.273  0.00  0.00    +0.000 C 
ATOM     32  O   UNL     1      47.139   6.905  19.228  0.00  0.00    +0.000 OA
ENDBRANCH  22  32
ENDBRANCH  18  29
ENDBRANCH   1  20
TORSDOF 8
ENDMDL
MODEL 6
REMARK VINA RESULT:    -6.876      2.914      4.899
REMARK INTER + INTRA:         -11.503
REMARK INTER:                 -10.039
REMARK INTRA:                  -1.464
REMARK UNBOUND:                -1.412
REMARK  Name = 
REMARK  10 active torsions:
REMARK  status: ('A' for Active; 'I' for Inactive)
REMARK    1  A    between atoms: C_1  and  O_2
REMARK    2  A    between atoms: O_2  and  C_3
REMARK    3  A    between atoms: C_10  and  C_11
REMARK    4  A    between atoms: N_13  and  C_14
REMARK    5  A    between atoms: C_14  and  C_15
REMARK    6  A    between atoms: C_18  and  C_19
REMARK    7  A    between atoms: C_19  and  N_20
REMARK    8  A    between atoms: N_20  and  C_21
REMARK    9  A    between atoms: N_20  and  C_22
REMARK   10  A    between atoms: C_22  and  C_23
REMARK                            x       y       z     vdW  Elec       q    Type
REMARK                         _______ _______ _______ _____ _____    ______ ____
ROOT
ATOM      1  C   UNL     1      47.696   3.381  17.273  0.00  0.00    +0.000 C 
ENDROOT
BRANCH   1   2
ATOM      2  C   UNL     1      47.579   4.145  15.979  0.00  0.00    +0.000 A 
ATOM      3  C   UNL     1      48.097   5.440  15.870  0.00  0.00    +0.000 A 
ATOM      4  C   UNL     1      47.954   6.166  14.684  0.00  0.00    +0.000 A 
ATOM      5  C   UNL     1      47.303   5.602  13.579  0.00  0.00    +0.000 A 
ATOM      6  C   UNL     1      46.765   4.313  13.695  0.00  0.00    +0.000 A 
ATOM      7  C   UNL     1      46.894   3.594  14.886  0.00  0.00    +0.000 A 
BRANCH   5   8
ATOM      8  C   UNL     1      47.179   6.371  12.277  0.00  0.00    +0.000 C 
BRANCH   8   9
ATOM      9  N   UNL     1      45.795   6.464  11.770  0.00  0.00    +0.000 NA
ATOM     10  C   UNL     1      45.190   7.761  12.106  0.00  0.00    +0.000 C 
BRANCH   9  11
ATOM     11  C   UNL     1      45.762   6.295  10.305  0.00  0.00    +0.000 C 
BRANCH  11  12
ATOM     12  C   UNL     1      45.381   4.904   9.838  0.00  0.00    +0.000 A 
ATOM     13  C   UNL     1      44.660   4.041  10.675  0.00  0.00    +0.000 A 
ATOM     14  C   UNL     1      44.227   2.800  10.208  0.00  0.00    +0.000 A 
ATOM     15  C   UNL     1      44.518   2.403   8.904  0.00  0.00    +0.000 A 
ATOM     16  C   UNL     1      45.268   3.235   8.075  0.00  0.00    +0.000 A 
ATOM     17  C   UNL     1      45.697   4.480   8.538  0.00  0.00    +0.000 A 
ENDBRANCH  11  12
ENDBRANCH   9  11
ENDBRANCH   8   9
ENDBRANCH   5   8
ENDBRANCH   1   2
BRANCH   1  20
ATOM     18  C   UNL     1      49.906   2.335  17.010  0.00  0.00    +0.000 C 
ATOM     19  O   UNL     1      49.495   1.622  16.100  0.00  0.00    +0.000 OA
ATOM     20  N   UNL     1      49.081   3.223  17.642  0.00  0.00    +0.000 N 
ATOM     21  H   UNL     1      49.426   3.785  18.408  0.00  0.00    +0.000 HD
BRANCH  18  29
ATOM     22  C   UNL     1      52.265   4.714  17.832  0.00  0.00    +0.000 A 
ATOM     23  N   UNL     1      53.347   5.409  18.233  0.00  0.00    +0.000 NA
ATOM     24  C   UNL     1      54.439   4.729  18.592  0.00  0.00    +0.000 A 
ATOM     25  N   UNL     1      54.588   3.408  18.598  0.00  0.00    +0.000 NA
ATOM     26  C   UNL     1      53.484   2.750  18.204  0.00  0.00    +0.000 A 
ATOM     27  S   UNL     1      53.499   1.055  18.143  0.00  0.00    +0.000 S 
ATOM     28  C   UNL     1      51.889   1.009  17.607  0.00  0.00    +0.000 A 
ATOM     29  C   UNL     1      51.305   2.264  17.468  0.00  0.00    +0.000 A 
ATOM     30  C   UNL     1      52.267   3.307  17.814  0.00  0.00    +0.000 A 
BRANCH  22  32
ATOM     31  C   UNL     1      50.614   6.177  18.577  0.00  0.00    +0.000 C 
ATOM     32  O   UNL     1      51.138   5.427  17.481  0.00  0.00    +0.000 OA
ENDBRANCH  22  32
ENDBRANCH  18  29
ENDBRANCH   1  20
TORSDOF 8
ENDMDL
MODEL 7
REMARK VINA RESULT:    -6.823      3.462      5.212
REMARK INTER + INTRA:         -11.425
REMARK INTER:                 -10.376
REMARK INTRA:                  -1.050
REMARK UNBOUND:                -1.412
REMARK  Name = 
REMARK  10 active torsions:
REMARK  status: ('A' for Active; 'I' for Inactive)
REMARK    1  A    between atoms: C_1  and  O_2
REMARK    2  A    between atoms: O_2  and  C_3
REMARK    3  A    between atoms: C_10  and  C_11
REMARK    4  A    between atoms: N_13  and  C_14
REMARK    5  A    between atoms: C_14  and  C_15
REMARK    6  A    between atoms: C_18  and  C_19
REMARK    7  A    between atoms: C_19  and  N_20
REMARK    8  A    between atoms: N_20  and  C_21
REMARK    9  A    between atoms: N_20  and  C_22
REMARK   10  A    between atoms: C_22  and  C_23
REMARK                            x       y       z     vdW  Elec       q    Type
REMARK                         _______ _______ _______ _____ _____    ______ ____
ROOT
ATOM      1  C   UNL     1      48.771   6.838  14.583  0.00  0.00    +0.000 C 
ENDROOT
BRANCH   1   2
ATOM      2  C   UNL     1      47.676   6.417  13.638  0.00  0.00    +0.000 A 
ATOM      3  C   UNL     1      46.988   5.215  13.839  0.00  0.00    +0.000 A 
ATOM      4  C   UNL     1      46.000   4.801  12.941  0.00  0.00    +0.000 A 
ATOM      5  C   UNL     1      45.670   5.593  11.832  0.00  0.00    +0.000 A 
ATOM      6  C   UNL     1      46.373   6.786  11.619  0.00  0.00    +0.000 A 
ATOM      7  C   UNL     1      47.372   7.191  12.508  0.00  0.00    +0.000 A 
BRANCH   5   8
ATOM      8  C   UNL     1      44.572   5.168  10.876  0.00  0.00    +0.000 C 
BRANCH   8   9
ATOM      9  N   UNL     1      44.734   3.796  10.355  0.00  0.00    +0.000 NA
ATOM     10  C   UNL     1      43.750   2.880  10.948  0.00  0.00    +0.000 C 
BRANCH   9  11
ATOM     11  C   UNL     1      44.577   3.771   8.888  0.00  0.00    +0.000 C 
BRANCH  11  12
ATOM     12  C   UNL     1      45.649   2.997   8.150  0.00  0.00    +0.000 A 
ATOM     13  C   UNL     1      45.888   1.647   8.445  0.00  0.00    +0.000 A 
ATOM     14  C   UNL     1      46.808   0.910   7.698  0.00  0.00    +0.000 A 
ATOM     15  C   UNL     1      47.507   1.518   6.655  0.00  0.00    +0.000 A 
ATOM     16  C   UNL     1      47.308   2.869   6.377  0.00  0.00    +0.000 A 
ATOM     17  C   UNL     1      46.383   3.606   7.120  0.00  0.00    +0.000 A 
ENDBRANCH  11  12
ENDBRANCH   9  11
ENDBRANCH   8   9
ENDBRANCH   5   8
ENDBRANCH   1   2
BRANCH   1  20
ATOM     18  C   UNL     1      50.850   8.135  14.380  0.00  0.00    +0.000 C 
ATOM     19  O   UNL     1      50.716   8.588  15.512  0.00  0.00    +0.000 OA
ATOM     20  N   UNL     1      49.933   7.273  13.847  0.00  0.00    +0.000 N 
ATOM     21  H   UNL     1      50.043   6.928  12.904  0.00  0.00    +0.000 HD
BRANCH  18  29
ATOM     22  C   UNL     1      51.157   9.602  11.273  0.00  0.00    +0.000 A 
ATOM     23  N   UNL     1      51.565  10.171  10.122  0.00  0.00    +0.000 NA
ATOM     24  C   UNL     1      52.877  10.261   9.891  0.00  0.00    +0.000 A 
ATOM     25  N   UNL     1      53.857   9.840  10.685  0.00  0.00    +0.000 NA
ATOM     26  C   UNL     1      53.410   9.290  11.827  0.00  0.00    +0.000 A 
ATOM     27  S   UNL     1      54.525   8.690  12.957  0.00  0.00    +0.000 S 
ATOM     28  C   UNL     1      53.280   8.217  14.010  0.00  0.00    +0.000 A 
ATOM     29  C   UNL     1      52.003   8.504  13.538  0.00  0.00    +0.000 A 
ATOM     30  C   UNL     1      52.083   9.136  12.224  0.00  0.00    +0.000 A 
BRANCH  22  32
ATOM     31  C   UNL     1      49.115  10.701  11.060  0.00  0.00    +0.000 C 
ATOM     32  O   UNL     1      49.800   9.532  11.509  0.00  0.00    +0.000 OA
ENDBRANCH  22  32
ENDBRANCH  18  29
ENDBRANCH   1  20
TORSDOF 8
ENDMDL
MODEL 8
REMARK VINA RESULT:    -6.793      3.510      8.787
REMARK INTER + INTRA:         -11.382
REMARK INTER:                  -9.930
REMARK INTRA:                  -1.452
REMARK UNBOUND:                -1.412
REMARK  Name = 
REMARK  10 active torsions:
REMARK  status: ('A' for Active; 'I' for Inactive)
REMARK    1  A    between atoms: C_1  and  O_2
REMARK    2  A    between atoms: O_2  and  C_3
REMARK    3  A    between atoms: C_10  and  C_11
REMARK    4  A    between atoms: N_13  and  C_14
REMARK    5  A    between atoms: C_14  and  C_15
REMARK    6  A    between atoms: C_18  and  C_19
REMARK    7  A    between atoms: C_19  and  N_20
REMARK    8  A    between atoms: N_20  and  C_21
REMARK    9  A    between atoms: N_20  and  C_22
REMARK   10  A    between atoms: C_22  and  C_23
REMARK                            x       y       z     vdW  Elec       q    Type
REMARK                         _______ _______ _______ _____ _____    ______ ____
ROOT
ATOM      1  C   UNL     1      47.203   3.391  16.887  0.00  0.00    +0.000 C 
ENDROOT
BRANCH   1   2
ATOM      2  C   UNL     1      48.681   3.310  17.167  0.00  0.00    +0.000 A 
ATOM      3  C   UNL     1      49.400   2.151  16.854  0.00  0.00    +0.000 A 
ATOM      4  C   UNL     1      50.763   2.057  17.150  0.00  0.00    +0.000 A 
ATOM      5  C   UNL     1      51.435   3.131  17.751  0.00  0.00    +0.000 A 
ATOM      6  C   UNL     1      50.711   4.283  18.084  0.00  0.00    +0.000 A 
ATOM      7  C   UNL     1      49.344   4.369  17.802  0.00  0.00    +0.000 A 
BRANCH   5   8
ATOM      8  C   UNL     1      52.922   3.049  18.039  0.00  0.00    +0.000 C 
BRANCH   8   9
ATOM      9  N   UNL     1      53.554   4.361  18.285  0.00  0.00    +0.000 NA
ATOM     10  C   UNL     1      54.198   4.404  19.606  0.00  0.00    +0.000 C 
BRANCH   9  11
ATOM     11  C   UNL     1      54.571   4.652  17.256  0.00  0.00    +0.000 C 
BRANCH  11  12
ATOM     12  C   UNL     1      54.212   5.786  16.317  0.00  0.00    +0.000 A 
ATOM     13  C   UNL     1      55.037   6.099  15.227  0.00  0.00    +0.000 A 
ATOM     14  C   UNL     1      54.656   7.078  14.308  0.00  0.00    +0.000 A 
ATOM     15  C   UNL     1      53.452   7.762  14.475  0.00  0.00    +0.000 A 
ATOM     16  C   UNL     1      52.643   7.488  15.576  0.00  0.00    +0.000 A 
ATOM     17  C   UNL     1      53.019   6.504  16.492  0.00  0.00    +0.000 A 
ENDBRANCH  11  12
ENDBRANCH   9  11
ENDBRANCH   8   9
ENDBRANCH   5   8
ENDBRANCH   1   2
BRANCH   1  20
ATOM     18  C   UNL     1      46.969   4.195  14.574  0.00  0.00    +0.000 C 
ATOM     19  O   UNL     1      47.255   3.089  14.127  0.00  0.00    +0.000 OA
ATOM     20  N   UNL     1      46.927   4.426  15.921  0.00  0.00    +0.000 N 
ATOM     21  H   UNL     1      46.715   5.348  16.275  0.00  0.00    +0.000 HD
BRANCH  18  29
ATOM     22  C   UNL     1      44.201   5.078  12.714  0.00  0.00    +0.000 A 
ATOM     23  N   UNL     1      43.274   5.667  11.934  0.00  0.00    +0.000 NA
ATOM     24  C   UNL     1      43.592   6.818  11.335  0.00  0.00    +0.000 A 
ATOM     25  N   UNL     1      44.749   7.466  11.416  0.00  0.00    +0.000 NA
ATOM     26  C   UNL     1      45.642   6.853  12.212  0.00  0.00    +0.000 A 
ATOM     27  S   UNL     1      47.179   7.538  12.426  0.00  0.00    +0.000 S 
ATOM     28  C   UNL     1      47.650   6.283  13.468  0.00  0.00    +0.000 A 
ATOM     29  C   UNL     1      46.662   5.328  13.682  0.00  0.00    +0.000 A 
ATOM     30  C   UNL     1      45.463   5.664  12.918  0.00  0.00    +0.000 A 
BRANCH  22  32
ATOM     31  C   UNL     1      43.681   2.827  12.417  0.00  0.00    +0.000 C 
ATOM     32  O   UNL     1      43.855   3.900  13.343  0.00  0.00    +0.000 OA
ENDBRANCH  22  32
ENDBRANCH  18  29
ENDBRANCH   1  20
TORSDOF 8
ENDMDL
MODEL 9
REMARK VINA RESULT:    -6.722      2.040      3.717
REMARK INTER + INTRA:         -11.278
REMARK INTER:                 -10.083
REMARK INTRA:                  -1.195
REMARK UNBOUND:                -1.412
REMARK  Name = 
REMARK  10 active torsions:
REMARK  status: ('A' for Active; 'I' for Inactive)
REMARK    1  A    between atoms: C_1  and  O_2
REMARK    2  A    between atoms: O_2  and  C_3
REMARK    3  A    between atoms: C_10  and  C_11
REMARK    4  A    between atoms: N_13  and  C_14
REMARK    5  A    between atoms: C_14  and  C_15
REMARK    6  A    between atoms: C_18  and  C_19
REMARK    7  A    between atoms: C_19  and  N_20
REMARK    8  A    between atoms: N_20  and  C_21
REMARK    9  A    between atoms: N_20  and  C_22
REMARK   10  A    between atoms: C_22  and  C_23
REMARK                            x       y       z     vdW  Elec       q    Type
REMARK                         _______ _______ _______ _____ _____    ______ ____
ROOT
ATOM      1  C   UNL     1      47.539   4.449  16.117  0.00  0.00    +0.000 C 
ENDROOT
BRANCH   1   2
ATOM      2  C   UNL     1      47.050   4.696  14.713  0.00  0.00    +0.000 A 
ATOM      3  C   UNL     1      47.023   5.994  14.189  0.00  0.00    +0.000 A 
ATOM      4  C   UNL     1      46.531   6.231  12.902  0.00  0.00    +0.000 A 
ATOM      5  C   UNL     1      46.073   5.170  12.109  0.00  0.00    +0.000 A 
ATOM      6  C   UNL     1      46.080   3.873  12.642  0.00  0.00    +0.000 A 
ATOM      7  C   UNL     1      46.557   3.639  13.935  0.00  0.00    +0.000 A 
BRANCH   5   8
ATOM      8  C   UNL     1      45.574   5.417  10.698  0.00  0.00    +0.000 C 
BRANCH   8   9
ATOM      9  N   UNL     1      44.603   4.410  10.224  0.00  0.00    +0.000 NA
ATOM     10  C   UNL     1      43.236   4.747  10.648  0.00  0.00    +0.000 C 
BRANCH   9  11
ATOM     11  C   UNL     1      44.629   4.310   8.753  0.00  0.00    +0.000 C 
BRANCH  11  12
ATOM     12  C   UNL     1      45.621   3.303   8.205  0.00  0.00    +0.000 A 
ATOM     13  C   UNL     1      45.574   1.962   8.609  0.00  0.00    +0.000 A 
ATOM     14  C   UNL     1      46.424   1.018   8.031  0.00  0.00    +0.000 A 
ATOM     15  C   UNL     1      47.338   1.408   7.051  0.00  0.00    +0.000 A 
ATOM     16  C   UNL     1      47.421   2.745   6.670  0.00  0.00    +0.000 A 
ATOM     17  C   UNL     1      46.567   3.690   7.243  0.00  0.00    +0.000 A 
ENDBRANCH  11  12
ENDBRANCH   9  11
ENDBRANCH   8   9
ENDBRANCH   5   8
ENDBRANCH   1   2
BRANCH   1  20
ATOM     18  C   UNL     1      49.573   5.496  17.020  0.00  0.00    +0.000 C 
ATOM     19  O   UNL     1      50.169   4.424  17.007  0.00  0.00    +0.000 OA
ATOM     20  N   UNL     1      48.275   5.591  16.604  0.00  0.00    +0.000 N 
ATOM     21  H   UNL     1      47.788   6.475  16.644  0.00  0.00    +0.000 HD
BRANCH  18  29
ATOM     22  C   UNL     1      50.055   8.614  15.626  0.00  0.00    +0.000 A 
ATOM     23  N   UNL     1      50.352   9.899  15.347  0.00  0.00    +0.000 NA
ATOM     24  C   UNL     1      51.007  10.611  16.269  0.00  0.00    +0.000 A 
ATOM     25  N   UNL     1      51.414  10.188  17.461  0.00  0.00    +0.000 NA
ATOM     26  C   UNL     1      51.088   8.907  17.706  0.00  0.00    +0.000 A 
ATOM     27  S   UNL     1      51.538   8.199  19.181  0.00  0.00    +0.000 S 
ATOM     28  C   UNL     1      50.822   6.722  18.748  0.00  0.00    +0.000 A 
ATOM     29  C   UNL     1      50.226   6.731  17.491  0.00  0.00    +0.000 A 
ATOM     30  C   UNL     1      50.398   8.039  16.863  0.00  0.00    +0.000 A 
BRANCH  22  32
ATOM     31  C   UNL     1      50.082   7.797  13.446  0.00  0.00    +0.000 C 
ATOM     32  O   UNL     1      49.363   7.895  14.675  0.00  0.00    +0.000 OA
ENDBRANCH  22  32
ENDBRANCH  18  29
ENDBRANCH   1  20
TORSDOF 8
ENDMDL
