MODEL 1
REMARK VINA RESULT:    -7.311      0.000      0.000
REMARK INTER + INTRA:          -9.659
REMARK INTER:                  -9.021
REMARK INTRA:                  -0.638
REMARK UNBOUND:                -0.638
REMARK  Name = 
REMARK  5 active torsions:
REMARK  status: ('A' for Active; 'I' for Inactive)
REMARK    1  A    between atoms: C_1  and  C_2
REMARK    2  A    between atoms: C_4  and  N_5
REMARK    3  A    between atoms: N_5  and  C_6
REMARK    4  A    between atoms: C_6  and  C_7
REMARK    5  A    between atoms: C_15  and  C_16
REMARK                            x       y       z     vdW  Elec       q    Type
REMARK                         _______ _______ _______ _____ _____    ______ ____
ROOT
ATOM      1  N   UNL     1      44.001   3.348  10.029  0.00  0.00    +0.000 N 
ATOM      2  H   UNL     1      43.088   2.920   9.830  0.00  0.00    +0.000 HD
ENDROOT
BRANCH   1   6
ATOM      3  C   UNL     1      46.718   0.001   7.716  0.00  0.00    +0.000 C 
ATOM      4  C   UNL     1      46.251   1.422   7.852  0.00  0.00    +0.000 A 
ATOM      5  C   UNL     1      45.296   1.755   8.822  0.00  0.00    +0.000 A 
ATOM      6  C   UNL     1      44.899   3.085   8.998  0.00  0.00    +0.000 A 
ATOM      7  N   UNL     1      45.367   4.071   8.214  0.00  0.00    +0.000 NA
ATOM      8  C   UNL     1      46.270   3.735   7.261  0.00  0.00    +0.000 A 
ATOM      9  C   UNL     1      46.757   2.454   7.049  0.00  0.00    +0.000 A 
BRANCH   9  10
ATOM     10  C   UNL     1      47.753   2.229   6.050  0.00  0.00    +0.000 C 
ATOM     11  N   UNL     1      48.559   2.047   5.231  0.00  0.00    +0.000 NA
ENDBRANCH   9  10
ENDBRANCH   1   6
BRANCH   1  12
ATOM     12  C   UNL     1      43.846   4.730  10.445  0.00  0.00    +0.000 C 
BRANCH  12  13
ATOM     13  C   UNL     1      43.791   4.853  11.988  0.00  0.00    +0.000 C 
ATOM     14  C   UNL     1      44.799   5.852  12.596  0.00  0.00    +0.000 C 
ATOM     15  C   UNL     1      46.214   5.289  12.750  0.00  0.00    +0.000 C 
ATOM     16  C   UNL     1      46.218   3.873  13.325  0.00  0.00    +0.000 C 
ATOM     17  N   UNL     1      45.307   2.976  12.606  0.00  0.00    +0.000 NA
ATOM     18  C   UNL     1      43.933   3.488  12.678  0.00  0.00    +0.000 C 
ATOM     19  H   UNL     1      45.340   2.052  13.043  0.00  0.00    +0.000 HD
ENDBRANCH  12  13
ENDBRANCH   1  12
TORSDOF 4
ENDMDL
MODEL 2
REMARK VINA RESULT:    -7.031      1.101      1.994
REMARK INTER + INTRA:          -9.314
REMARK INTER:                  -8.887
REMARK INTRA:                  -0.427
REMARK UNBOUND:                -0.638
REMARK  Name = 
REMARK  5 active torsions:
REMARK  status: ('A' for Active; 'I' for Inactive)
REMARK    1  A    between atoms: C_1  and  C_2
REMARK    2  A    between atoms: C_4  and  N_5
REMARK    3  A    between atoms: N_5  and  C_6
REMARK    4  A    between atoms: C_6  and  C_7
REMARK    5  A    between atoms: C_15  and  C_16
REMARK                            x       y       z     vdW  Elec       q    Type
REMARK                         _______ _______ _______ _____ _____    ______ ____
ROOT
ATOM      1  N   UNL     1      44.174   3.414  10.175  0.00  0.00    +0.000 N 
ATOM      2  H   UNL     1      43.830   4.381  10.127  0.00  0.00    +0.000 HD
ENDROOT
BRANCH   1   6
ATOM      3  C   UNL     1      46.710   0.032   7.712  0.00  0.00    +0.000 C 
ATOM      4  C   UNL     1      46.279   1.461   7.880  0.00  0.00    +0.000 A 
ATOM      5  C   UNL     1      45.378   1.805   8.896  0.00  0.00    +0.000 A 
ATOM      6  C   UNL     1      45.017   3.142   9.101  0.00  0.00    +0.000 A 
ATOM      7  N   UNL     1      45.467   4.124   8.302  0.00  0.00    +0.000 NA
ATOM      8  C   UNL     1      46.317   3.778   7.305  0.00  0.00    +0.000 A 
ATOM      9  C   UNL     1      46.767   2.489   7.061  0.00  0.00    +0.000 A 
BRANCH   9  10
ATOM     10  C   UNL     1      47.710   2.253   6.014  0.00  0.00    +0.000 C 
ATOM     11  N   UNL     1      48.473   2.061   5.157  0.00  0.00    +0.000 NA
ENDBRANCH   9  10
ENDBRANCH   1   6
BRANCH   1  12
ATOM     12  C   UNL     1      44.663   3.101  11.505  0.00  0.00    +0.000 C 
BRANCH  12  13
ATOM     13  C   UNL     1      44.577   4.331  12.443  0.00  0.00    +0.000 C 
ATOM     14  C   UNL     1      43.149   4.701  12.898  0.00  0.00    +0.000 C 
ATOM     15  C   UNL     1      42.359   5.508  11.864  0.00  0.00    +0.000 C 
ATOM     16  C   UNL     1      43.192   6.625  11.236  0.00  0.00    +0.000 C 
ATOM     17  N   UNL     1      44.485   6.144  10.738  0.00  0.00    +0.000 NA
ATOM     18  C   UNL     1      45.266   5.563  11.837  0.00  0.00    +0.000 C 
ATOM     19  H   UNL     1      45.002   6.934  10.346  0.00  0.00    +0.000 HD
ENDBRANCH  12  13
ENDBRANCH   1  12
TORSDOF 4
ENDMDL
MODEL 3
REMARK VINA RESULT:    -6.963      1.383      2.104
REMARK INTER + INTRA:          -9.230
REMARK INTER:                  -8.758
REMARK INTRA:                  -0.472
REMARK UNBOUND:                -0.638
REMARK  Name = 
REMARK  5 active torsions:
REMARK  status: ('A' for Active; 'I' for Inactive)
REMARK    1  A    between atoms: C_1  and  C_2
REMARK    2  A    between atoms: C_4  and  N_5
REMARK    3  A    between atoms: N_5  and  C_6
REMARK    4  A    between atoms: C_6  and  C_7
REMARK    5  A    between atoms: C_15  and  C_16
REMARK                            x       y       z     vdW  Elec       q    Type
REMARK                         _______ _______ _______ _____ _____    ______ ____
ROOT
ATOM      1  N   UNL     1      43.772   5.310  10.097  0.00  0.00    +0.000 N 
ATOM      2  H   UNL     1      44.443   6.030  10.389  0.00  0.00    +0.000 HD
ENDROOT
BRANCH   1   6
ATOM      3  C   UNL     1      46.989   3.568   6.848  0.00  0.00    +0.000 C 
ATOM      4  C   UNL     1      46.035   3.329   7.984  0.00  0.00    +0.000 A 
ATOM      5  C   UNL     1      45.376   4.410   8.583  0.00  0.00    +0.000 A 
ATOM      6  C   UNL     1      44.439   4.194   9.600  0.00  0.00    +0.000 A 
ATOM      7  N   UNL     1      44.186   2.962  10.075  0.00  0.00    +0.000 NA
ATOM      8  C   UNL     1      44.849   1.925   9.508  0.00  0.00    +0.000 A 
ATOM      9  C   UNL     1      45.754   2.042   8.463  0.00  0.00    +0.000 A 
BRANCH   9  10
ATOM     10  C   UNL     1      46.350   0.869   7.907  0.00  0.00    +0.000 C 
ATOM     11  N   UNL     1      46.830  -0.088   7.451  0.00  0.00    +0.000 NA
ENDBRANCH   9  10
ENDBRANCH   1   6
BRANCH   1  12
ATOM     12  C   UNL     1      42.768   5.088  11.121  0.00  0.00    +0.000 C 
BRANCH  12  13
ATOM     13  C   UNL     1      43.295   5.481  12.524  0.00  0.00    +0.000 C 
ATOM     14  C   UNL     1      44.546   6.385  12.516  0.00  0.00    +0.000 C 
ATOM     15  C   UNL     1      45.858   5.624  12.302  0.00  0.00    +0.000 C 
ATOM     16  C   UNL     1      45.935   4.348  13.140  0.00  0.00    +0.000 C 
ATOM     17  N   UNL     1      44.742   3.509  12.989  0.00  0.00    +0.000 NA
ATOM     18  C   UNL     1      43.546   4.251  13.408  0.00  0.00    +0.000 C 
ATOM     19  H   UNL     1      44.843   2.682  13.582  0.00  0.00    +0.000 HD
ENDBRANCH  12  13
ENDBRANCH   1  12
TORSDOF 4
ENDMDL
MODEL 4
REMARK VINA RESULT:    -6.064      2.122      6.329
REMARK INTER + INTRA:          -8.121
REMARK INTER:                  -7.479
REMARK INTRA:                  -0.642
REMARK UNBOUND:                -0.638
REMARK  Name = 
REMARK  5 active torsions:
REMARK  status: ('A' for Active; 'I' for Inactive)
REMARK    1  A    between atoms: C_1  and  C_2
REMARK    2  A    between atoms: C_4  and  N_5
REMARK    3  A    between atoms: N_5  and  C_6
REMARK    4  A    between atoms: C_6  and  C_7
REMARK    5  A    between atoms: C_15  and  C_16
REMARK                            x       y       z     vdW  Elec       q    Type
REMARK                         _______ _______ _______ _____ _____    ______ ____
ROOT
ATOM      1  N   UNL     1      44.678   4.286  11.074  0.00  0.00    +0.000 N 
ATOM      2  H   UNL     1      43.709   4.477  11.357  0.00  0.00    +0.000 HD
ENDROOT
BRANCH   1   6
ATOM      3  C   UNL     1      48.020   7.714  12.082  0.00  0.00    +0.000 C 
ATOM      4  C   UNL     1      47.234   6.506  12.506  0.00  0.00    +0.000 A 
ATOM      5  C   UNL     1      46.266   5.966  11.649  0.00  0.00    +0.000 A 
ATOM      6  C   UNL     1      45.572   4.804  12.006  0.00  0.00    +0.000 A 
ATOM      7  N   UNL     1      45.762   4.207  13.195  0.00  0.00    +0.000 NA
ATOM      8  C   UNL     1      46.681   4.753  14.029  0.00  0.00    +0.000 A 
ATOM      9  C   UNL     1      47.449   5.870  13.736  0.00  0.00    +0.000 A 
BRANCH   9  10
ATOM     10  C   UNL     1      48.430   6.321  14.672  0.00  0.00    +0.000 C 
ATOM     11  N   UNL     1      49.232   6.685  15.431  0.00  0.00    +0.000 NA
ENDBRANCH   9  10
ENDBRANCH   1   6
BRANCH   1  12
ATOM     12  C   UNL     1      44.842   2.896  10.690  0.00  0.00    +0.000 C 
BRANCH  12  13
ATOM     13  C   UNL     1      44.432   2.664   9.215  0.00  0.00    +0.000 C 
ATOM     14  C   UNL     1      45.236   1.570   8.482  0.00  0.00    +0.000 C 
ATOM     15  C   UNL     1      46.599   2.042   7.967  0.00  0.00    +0.000 C 
ATOM     16  C   UNL     1      46.523   3.409   7.289  0.00  0.00    +0.000 C 
ATOM     17  N   UNL     1      45.835   4.405   8.118  0.00  0.00    +0.000 NA
ATOM     18  C   UNL     1      44.463   3.966   8.399  0.00  0.00    +0.000 C 
ATOM     19  H   UNL     1      45.801   5.291   7.609  0.00  0.00    +0.000 HD
ENDBRANCH  12  13
ENDBRANCH   1  12
TORSDOF 4
ENDMDL
MODEL 5
REMARK VINA RESULT:    -5.506      4.079      6.500
REMARK INTER + INTRA:          -7.432
REMARK INTER:                  -6.674
REMARK INTRA:                  -0.758
REMARK UNBOUND:                -0.638
REMARK  Name = 
REMARK  5 active torsions:
REMARK  status: ('A' for Active; 'I' for Inactive)
REMARK    1  A    between atoms: C_1  and  C_2
REMARK    2  A    between atoms: C_4  and  N_5
REMARK    3  A    between atoms: N_5  and  C_6
REMARK    4  A    between atoms: C_6  and  C_7
REMARK    5  A    between atoms: C_15  and  C_16
REMARK                            x       y       z     vdW  Elec       q    Type
REMARK                         _______ _______ _______ _____ _____    ______ ____
ROOT
ATOM      1  N   UNL     1      45.956   4.029  13.887  0.00  0.00    +0.000 N 
ATOM      2  H   UNL     1      46.130   3.292  14.581  0.00  0.00    +0.000 HD
ENDROOT
BRANCH   1   6
ATOM      3  C   UNL     1      48.364   7.625  11.608  0.00  0.00    +0.000 C 
ATOM      4  C   UNL     1      48.119   6.812  12.847  0.00  0.00    +0.000 A 
ATOM      5  C   UNL     1      47.117   5.833  12.853  0.00  0.00    +0.000 A 
ATOM      6  C   UNL     1      46.920   5.027  13.980  0.00  0.00    +0.000 A 
ATOM      7  N   UNL     1      47.635   5.202  15.105  0.00  0.00    +0.000 NA
ATOM      8  C   UNL     1      48.584   6.170  15.098  0.00  0.00    +0.000 A 
ATOM      9  C   UNL     1      48.880   6.979  14.012  0.00  0.00    +0.000 A 
BRANCH   9  10
ATOM     10  C   UNL     1      49.943   7.929  14.104  0.00  0.00    +0.000 C 
ATOM     11  N   UNL     1      50.805   8.707  14.175  0.00  0.00    +0.000 NA
ENDBRANCH   9  10
ENDBRANCH   1   6
BRANCH   1  12
ATOM     12  C   UNL     1      45.709   3.458  12.575  0.00  0.00    +0.000 C 
BRANCH  12  13
ATOM     13  C   UNL     1      44.193   3.285  12.309  0.00  0.00    +0.000 C 
ATOM     14  C   UNL     1      43.774   3.427  10.830  0.00  0.00    +0.000 C 
ATOM     15  C   UNL     1      43.631   4.878  10.363  0.00  0.00    +0.000 C 
ATOM     16  C   UNL     1      42.884   5.745  11.376  0.00  0.00    +0.000 C 
ATOM     17  N   UNL     1      43.433   5.619  12.730  0.00  0.00    +0.000 NA
ATOM     18  C   UNL     1      43.347   4.225  13.182  0.00  0.00    +0.000 C 
ATOM     19  H   UNL     1      42.886   6.207  13.364  0.00  0.00    +0.000 HD
ENDBRANCH  12  13
ENDBRANCH   1  12
TORSDOF 4
ENDMDL
MODEL 6
REMARK VINA RESULT:    -5.374      3.282      6.206
REMARK INTER + INTRA:          -7.269
REMARK INTER:                  -6.656
REMARK INTRA:                  -0.612
REMARK UNBOUND:                -0.638
REMARK  Name = 
REMARK  5 active torsions:
REMARK  status: ('A' for Active; 'I' for Inactive)
REMARK    1  A    between atoms: C_1  and  C_2
REMARK    2  A    between atoms: C_4  and  N_5
REMARK    3  A    between atoms: N_5  and  C_6
REMARK    4  A    between atoms: C_6  and  C_7
REMARK    5  A    between atoms: C_15  and  C_16
REMARK                            x       y       z     vdW  Elec       q    Type
REMARK                         _______ _______ _______ _____ _____    ______ ____
ROOT
ATOM      1  N   UNL     1      44.548   6.274  13.150  0.00  0.00    +0.000 N 
ATOM      2  H   UNL     1      44.158   6.737  13.980  0.00  0.00    +0.000 HD
ENDROOT
BRANCH   1   6
ATOM      3  C   UNL     1      47.330  10.117  11.956  0.00  0.00    +0.000 C 
ATOM      4  C   UNL     1      47.211   8.657  12.288  0.00  0.00    +0.000 A 
ATOM      5  C   UNL     1      45.964   8.118  12.633  0.00  0.00    +0.000 A 
ATOM      6  C   UNL     1      45.830   6.748  12.884  0.00  0.00    +0.000 A 
ATOM      7  N   UNL     1      46.888   5.920  12.863  0.00  0.00    +0.000 NA
ATOM      8  C   UNL     1      48.094   6.456  12.555  0.00  0.00    +0.000 A 
ATOM      9  C   UNL     1      48.311   7.790  12.244  0.00  0.00    +0.000 A 
BRANCH   9  10
ATOM     10  C   UNL     1      49.620   8.229  11.878  0.00  0.00    +0.000 C 
ATOM     11  N   UNL     1      50.687   8.582  11.576  0.00  0.00    +0.000 NA
ENDBRANCH   9  10
ENDBRANCH   1   6
BRANCH   1  12
ATOM     12  C   UNL     1      44.369   4.836  13.225  0.00  0.00    +0.000 C 
BRANCH  12  13
ATOM     13  C   UNL     1      43.255   4.354  12.263  0.00  0.00    +0.000 C 
ATOM     14  C   UNL     1      43.485   2.953  11.655  0.00  0.00    +0.000 C 
ATOM     15  C   UNL     1      44.440   2.946  10.459  0.00  0.00    +0.000 C 
ATOM     16  C   UNL     1      44.154   4.083   9.478  0.00  0.00    +0.000 C 
ATOM     17  N   UNL     1      44.064   5.385  10.146  0.00  0.00    +0.000 NA
ATOM     18  C   UNL     1      42.986   5.369  11.143  0.00  0.00    +0.000 C 
ATOM     19  H   UNL     1      43.857   6.102   9.446  0.00  0.00    +0.000 HD
ENDBRANCH  12  13
ENDBRANCH   1  12
TORSDOF 4
ENDMDL
MODEL 7
REMARK VINA RESULT:    -5.371      3.881      6.465
REMARK INTER + INTRA:          -7.265
REMARK INTER:                  -6.580
REMARK INTRA:                  -0.685
REMARK UNBOUND:                -0.638
REMARK  Name = 
REMARK  5 active torsions:
REMARK  status: ('A' for Active; 'I' for Inactive)
REMARK    1  A    between atoms: C_1  and  C_2
REMARK    2  A    between atoms: C_4  and  N_5
REMARK    3  A    between atoms: N_5  and  C_6
REMARK    4  A    between atoms: C_6  and  C_7
REMARK    5  A    between atoms: C_15  and  C_16
REMARK                            x       y       z     vdW  Elec       q    Type
REMARK                         _______ _______ _______ _____ _____    ______ ____
ROOT
ATOM      1  N   UNL     1      44.470   6.985  12.507  0.00  0.00    +0.000 N 
ATOM      2  H   UNL     1      43.705   7.478  12.984  0.00  0.00    +0.000 HD
ENDROOT
BRANCH   1   6
ATOM      3  C   UNL     1      49.312   7.396  11.942  0.00  0.00    +0.000 C 
ATOM      4  C   UNL     1      47.958   8.041  12.031  0.00  0.00    +0.000 A 
ATOM      5  C   UNL     1      46.812   7.246  12.163  0.00  0.00    +0.000 A 
ATOM      6  C   UNL     1      45.552   7.837  12.309  0.00  0.00    +0.000 A 
ATOM      7  N   UNL     1      45.390   9.171  12.267  0.00  0.00    +0.000 NA
ATOM      8  C   UNL     1      46.502   9.931  12.112  0.00  0.00    +0.000 A 
ATOM      9  C   UNL     1      47.792   9.433  12.011  0.00  0.00    +0.000 A 
BRANCH   9  10
ATOM     10  C   UNL     1      48.895  10.335  11.908  0.00  0.00    +0.000 C 
ATOM     11  N   UNL     1      49.790  11.073  11.819  0.00  0.00    +0.000 NA
ENDBRANCH   9  10
ENDBRANCH   1   6
BRANCH   1  12
ATOM     12  C   UNL     1      44.734   5.704  13.136  0.00  0.00    +0.000 C 
BRANCH  12  13
ATOM     13  C   UNL     1      43.725   4.626  12.667  0.00  0.00    +0.000 C 
ATOM     14  C   UNL     1      44.364   3.303  12.192  0.00  0.00    +0.000 C 
ATOM     15  C   UNL     1      44.890   3.350  10.756  0.00  0.00    +0.000 C 
ATOM     16  C   UNL     1      43.908   4.023   9.797  0.00  0.00    +0.000 C 
ATOM     17  N   UNL     1      43.448   5.324  10.293  0.00  0.00    +0.000 NA
ATOM     18  C   UNL     1      42.774   5.161  11.587  0.00  0.00    +0.000 C 
ATOM     19  H   UNL     1      42.784   5.717   9.622  0.00  0.00    +0.000 HD
ENDBRANCH  12  13
ENDBRANCH   1  12
TORSDOF 4
ENDMDL
MODEL 8
REMARK VINA RESULT:    -5.364      3.392      7.394
REMARK INTER + INTRA:          -7.257
REMARK INTER:                  -6.679
REMARK INTRA:                  -0.578
REMARK UNBOUND:                -0.638
REMARK  Name = 
REMARK  5 active torsions:
REMARK  status: ('A' for Active; 'I' for Inactive)
REMARK    1  A    between atoms: C_1  and  C_2
REMARK    2  A    between atoms: C_4  and  N_5
REMARK    3  A    between atoms: N_5  and  C_6
REMARK    4  A    between atoms: C_6  and  C_7
REMARK    5  A    between atoms: C_15  and  C_16
REMARK                            x       y       z     vdW  Elec       q    Type
REMARK                         _______ _______ _______ _____ _____    ______ ____
ROOT
ATOM      1  N   UNL     1      46.419   5.020  12.796  0.00  0.00    +0.000 N 
ATOM      2  H   UNL     1      45.861   5.860  12.600  0.00  0.00    +0.000 HD
ENDROOT
BRANCH   1   6
ATOM      3  C   UNL     1      47.259   3.431  17.346  0.00  0.00    +0.000 C 
ATOM      4  C   UNL     1      47.562   4.393  16.232  0.00  0.00    +0.000 A 
ATOM      5  C   UNL     1      46.919   4.255  14.995  0.00  0.00    +0.000 A 
ATOM      6  C   UNL     1      47.147   5.181  13.971  0.00  0.00    +0.000 A 
ATOM      7  N   UNL     1      48.026   6.188  14.114  0.00  0.00    +0.000 NA
ATOM      8  C   UNL     1      48.663   6.297  15.305  0.00  0.00    +0.000 A 
ATOM      9  C   UNL     1      48.461   5.457  16.390  0.00  0.00    +0.000 A 
BRANCH   9  10
ATOM     10  C   UNL     1      49.149   5.704  17.617  0.00  0.00    +0.000 C 
ATOM     11  N   UNL     1      49.706   5.911  18.617  0.00  0.00    +0.000 NA
ENDBRANCH   9  10
ENDBRANCH   1   6
BRANCH   1  12
ATOM     12  C   UNL     1      45.613   3.819  12.667  0.00  0.00    +0.000 C 
BRANCH  12  13
ATOM     13  C   UNL     1      44.284   4.107  11.925  0.00  0.00    +0.000 C 
ATOM     14  C   UNL     1      43.746   2.932  11.081  0.00  0.00    +0.000 C 
ATOM     15  C   UNL     1      44.414   2.796   9.710  0.00  0.00    +0.000 C 
ATOM     16  C   UNL     1      44.565   4.140   9.000  0.00  0.00    +0.000 C 
ATOM     17  N   UNL     1      45.187   5.156   9.855  0.00  0.00    +0.000 NA
ATOM     18  C   UNL     1      44.374   5.371  11.058  0.00  0.00    +0.000 C 
ATOM     19  H   UNL     1      45.247   6.034   9.334  0.00  0.00    +0.000 HD
ENDBRANCH  12  13
ENDBRANCH   1  12
TORSDOF 4
ENDMDL
MODEL 9
REMARK VINA RESULT:    -5.338      2.946      7.174
REMARK INTER + INTRA:          -7.225
REMARK INTER:                  -6.671
REMARK INTRA:                  -0.553
REMARK UNBOUND:                -0.638
REMARK  Name = 
REMARK  5 active torsions:
REMARK  status: ('A' for Active; 'I' for Inactive)
REMARK    1  A    between atoms: C_1  and  C_2
REMARK    2  A    between atoms: C_4  and  N_5
REMARK    3  A    between atoms: N_5  and  C_6
REMARK    4  A    between atoms: C_6  and  C_7
REMARK    5  A    between atoms: C_15  and  C_16
REMARK                            x       y       z     vdW  Elec       q    Type
REMARK                         _______ _______ _______ _____ _____    ______ ____
ROOT
ATOM      1  N   UNL     1      45.801   4.822  12.410  0.00  0.00    +0.000 N 
ATOM      2  H   UNL     1      45.076   5.545  12.325  0.00  0.00    +0.000 HD
ENDROOT
BRANCH   1   6
ATOM      3  C   UNL     1      49.202   7.486  14.705  0.00  0.00    +0.000 C 
ATOM      4  C   UNL     1      48.239   6.333  14.708  0.00  0.00    +0.000 A 
ATOM      5  C   UNL     1      47.403   6.117  13.604  0.00  0.00    +0.000 A 
ATOM      6  C   UNL     1      46.547   5.011  13.570  0.00  0.00    +0.000 A 
ATOM      7  N   UNL     1      46.451   4.161  14.606  0.00  0.00    +0.000 NA
ATOM      8  C   UNL     1      47.243   4.394  15.681  0.00  0.00    +0.000 A 
ATOM      9  C   UNL     1      48.156   5.433  15.780  0.00  0.00    +0.000 A 
BRANCH   9  10
ATOM     10  C   UNL     1      48.980   5.546  16.941  0.00  0.00    +0.000 C 
ATOM     11  N   UNL     1      49.647   5.633  17.890  0.00  0.00    +0.000 NA
ENDBRANCH   9  10
ENDBRANCH   1   6
BRANCH   1  12
ATOM     12  C   UNL     1      45.245   3.501  12.180  0.00  0.00    +0.000 C 
BRANCH  12  13
ATOM     13  C   UNL     1      44.129   3.536  11.106  0.00  0.00    +0.000 C 
ATOM     14  C   UNL     1      44.201   2.404  10.059  0.00  0.00    +0.000 C 
ATOM     15  C   UNL     1      45.209   2.663   8.936  0.00  0.00    +0.000 C 
ATOM     16  C   UNL     1      45.130   4.092   8.400  0.00  0.00    +0.000 C 
ATOM     17  N   UNL     1      45.179   5.092   9.471  0.00  0.00    +0.000 NA
ATOM     18  C   UNL     1      44.058   4.897  10.398  0.00  0.00    +0.000 C 
ATOM     19  H   UNL     1      45.107   6.024   9.056  0.00  0.00    +0.000 HD
ENDBRANCH  12  13
ENDBRANCH   1  12
TORSDOF 4
ENDMDL
