MODEL 1
REMARK VINA RESULT:    -6.964      0.000      0.000
REMARK INTER + INTRA:         -11.125
REMARK INTER:                  -9.814
REMARK INTRA:                  -1.311
REMARK UNBOUND:                -1.311
REMARK  Name = 
REMARK  10 active torsions:
REMARK  status: ('A' for Active; 'I' for Inactive)
REMARK    1  A    between atoms: C_1  and  O_2
REMARK    2  A    between atoms: O_2  and  C_3
REMARK    3  A    between atoms: C_5  and  C_6
REMARK    4  A    between atoms: C_11  and  O_12
REMARK    5  A    between atoms: O_12  and  C_13
REMARK    6  A    between atoms: C_13  and  C_14
REMARK    7  A    between atoms: C_17  and  C_18
REMARK    8  A    between atoms: C_19  and  C_20
REMARK    9  A    between atoms: C_25  and  O_26
REMARK   10  A    between atoms: O_26  and  C_27
REMARK                            x       y       z     vdW  Elec       q    Type
REMARK                         _______ _______ _______ _____ _____    ______ ____
ROOT
ATOM      1  C   UNL     1      48.561   7.088  14.031  0.00  0.00    +0.000 C 
ENDROOT
BRANCH   1   2
ATOM      2  C   UNL     1      47.377   7.270  13.112  0.00  0.00    +0.000 A 
ATOM      3  C   UNL     1      46.636   8.444  13.154  0.00  0.00    +0.000 A 
ATOM      4  C   UNL     1      45.444   8.526  12.444  0.00  0.00    +0.000 A 
ATOM      5  C   UNL     1      44.958   7.433  11.692  0.00  0.00    +0.000 A 
ATOM      6  C   UNL     1      43.574   7.623  11.114  0.00  0.00    +0.000 C 
ATOM      7  C   UNL     1      45.740   6.245  11.551  0.00  0.00    +0.000 A 
ATOM      8  C   UNL     1      46.950   6.214  12.283  0.00  0.00    +0.000 A 
BRANCH   7   9
ATOM      9  C   UNL     1      45.361   5.069  10.684  0.00  0.00    +0.000 A 
ATOM     10  C   UNL     1      45.689   5.096   9.309  0.00  0.00    +0.000 A 
ATOM     11  C   UNL     1      45.314   4.091   8.412  0.00  0.00    +0.000 A 
ATOM     12  C   UNL     1      44.651   2.970   8.875  0.00  0.00    +0.000 A 
ATOM     13  C   UNL     1      44.380   2.853  10.233  0.00  0.00    +0.000 A 
ATOM     14  C   UNL     1      44.739   3.874  11.140  0.00  0.00    +0.000 A 
BRANCH  14  15
ATOM     15  O   UNL     1      44.454   3.728  12.481  0.00  0.00    +0.000 OA
ATOM     16  C   UNL     1      43.210   4.290  12.908  0.00  0.00    +0.000 C 
ENDBRANCH  14  15
ENDBRANCH   7   9
ENDBRANCH   1   2
BRANCH   1  17
ATOM     17  O   UNL     1      48.515   5.806  14.653  0.00  0.00    +0.000 OA
BRANCH  17  23
ATOM     18  C   UNL     1      47.711   4.711  16.753  0.00  0.00    +0.000 A 
ATOM     19  C   UNL     1      47.552   4.877  18.138  0.00  0.00    +0.000 A 
ATOM     20  C   UNL     1      47.947   6.061  18.784  0.00  0.00    +0.000 A 
ATOM     21  C   UNL     1      48.506   7.091  18.030  0.00  0.00    +0.000 A 
ATOM     22  C   UNL     1      48.666   6.934  16.648  0.00  0.00    +0.000 A 
ATOM     23  C   UNL     1      48.275   5.757  16.000  0.00  0.00    +0.000 A 
BRANCH  20  24
ATOM     24  C   UNL     1      47.740   6.138  20.261  0.00  0.00    +0.000 C 
ATOM     25  N   UNL     1      47.801   4.987  20.993  0.00  0.00    +0.000 N 
ATOM     26  O   UNL     1      47.523   7.208  20.818  0.00  0.00    +0.000 OA
ATOM     27  H   UNL     1      47.950   4.065  20.624  0.00  0.00    +0.000 HD
ATOM     28  H   UNL     1      47.641   5.081  21.988  0.00  0.00    +0.000 HD
ENDBRANCH  20  24
BRANCH  18  30
ATOM     29  C   UNL     1      48.291   2.439  16.274  0.00  0.00    +0.000 C 
ATOM     30  O   UNL     1      47.399   3.537  16.124  0.00  0.00    +0.000 OA
ENDBRANCH  18  30
ENDBRANCH  17  23
ENDBRANCH   1  17
TORSDOF 7
ENDMDL
MODEL 2
REMARK VINA RESULT:    -6.891      4.282      8.125
REMARK INTER + INTRA:         -11.022
REMARK INTER:                  -9.872
REMARK INTRA:                  -1.149
REMARK UNBOUND:                -1.311
REMARK  Name = 
REMARK  10 active torsions:
REMARK  status: ('A' for Active; 'I' for Inactive)
REMARK    1  A    between atoms: C_1  and  O_2
REMARK    2  A    between atoms: O_2  and  C_3
REMARK    3  A    between atoms: C_5  and  C_6
REMARK    4  A    between atoms: C_11  and  O_12
REMARK    5  A    between atoms: O_12  and  C_13
REMARK    6  A    between atoms: C_13  and  C_14
REMARK    7  A    between atoms: C_17  and  C_18
REMARK    8  A    between atoms: C_19  and  C_20
REMARK    9  A    between atoms: C_25  and  O_26
REMARK   10  A    between atoms: O_26  and  C_27
REMARK                            x       y       z     vdW  Elec       q    Type
REMARK                         _______ _______ _______ _____ _____    ______ ____
ROOT
ATOM      1  C   UNL     1      44.270   5.739  11.990  0.00  0.00    +0.000 C 
ENDROOT
BRANCH   1   2
ATOM      2  C   UNL     1      44.980   7.061  12.155  0.00  0.00    +0.000 A 
ATOM      3  C   UNL     1      44.552   8.177  11.447  0.00  0.00    +0.000 A 
ATOM      4  C   UNL     1      45.323   9.333  11.462  0.00  0.00    +0.000 A 
ATOM      5  C   UNL     1      46.544   9.396  12.170  0.00  0.00    +0.000 A 
ATOM      6  C   UNL     1      47.341  10.662  11.954  0.00  0.00    +0.000 C 
ATOM      7  C   UNL     1      46.966   8.300  12.984  0.00  0.00    +0.000 A 
ATOM      8  C   UNL     1      46.144   7.150  12.945  0.00  0.00    +0.000 A 
BRANCH   7   9
ATOM      9  C   UNL     1      48.196   8.310  13.861  0.00  0.00    +0.000 A 
ATOM     10  C   UNL     1      48.102   8.843  15.167  0.00  0.00    +0.000 A 
ATOM     11  C   UNL     1      49.199   8.965  16.026  0.00  0.00    +0.000 A 
ATOM     12  C   UNL     1      50.434   8.486  15.632  0.00  0.00    +0.000 A 
ATOM     13  C   UNL     1      50.563   7.874  14.390  0.00  0.00    +0.000 A 
ATOM     14  C   UNL     1      49.463   7.766  13.513  0.00  0.00    +0.000 A 
BRANCH  14  15
ATOM     15  O   UNL     1      49.623   7.155  12.287  0.00  0.00    +0.000 OA
ATOM     16  C   UNL     1      50.467   7.848  11.364  0.00  0.00    +0.000 C 
ENDBRANCH  14  15
ENDBRANCH   7   9
ENDBRANCH   1   2
BRANCH   1  17
ATOM     17  O   UNL     1      43.908   5.537  10.626  0.00  0.00    +0.000 OA
BRANCH  17  23
ATOM     18  C   UNL     1      44.193   3.104  10.119  0.00  0.00    +0.000 A 
ATOM     19  C   UNL     1      44.894   2.177   9.333  0.00  0.00    +0.000 A 
ATOM     20  C   UNL     1      45.860   2.590   8.399  0.00  0.00    +0.000 A 
ATOM     21  C   UNL     1      46.125   3.951   8.255  0.00  0.00    +0.000 A 
ATOM     22  C   UNL     1      45.431   4.882   9.036  0.00  0.00    +0.000 A 
ATOM     23  C   UNL     1      44.468   4.476   9.966  0.00  0.00    +0.000 A 
BRANCH  20  24
ATOM     24  C   UNL     1      46.549   1.526   7.609  0.00  0.00    +0.000 C 
ATOM     25  N   UNL     1      47.198   1.879   6.461  0.00  0.00    +0.000 N 
ATOM     26  O   UNL     1      46.542   0.356   7.976  0.00  0.00    +0.000 OA
ATOM     27  H   UNL     1      47.238   2.803   6.070  0.00  0.00    +0.000 HD
ATOM     28  H   UNL     1      47.638   1.126   5.947  0.00  0.00    +0.000 HD
ENDBRANCH  20  24
BRANCH  18  30
ATOM     29  C   UNL     1      43.553   2.434  12.326  0.00  0.00    +0.000 C 
ATOM     30  O   UNL     1      43.199   2.721  10.978  0.00  0.00    +0.000 OA
ENDBRANCH  18  30
ENDBRANCH  17  23
ENDBRANCH   1  17
TORSDOF 7
ENDMDL
MODEL 3
REMARK VINA RESULT:    -6.765      4.543      8.038
REMARK INTER + INTRA:         -10.844
REMARK INTER:                  -9.657
REMARK INTRA:                  -1.187
REMARK UNBOUND:                -1.311
REMARK  Name = 
REMARK  10 active torsions:
REMARK  status: ('A' for Active; 'I' for Inactive)
REMARK    1  A    between atoms: C_1  and  O_2
REMARK    2  A    between atoms: O_2  and  C_3
REMARK    3  A    between atoms: C_5  and  C_6
REMARK    4  A    between atoms: C_11  and  O_12
REMARK    5  A    between atoms: O_12  and  C_13
REMARK    6  A    between atoms: C_13  and  C_14
REMARK    7  A    between atoms: C_17  and  C_18
REMARK    8  A    between atoms: C_19  and  C_20
REMARK    9  A    between atoms: C_25  and  O_26
REMARK   10  A    between atoms: O_26  and  C_27
REMARK                            x       y       z     vdW  Elec       q    Type
REMARK                         _______ _______ _______ _____ _____    ______ ____
ROOT
ATOM      1  C   UNL     1      44.558   5.889  11.915  0.00  0.00    +0.000 C 
ENDROOT
BRANCH   1   2
ATOM      2  C   UNL     1      45.227   7.239  12.011  0.00  0.00    +0.000 A 
ATOM      3  C   UNL     1      44.499   8.397  11.767  0.00  0.00    +0.000 A 
ATOM      4  C   UNL     1      45.163   9.614  11.673  0.00  0.00    +0.000 A 
ATOM      5  C   UNL     1      46.567   9.700  11.803  0.00  0.00    +0.000 A 
ATOM      6  C   UNL     1      47.151  11.063  11.512  0.00  0.00    +0.000 C 
ATOM      7  C   UNL     1      47.334   8.545  12.148  0.00  0.00    +0.000 A 
ATOM      8  C   UNL     1      46.613   7.332  12.243  0.00  0.00    +0.000 A 
BRANCH   7   9
ATOM      9  C   UNL     1      48.821   8.554  12.416  0.00  0.00    +0.000 A 
ATOM     10  C   UNL     1      49.709   8.215  11.370  0.00  0.00    +0.000 A 
ATOM     11  C   UNL     1      51.094   8.123  11.541  0.00  0.00    +0.000 A 
ATOM     12  C   UNL     1      51.657   8.440  12.762  0.00  0.00    +0.000 A 
ATOM     13  C   UNL     1      50.836   8.864  13.800  0.00  0.00    +0.000 A 
ATOM     14  C   UNL     1      49.436   8.941  13.639  0.00  0.00    +0.000 A 
BRANCH  14  15
ATOM     15  O   UNL     1      48.648   9.362  14.689  0.00  0.00    +0.000 OA
ATOM     16  C   UNL     1      49.053  10.588  15.305  0.00  0.00    +0.000 C 
ENDBRANCH  14  15
ENDBRANCH   7   9
ENDBRANCH   1   2
BRANCH   1  17
ATOM     17  O   UNL     1      44.129   5.640  10.579  0.00  0.00    +0.000 OA
BRANCH  17  23
ATOM     18  C   UNL     1      44.261   3.181  10.140  0.00  0.00    +0.000 A 
ATOM     19  C   UNL     1      44.899   2.191   9.377  0.00  0.00    +0.000 A 
ATOM     20  C   UNL     1      45.882   2.517   8.427  0.00  0.00    +0.000 A 
ATOM     21  C   UNL     1      46.229   3.854   8.242  0.00  0.00    +0.000 A 
ATOM     22  C   UNL     1      45.598   4.848   9.000  0.00  0.00    +0.000 A 
ATOM     23  C   UNL     1      44.619   4.528   9.947  0.00  0.00    +0.000 A 
BRANCH  20  24
ATOM     24  C   UNL     1      46.499   1.391   7.664  0.00  0.00    +0.000 C 
ATOM     25  N   UNL     1      47.189   1.674   6.521  0.00  0.00    +0.000 N 
ATOM     26  O   UNL     1      46.397   0.231   8.048  0.00  0.00    +0.000 OA
ATOM     27  H   UNL     1      47.305   2.586   6.117  0.00  0.00    +0.000 HD
ATOM     28  H   UNL     1      47.578   0.882   6.026  0.00  0.00    +0.000 HD
ENDBRANCH  20  24
BRANCH  18  30
ATOM     29  C   UNL     1      43.604   2.532  12.348  0.00  0.00    +0.000 C 
ATOM     30  O   UNL     1      43.252   2.884  11.015  0.00  0.00    +0.000 OA
ENDBRANCH  18  30
ENDBRANCH  17  23
ENDBRANCH   1  17
TORSDOF 7
ENDMDL
MODEL 4
REMARK VINA RESULT:    -6.625      1.901      2.547
REMARK INTER + INTRA:         -10.646
REMARK INTER:                  -9.302
REMARK INTRA:                  -1.344
REMARK UNBOUND:                -1.311
REMARK  Name = 
REMARK  10 active torsions:
REMARK  status: ('A' for Active; 'I' for Inactive)
REMARK    1  A    between atoms: C_1  and  O_2
REMARK    2  A    between atoms: O_2  and  C_3
REMARK    3  A    between atoms: C_5  and  C_6
REMARK    4  A    between atoms: C_11  and  O_12
REMARK    5  A    between atoms: O_12  and  C_13
REMARK    6  A    between atoms: C_13  and  C_14
REMARK    7  A    between atoms: C_17  and  C_18
REMARK    8  A    between atoms: C_19  and  C_20
REMARK    9  A    between atoms: C_25  and  O_26
REMARK   10  A    between atoms: O_26  and  C_27
REMARK                            x       y       z     vdW  Elec       q    Type
REMARK                         _______ _______ _______ _____ _____    ______ ____
ROOT
ATOM      1  C   UNL     1      48.548   7.486  13.090  0.00  0.00    +0.000 C 
ENDROOT
BRANCH   1   2
ATOM      2  C   UNL     1      47.190   7.325  12.453  0.00  0.00    +0.000 A 
ATOM      3  C   UNL     1      46.153   8.186  12.793  0.00  0.00    +0.000 A 
ATOM      4  C   UNL     1      44.865   7.914  12.346  0.00  0.00    +0.000 A 
ATOM      5  C   UNL     1      44.581   6.771  11.567  0.00  0.00    +0.000 A 
ATOM      6  C   UNL     1      43.113   6.530  11.302  0.00  0.00    +0.000 C 
ATOM      7  C   UNL     1      45.637   5.917  11.122  0.00  0.00    +0.000 A 
ATOM      8  C   UNL     1      46.930   6.240  11.592  0.00  0.00    +0.000 A 
BRANCH   7   9
ATOM      9  C   UNL     1      45.450   4.736  10.198  0.00  0.00    +0.000 A 
ATOM     10  C   UNL     1      45.774   4.878   8.829  0.00  0.00    +0.000 A 
ATOM     11  C   UNL     1      45.566   3.869   7.885  0.00  0.00    +0.000 A 
ATOM     12  C   UNL     1      45.086   2.638   8.290  0.00  0.00    +0.000 A 
ATOM     13  C   UNL     1      44.833   2.417   9.639  0.00  0.00    +0.000 A 
ATOM     14  C   UNL     1      45.023   3.439  10.594  0.00  0.00    +0.000 A 
BRANCH  14  15
ATOM     15  O   UNL     1      44.761   3.189  11.924  0.00  0.00    +0.000 OA
ATOM     16  C   UNL     1      43.391   2.926  12.239  0.00  0.00    +0.000 C 
ENDBRANCH  14  15
ENDBRANCH   7   9
ENDBRANCH   1   2
BRANCH   1  17
ATOM     17  O   UNL     1      48.416   7.751  14.484  0.00  0.00    +0.000 OA
BRANCH  17  23
ATOM     18  C   UNL     1      49.818   6.605  16.210  0.00  0.00    +0.000 A 
ATOM     19  C   UNL     1      49.918   5.470  17.029  0.00  0.00    +0.000 A 
ATOM     20  C   UNL     1      48.931   4.470  17.018  0.00  0.00    +0.000 A 
ATOM     21  C   UNL     1      47.832   4.610  16.172  0.00  0.00    +0.000 A 
ATOM     22  C   UNL     1      47.726   5.738  15.350  0.00  0.00    +0.000 A 
ATOM     23  C   UNL     1      48.706   6.738  15.358  0.00  0.00    +0.000 A 
BRANCH  20  24
ATOM     24  C   UNL     1      49.127   3.303  17.930  0.00  0.00    +0.000 C 
ATOM     25  N   UNL     1      48.321   3.184  19.025  0.00  0.00    +0.000 N 
ATOM     26  O   UNL     1      49.988   2.459  17.708  0.00  0.00    +0.000 OA
ATOM     27  H   UNL     1      47.607   3.834  19.301  0.00  0.00    +0.000 HD
ATOM     28  H   UNL     1      48.496   2.387  19.625  0.00  0.00    +0.000 HD
ENDBRANCH  20  24
BRANCH  18  30
ATOM     29  C   UNL     1      51.854   7.560  15.390  0.00  0.00    +0.000 C 
ATOM     30  O   UNL     1      50.734   7.621  16.264  0.00  0.00    +0.000 OA
ENDBRANCH  18  30
ENDBRANCH  17  23
ENDBRANCH   1  17
TORSDOF 7
ENDMDL
MODEL 5
REMARK VINA RESULT:    -6.608      2.065      2.163
REMARK INTER + INTRA:         -10.622
REMARK INTER:                  -9.331
REMARK INTRA:                  -1.292
REMARK UNBOUND:                -1.311
REMARK  Name = 
REMARK  10 active torsions:
REMARK  status: ('A' for Active; 'I' for Inactive)
REMARK    1  A    between atoms: C_1  and  O_2
REMARK    2  A    between atoms: O_2  and  C_3
REMARK    3  A    between atoms: C_5  and  C_6
REMARK    4  A    between atoms: C_11  and  O_12
REMARK    5  A    between atoms: O_12  and  C_13
REMARK    6  A    between atoms: C_13  and  C_14
REMARK    7  A    between atoms: C_17  and  C_18
REMARK    8  A    between atoms: C_19  and  C_20
REMARK    9  A    between atoms: C_25  and  O_26
REMARK   10  A    between atoms: O_26  and  C_27
REMARK                            x       y       z     vdW  Elec       q    Type
REMARK                         _______ _______ _______ _____ _____    ______ ____
ROOT
ATOM      1  C   UNL     1      48.843   7.187  13.849  0.00  0.00    +0.000 C 
ENDROOT
BRANCH   1   2
ATOM      2  C   UNL     1      47.589   7.358  13.028  0.00  0.00    +0.000 A 
ATOM      3  C   UNL     1      46.837   8.521  13.137  0.00  0.00    +0.000 A 
ATOM      4  C   UNL     1      45.591   8.590  12.522  0.00  0.00    +0.000 A 
ATOM      5  C   UNL     1      45.064   7.495  11.802  0.00  0.00    +0.000 A 
ATOM      6  C   UNL     1      43.636   7.669  11.336  0.00  0.00    +0.000 C 
ATOM      7  C   UNL     1      45.849   6.320  11.591  0.00  0.00    +0.000 A 
ATOM      8  C   UNL     1      47.112   6.302  12.226  0.00  0.00    +0.000 A 
BRANCH   7   9
ATOM      9  C   UNL     1      45.419   5.144  10.746  0.00  0.00    +0.000 A 
ATOM     10  C   UNL     1      45.696   5.158   9.360  0.00  0.00    +0.000 A 
ATOM     11  C   UNL     1      45.273   4.153   8.485  0.00  0.00    +0.000 A 
ATOM     12  C   UNL     1      44.610   3.046   8.980  0.00  0.00    +0.000 A 
ATOM     13  C   UNL     1      44.389   2.942  10.348  0.00  0.00    +0.000 A 
ATOM     14  C   UNL     1      44.797   3.962  11.234  0.00  0.00    +0.000 A 
BRANCH  14  15
ATOM     15  O   UNL     1      44.561   3.829  12.586  0.00  0.00    +0.000 OA
ATOM     16  C   UNL     1      43.284   4.292  13.033  0.00  0.00    +0.000 C 
ENDBRANCH  14  15
ENDBRANCH   7   9
ENDBRANCH   1   2
BRANCH   1  17
ATOM     17  O   UNL     1      48.531   7.193  15.240  0.00  0.00    +0.000 OA
BRANCH  17  23
ATOM     18  C   UNL     1      48.702   5.155  16.681  0.00  0.00    +0.000 A 
ATOM     19  C   UNL     1      49.568   4.388  17.476  0.00  0.00    +0.000 A 
ATOM     20  C   UNL     1      50.915   4.750  17.650  0.00  0.00    +0.000 A 
ATOM     21  C   UNL     1      51.397   5.896  17.019  0.00  0.00    +0.000 A 
ATOM     22  C   UNL     1      50.539   6.666  16.226  0.00  0.00    +0.000 A 
ATOM     23  C   UNL     1      49.197   6.310  16.049  0.00  0.00    +0.000 A 
BRANCH  20  24
ATOM     24  C   UNL     1      51.756   3.867  18.512  0.00  0.00    +0.000 C 
ATOM     25  N   UNL     1      51.884   2.550  18.175  0.00  0.00    +0.000 N 
ATOM     26  O   UNL     1      52.329   4.305  19.504  0.00  0.00    +0.000 OA
ATOM     27  H   UNL     1      51.436   2.098  17.399  0.00  0.00    +0.000 HD
ATOM     28  H   UNL     1      52.450   1.984  18.794  0.00  0.00    +0.000 HD
ENDBRANCH  20  24
BRANCH  18  30
ATOM     29  C   UNL     1      47.133   4.041  15.256  0.00  0.00    +0.000 C 
ATOM     30  O   UNL     1      47.408   4.774  16.444  0.00  0.00    +0.000 OA
ENDBRANCH  18  30
ENDBRANCH  17  23
ENDBRANCH   1  17
TORSDOF 7
ENDMDL
MODEL 6
REMARK VINA RESULT:    -6.471      3.156      7.964
REMARK INTER + INTRA:         -10.430
REMARK INTER:                  -9.051
REMARK INTRA:                  -1.379
REMARK UNBOUND:                -1.311
REMARK  Name = 
REMARK  10 active torsions:
REMARK  status: ('A' for Active; 'I' for Inactive)
REMARK    1  A    between atoms: C_1  and  O_2
REMARK    2  A    between atoms: O_2  and  C_3
REMARK    3  A    between atoms: C_5  and  C_6
REMARK    4  A    between atoms: C_11  and  O_12
REMARK    5  A    between atoms: O_12  and  C_13
REMARK    6  A    between atoms: C_13  and  C_14
REMARK    7  A    between atoms: C_17  and  C_18
REMARK    8  A    between atoms: C_19  and  C_20
REMARK    9  A    between atoms: C_25  and  O_26
REMARK   10  A    between atoms: O_26  and  C_27
REMARK                            x       y       z     vdW  Elec       q    Type
REMARK                         _______ _______ _______ _____ _____    ______ ____
ROOT
ATOM      1  C   UNL     1      48.435   7.301  13.035  0.00  0.00    +0.000 C 
ENDROOT
BRANCH   1   2
ATOM      2  C   UNL     1      49.375   7.328  14.215  0.00  0.00    +0.000 A 
ATOM      3  C   UNL     1      50.622   7.929  14.100  0.00  0.00    +0.000 A 
ATOM      4  C   UNL     1      51.548   7.785  15.127  0.00  0.00    +0.000 A 
ATOM      5  C   UNL     1      51.255   7.024  16.281  0.00  0.00    +0.000 A 
ATOM      6  C   UNL     1      52.419   6.828  17.225  0.00  0.00    +0.000 C 
ATOM      7  C   UNL     1      49.952   6.472  16.474  0.00  0.00    +0.000 A 
ATOM      8  C   UNL     1      49.042   6.655  15.407  0.00  0.00    +0.000 A 
BRANCH   7   9
ATOM      9  C   UNL     1      49.508   5.740  17.718  0.00  0.00    +0.000 A 
ATOM     10  C   UNL     1      48.954   6.479  18.788  0.00  0.00    +0.000 A 
ATOM     11  C   UNL     1      48.585   5.902  20.007  0.00  0.00    +0.000 A 
ATOM     12  C   UNL     1      48.690   4.534  20.179  0.00  0.00    +0.000 A 
ATOM     13  C   UNL     1      49.148   3.750  19.126  0.00  0.00    +0.000 A 
ATOM     14  C   UNL     1      49.540   4.330  17.901  0.00  0.00    +0.000 A 
BRANCH  14  15
ATOM     15  O   UNL     1      49.992   3.525  16.877  0.00  0.00    +0.000 OA
ATOM     16  C   UNL     1      50.276   2.171  17.242  0.00  0.00    +0.000 C 
ENDBRANCH  14  15
ENDBRANCH   7   9
ENDBRANCH   1   2
BRANCH   1  17
ATOM     17  O   UNL     1      47.120   6.946  13.455  0.00  0.00    +0.000 OA
BRANCH  17  23
ATOM     18  C   UNL     1      45.914   4.797  13.021  0.00  0.00    +0.000 A 
ATOM     19  C   UNL     1      45.216   4.055  12.056  0.00  0.00    +0.000 A 
ATOM     20  C   UNL     1      45.007   4.554  10.759  0.00  0.00    +0.000 A 
ATOM     21  C   UNL     1      45.507   5.811  10.426  0.00  0.00    +0.000 A 
ATOM     22  C   UNL     1      46.206   6.557  11.383  0.00  0.00    +0.000 A 
ATOM     23  C   UNL     1      46.416   6.066  12.676  0.00  0.00    +0.000 A 
BRANCH  20  24
ATOM     24  C   UNL     1      44.248   3.689   9.806  0.00  0.00    +0.000 C 
ATOM     25  N   UNL     1      44.095   4.112   8.517  0.00  0.00    +0.000 N 
ATOM     26  O   UNL     1      43.772   2.617  10.161  0.00  0.00    +0.000 OA
ATOM     27  H   UNL     1      44.427   4.981   8.141  0.00  0.00    +0.000 HD
ATOM     28  H   UNL     1      43.562   3.503   7.908  0.00  0.00    +0.000 HD
ENDBRANCH  20  24
BRANCH  18  30
ATOM     29  C   UNL     1      47.225   3.603  14.629  0.00  0.00    +0.000 C 
ATOM     30  O   UNL     1      46.061   4.356  14.308  0.00  0.00    +0.000 OA
ENDBRANCH  18  30
ENDBRANCH  17  23
ENDBRANCH   1  17
TORSDOF 7
ENDMDL
MODEL 7
REMARK VINA RESULT:    -6.326      3.589      8.098
REMARK INTER + INTRA:         -10.225
REMARK INTER:                  -8.819
REMARK INTRA:                  -1.406
REMARK UNBOUND:                -1.311
REMARK  Name = 
REMARK  10 active torsions:
REMARK  status: ('A' for Active; 'I' for Inactive)
REMARK    1  A    between atoms: C_1  and  O_2
REMARK    2  A    between atoms: O_2  and  C_3
REMARK    3  A    between atoms: C_5  and  C_6
REMARK    4  A    between atoms: C_11  and  O_12
REMARK    5  A    between atoms: O_12  and  C_13
REMARK    6  A    between atoms: C_13  and  C_14
REMARK    7  A    between atoms: C_17  and  C_18
REMARK    8  A    between atoms: C_19  and  C_20
REMARK    9  A    between atoms: C_25  and  O_26
REMARK   10  A    between atoms: O_26  and  C_27
REMARK                            x       y       z     vdW  Elec       q    Type
REMARK                         _______ _______ _______ _____ _____    ______ ____
ROOT
ATOM      1  C   UNL     1      48.976   7.413  15.239  0.00  0.00    +0.000 C 
ENDROOT
BRANCH   1   2
ATOM      2  C   UNL     1      49.161   6.683  16.547  0.00  0.00    +0.000 A 
ATOM      3  C   UNL     1      48.597   7.188  17.712  0.00  0.00    +0.000 A 
ATOM      4  C   UNL     1      48.928   6.615  18.935  0.00  0.00    +0.000 A 
ATOM      5  C   UNL     1      49.840   5.540  19.022  0.00  0.00    +0.000 A 
ATOM      6  C   UNL     1      50.219   5.140  20.430  0.00  0.00    +0.000 C 
ATOM      7  C   UNL     1      50.364   4.937  17.838  0.00  0.00    +0.000 A 
ATOM      8  C   UNL     1      49.990   5.547  16.618  0.00  0.00    +0.000 A 
BRANCH   7   9
ATOM      9  C   UNL     1      51.256   3.718  17.821  0.00  0.00    +0.000 A 
ATOM     10  C   UNL     1      50.722   2.482  17.391  0.00  0.00    +0.000 A 
ATOM     11  C   UNL     1      51.445   1.286  17.411  0.00  0.00    +0.000 A 
ATOM     12  C   UNL     1      52.771   1.292  17.800  0.00  0.00    +0.000 A 
ATOM     13  C   UNL     1      53.371   2.496  18.151  0.00  0.00    +0.000 A 
ATOM     14  C   UNL     1      52.640   3.704  18.151  0.00  0.00    +0.000 A 
BRANCH  14  15
ATOM     15  O   UNL     1      53.263   4.881  18.506  0.00  0.00    +0.000 OA
ATOM     16  C   UNL     1      54.039   4.825  19.706  0.00  0.00    +0.000 C 
ENDBRANCH  14  15
ENDBRANCH   7   9
ENDBRANCH   1   2
BRANCH   1  17
ATOM     17  O   UNL     1      48.841   6.483  14.166  0.00  0.00    +0.000 OA
BRANCH  17  23
ATOM     18  C   UNL     1      46.909   4.906  13.970  0.00  0.00    +0.000 A 
ATOM     19  C   UNL     1      45.599   4.760  13.487  0.00  0.00    +0.000 A 
ATOM     20  C   UNL     1      44.942   5.811  12.823  0.00  0.00    +0.000 A 
ATOM     21  C   UNL     1      45.609   7.021  12.641  0.00  0.00    +0.000 A 
ATOM     22  C   UNL     1      46.916   7.174  13.119  0.00  0.00    +0.000 A 
ATOM     23  C   UNL     1      47.574   6.132  13.781  0.00  0.00    +0.000 A 
BRANCH  20  24
ATOM     24  C   UNL     1      43.548   5.557  12.350  0.00  0.00    +0.000 C 
ATOM     25  N   UNL     1      43.231   5.853  11.056  0.00  0.00    +0.000 N 
ATOM     26  O   UNL     1      42.698   5.089  13.099  0.00  0.00    +0.000 OA
ATOM     27  H   UNL     1      43.851   6.260  10.378  0.00  0.00    +0.000 HD
ATOM     28  H   UNL     1      42.272   5.681  10.780  0.00  0.00    +0.000 HD
ENDBRANCH  20  24
BRANCH  18  30
ATOM     29  C   UNL     1      47.147   3.724  16.038  0.00  0.00    +0.000 C 
ATOM     30  O   UNL     1      47.533   3.918  14.682  0.00  0.00    +0.000 OA
ENDBRANCH  18  30
ENDBRANCH  17  23
ENDBRANCH   1  17
TORSDOF 7
ENDMDL
MODEL 8
REMARK VINA RESULT:    -6.114      3.468      7.833
REMARK INTER + INTRA:          -9.926
REMARK INTER:                  -8.316
REMARK INTRA:                  -1.610
REMARK UNBOUND:                -1.311
REMARK  Name = 
REMARK  10 active torsions:
REMARK  status: ('A' for Active; 'I' for Inactive)
REMARK    1  A    between atoms: C_1  and  O_2
REMARK    2  A    between atoms: O_2  and  C_3
REMARK    3  A    between atoms: C_5  and  C_6
REMARK    4  A    between atoms: C_11  and  O_12
REMARK    5  A    between atoms: O_12  and  C_13
REMARK    6  A    between atoms: C_13  and  C_14
REMARK    7  A    between atoms: C_17  and  C_18
REMARK    8  A    between atoms: C_19  and  C_20
REMARK    9  A    between atoms: C_25  and  O_26
REMARK   10  A    between atoms: O_26  and  C_27
REMARK                            x       y       z     vdW  Elec       q    Type
REMARK                         _______ _______ _______ _____ _____    ______ ____
ROOT
ATOM      1  C   UNL     1      49.233   7.760  14.323  0.00  0.00    +0.000 C 
ENDROOT
BRANCH   1   2
ATOM      2  C   UNL     1      49.434   7.288  15.742  0.00  0.00    +0.000 A 
ATOM      3  C   UNL     1      48.742   7.893  16.783  0.00  0.00    +0.000 A 
ATOM      4  C   UNL     1      49.073   7.580  18.097  0.00  0.00    +0.000 A 
ATOM      5  C   UNL     1      50.112   6.670  18.398  0.00  0.00    +0.000 A 
ATOM      6  C   UNL     1      50.457   6.563  19.866  0.00  0.00    +0.000 C 
ATOM      7  C   UNL     1      50.779   5.960  17.353  0.00  0.00    +0.000 A 
ATOM      8  C   UNL     1      50.400   6.305  16.035  0.00  0.00    +0.000 A 
BRANCH   7   9
ATOM      9  C   UNL     1      51.822   4.891  17.577  0.00  0.00    +0.000 A 
ATOM     10  C   UNL     1      53.186   5.260  17.605  0.00  0.00    +0.000 A 
ATOM     11  C   UNL     1      54.227   4.335  17.731  0.00  0.00    +0.000 A 
ATOM     12  C   UNL     1      53.937   2.995  17.907  0.00  0.00    +0.000 A 
ATOM     13  C   UNL     1      52.609   2.590  17.972  0.00  0.00    +0.000 A 
ATOM     14  C   UNL     1      51.555   3.517  17.827  0.00  0.00    +0.000 A 
BRANCH  14  15
ATOM     15  O   UNL     1      50.248   3.083  17.895  0.00  0.00    +0.000 OA
ATOM     16  C   UNL     1      49.884   2.084  16.939  0.00  0.00    +0.000 C 
ENDBRANCH  14  15
ENDBRANCH   7   9
ENDBRANCH   1   2
BRANCH   1  17
ATOM     17  O   UNL     1      49.008   6.651  13.456  0.00  0.00    +0.000 OA
BRANCH  17  23
ATOM     18  C   UNL     1      47.021   5.156  13.733  0.00  0.00    +0.000 A 
ATOM     19  C   UNL     1      45.684   4.956  13.359  0.00  0.00    +0.000 A 
ATOM     20  C   UNL     1      45.024   5.845  12.493  0.00  0.00    +0.000 A 
ATOM     21  C   UNL     1      45.716   6.948  11.996  0.00  0.00    +0.000 A 
ATOM     22  C   UNL     1      47.052   7.154  12.363  0.00  0.00    +0.000 A 
ATOM     23  C   UNL     1      47.713   6.272  13.225  0.00  0.00    +0.000 A 
BRANCH  20  24
ATOM     24  C   UNL     1      43.599   5.546  12.159  0.00  0.00    +0.000 C 
ATOM     25  N   UNL     1      43.171   5.744  10.878  0.00  0.00    +0.000 N 
ATOM     26  O   UNL     1      42.820   5.127  13.009  0.00  0.00    +0.000 OA
ATOM     27  H   UNL     1      43.726   6.105  10.123  0.00  0.00    +0.000 HD
ATOM     28  H   UNL     1      42.195   5.544  10.697  0.00  0.00    +0.000 HD
ENDBRANCH  20  24
BRANCH  18  30
ATOM     29  C   UNL     1      47.184   4.334  15.975  0.00  0.00    +0.000 C 
ATOM     30  O   UNL     1      47.653   4.340  14.631  0.00  0.00    +0.000 OA
ENDBRANCH  18  30
ENDBRANCH  17  23
ENDBRANCH   1  17
TORSDOF 7
ENDMDL
MODEL 9
REMARK VINA RESULT:    -5.733      3.085      7.808
REMARK INTER + INTRA:          -9.390
REMARK INTER:                  -8.040
REMARK INTRA:                  -1.350
REMARK UNBOUND:                -1.311
REMARK  Name = 
REMARK  10 active torsions:
REMARK  status: ('A' for Active; 'I' for Inactive)
REMARK    1  A    between atoms: C_1  and  O_2
REMARK    2  A    between atoms: O_2  and  C_3
REMARK    3  A    between atoms: C_5  and  C_6
REMARK    4  A    between atoms: C_11  and  O_12
REMARK    5  A    between atoms: O_12  and  C_13
REMARK    6  A    between atoms: C_13  and  C_14
REMARK    7  A    between atoms: C_17  and  C_18
REMARK    8  A    between atoms: C_19  and  C_20
REMARK    9  A    between atoms: C_25  and  O_26
REMARK   10  A    between atoms: O_26  and  C_27
REMARK                            x       y       z     vdW  Elec       q    Type
REMARK                         _______ _______ _______ _____ _____    ______ ____
ROOT
ATOM      1  C   UNL     1      48.613   7.246  12.177  0.00  0.00    +0.000 C 
ENDROOT
BRANCH   1   2
ATOM      2  C   UNL     1      49.432   7.701  13.360  0.00  0.00    +0.000 A 
ATOM      3  C   UNL     1      50.362   8.722  13.214  0.00  0.00    +0.000 A 
ATOM      4  C   UNL     1      51.238   9.004  14.256  0.00  0.00    +0.000 A 
ATOM      5  C   UNL     1      51.216   8.262  15.458  0.00  0.00    +0.000 A 
ATOM      6  C   UNL     1      52.334   8.580  16.423  0.00  0.00    +0.000 C 
ATOM      7  C   UNL     1      50.211   7.270  15.678  0.00  0.00    +0.000 A 
ATOM      8  C   UNL     1      49.337   7.027  14.594  0.00  0.00    +0.000 A 
BRANCH   7   9
ATOM      9  C   UNL     1      50.036   6.502  16.967  0.00  0.00    +0.000 A 
ATOM     10  C   UNL     1      50.648   5.235  17.100  0.00  0.00    +0.000 A 
ATOM     11  C   UNL     1      50.482   4.418  18.222  0.00  0.00    +0.000 A 
ATOM     12  C   UNL     1      49.746   4.873  19.300  0.00  0.00    +0.000 A 
ATOM     13  C   UNL     1      49.194   6.148  19.256  0.00  0.00    +0.000 A 
ATOM     14  C   UNL     1      49.343   6.969  18.118  0.00  0.00    +0.000 A 
BRANCH  14  15
ATOM     15  O   UNL     1      48.781   8.228  18.105  0.00  0.00    +0.000 OA
ATOM     16  C   UNL     1      49.355   9.164  19.022  0.00  0.00    +0.000 C 
ENDBRANCH  14  15
ENDBRANCH   7   9
ENDBRANCH   1   2
BRANCH   1  17
ATOM     17  O   UNL     1      47.223   7.281  12.491  0.00  0.00    +0.000 OA
BRANCH  17  23
ATOM     18  C   UNL     1      46.159   5.090  13.062  0.00  0.00    +0.000 A 
ATOM     19  C   UNL     1      45.372   4.040  12.564  0.00  0.00    +0.000 A 
ATOM     20  C   UNL     1      44.897   4.044  11.242  0.00  0.00    +0.000 A 
ATOM     21  C   UNL     1      45.215   5.115  10.409  0.00  0.00    +0.000 A 
ATOM     22  C   UNL     1      46.000   6.166  10.897  0.00  0.00    +0.000 A 
ATOM     23  C   UNL     1      46.476   6.167  12.213  0.00  0.00    +0.000 A 
BRANCH  20  24
ATOM     24  C   UNL     1      44.064   2.881  10.808  0.00  0.00    +0.000 C 
ATOM     25  N   UNL     1      44.491   2.126   9.755  0.00  0.00    +0.000 N 
ATOM     26  O   UNL     1      43.019   2.598  11.383  0.00  0.00    +0.000 OA
ATOM     27  H   UNL     1      45.318   2.293   9.210  0.00  0.00    +0.000 HD
ATOM     28  H   UNL     1      43.891   1.357   9.484  0.00  0.00    +0.000 HD
ENDBRANCH  20  24
BRANCH  18  30
ATOM     29  C   UNL     1      47.158   3.966  14.924  0.00  0.00    +0.000 C 
ATOM     30  O   UNL     1      46.567   5.134  14.367  0.00  0.00    +0.000 OA
ENDBRANCH  18  30
ENDBRANCH  17  23
ENDBRANCH   1  17
TORSDOF 7
ENDMDL
