MODEL 1
REMARK VINA RESULT:    -8.103      0.000      0.000
REMARK INTER + INTRA:         -11.034
REMARK INTER:                 -10.235
REMARK INTRA:                  -0.799
REMARK UNBOUND:                -0.799
REMARK  Name = 
REMARK  6 active torsions:
REMARK  status: ('A' for Active; 'I' for Inactive)
REMARK    1  A    between atoms: C_1  and  C_2
REMARK    2  A    between atoms: C_2  and  C_3
REMARK    3  A    between atoms: C_2  and  C_15
REMARK    4  A    between atoms: C_3  and  N_4
REMARK    5  A    between atoms: C_8  and  C_9
REMARK    6  A    between atoms: C_12  and  N_13
REMARK                            x       y       z     vdW  Elec       q    Type
REMARK                         _______ _______ _______ _____ _____    ______ ____
ROOT
ATOM      1  N   UNL     1      44.440   2.652  10.685  0.00  0.00    +0.000 N 
ATOM      2  C   UNL     1      45.116   2.605   9.476  0.00  0.00    +0.000 A 
ATOM      3  N   UNL     1      45.310   3.720   8.759  0.00  0.00    +0.000 NA
ATOM      4  C   UNL     1      46.065   3.606   7.645  0.00  0.00    +0.000 A 
ATOM      5  C   UNL     1      46.613   2.423   7.211  0.00  0.00    +0.000 A 
ATOM      6  C   UNL     1      46.326   1.318   7.996  0.00  0.00    +0.000 A 
ATOM      7  N   UNL     1      45.577   1.401   9.114  0.00  0.00    +0.000 NA
ATOM      8  H   UNL     1      44.136   1.705  10.887  0.00  0.00    +0.000 HD
ENDROOT
BRANCH   5   9
ATOM      9  C   UNL     1      47.547   2.356   6.069  0.00  0.00    +0.000 C 
ATOM     10  N   UNL     1      47.398   3.258   5.050  0.00  0.00    +0.000 N 
ATOM     11  O   UNL     1      48.454   1.531   6.033  0.00  0.00    +0.000 OA
ATOM     12  H   UNL     1      46.582   3.836   4.917  0.00  0.00    +0.000 HD
ATOM     13  H   UNL     1      48.026   3.150   4.263  0.00  0.00    +0.000 HD
ENDBRANCH   5   9
BRANCH   6  14
ATOM     14  N   UNL     1      46.697   0.024   7.626  0.00  0.00    +0.000 N 
ATOM     15  H   UNL     1      46.927  -0.551   8.437  0.00  0.00    +0.000 HD
ATOM     16  H   UNL     1      45.987  -0.374   7.021  0.00  0.00    +0.000 HD
ENDBRANCH   6  14
BRANCH   1  17
ATOM     17  C   UNL     1      43.410   3.675  10.791  0.00  0.00    +0.000 C 
BRANCH  17  19
ATOM     18  C   UNL     1      42.474   5.600  12.177  0.00  0.00    +0.000 C 
ATOM     19  C   UNL     1      43.577   4.538  12.066  0.00  0.00    +0.000 C 
BRANCH  19  20
ATOM     20  C   UNL     1      44.987   5.094  12.242  0.00  0.00    +0.000 A 
ATOM     21  C   UNL     1      45.762   4.667  13.335  0.00  0.00    +0.000 A 
ATOM     22  C   UNL     1      47.027   5.209  13.573  0.00  0.00    +0.000 A 
ATOM     23  C   UNL     1      47.537   6.181  12.718  0.00  0.00    +0.000 A 
ATOM     24 CL   UNL     1      49.075   6.882  13.034  0.00  0.00    +0.000 Cl
ATOM     25  C   UNL     1      46.800   6.596  11.612  0.00  0.00    +0.000 A 
ATOM     26  C   UNL     1      45.537   6.049  11.371  0.00  0.00    +0.000 A 
ENDBRANCH  19  20
ENDBRANCH  17  19
ENDBRANCH   1  17
TORSDOF 5
ENDMDL
MODEL 2
REMARK VINA RESULT:    -7.878      1.482      2.393
REMARK INTER + INTRA:         -10.749
REMARK INTER:                 -10.371
REMARK INTRA:                  -0.378
REMARK UNBOUND:                -0.799
REMARK  Name = 
REMARK  6 active torsions:
REMARK  status: ('A' for Active; 'I' for Inactive)
REMARK    1  A    between atoms: C_1  and  C_2
REMARK    2  A    between atoms: C_2  and  C_3
REMARK    3  A    between atoms: C_2  and  C_15
REMARK    4  A    between atoms: C_3  and  N_4
REMARK    5  A    between atoms: C_8  and  C_9
REMARK    6  A    between atoms: C_12  and  N_13
REMARK                            x       y       z     vdW  Elec       q    Type
REMARK                         _______ _______ _______ _____ _____    ______ ____
ROOT
ATOM      1  N   UNL     1      43.810   4.950   9.468  0.00  0.00    +0.000 N 
ATOM      2  C   UNL     1      44.662   3.945   9.036  0.00  0.00    +0.000 A 
ATOM      3  N   UNL     1      44.536   2.696   9.505  0.00  0.00    +0.000 NA
ATOM      4  C   UNL     1      45.336   1.755   8.958  0.00  0.00    +0.000 A 
ATOM      5  C   UNL     1      46.268   2.018   7.982  0.00  0.00    +0.000 A 
ATOM      6  C   UNL     1      46.352   3.343   7.589  0.00  0.00    +0.000 A 
ATOM      7  N   UNL     1      45.565   4.304   8.115  0.00  0.00    +0.000 NA
ATOM      8  H   UNL     1      44.265   5.831   9.250  0.00  0.00    +0.000 HD
ENDROOT
BRANCH   5   9
ATOM      9  C   UNL     1      47.029   0.947   7.308  0.00  0.00    +0.000 C 
ATOM     10  N   UNL     1      46.742  -0.354   7.619  0.00  0.00    +0.000 N 
ATOM     11  O   UNL     1      47.885   1.204   6.467  0.00  0.00    +0.000 OA
ATOM     12  H   UNL     1      46.194  -0.641   8.417  0.00  0.00    +0.000 HD
ATOM     13  H   UNL     1      47.317  -1.058   7.173  0.00  0.00    +0.000 HD
ENDBRANCH   5   9
BRANCH   6  14
ATOM     14  N   UNL     1      47.331   3.798   6.705  0.00  0.00    +0.000 N 
ATOM     15  H   UNL     1      47.138   4.746   6.380  0.00  0.00    +0.000 HD
ATOM     16  H   UNL     1      48.248   3.680   7.121  0.00  0.00    +0.000 HD
ENDBRANCH   6  14
BRANCH   1  17
ATOM     17  C   UNL     1      43.323   4.819  10.833  0.00  0.00    +0.000 C 
BRANCH  17  19
ATOM     18  C   UNL     1      44.002   4.378  13.251  0.00  0.00    +0.000 C 
ATOM     19  C   UNL     1      44.476   4.842  11.866  0.00  0.00    +0.000 C 
BRANCH  19  20
ATOM     20  C   UNL     1      45.245   6.159  11.889  0.00  0.00    +0.000 A 
ATOM     21  C   UNL     1      46.648   6.133  11.969  0.00  0.00    +0.000 A 
ATOM     22  C   UNL     1      47.384   7.316  12.068  0.00  0.00    +0.000 A 
ATOM     23  C   UNL     1      46.725   8.542  12.082  0.00  0.00    +0.000 A 
ATOM     24 CL   UNL     1      47.625   9.999  12.248  0.00  0.00    +0.000 Cl
ATOM     25  C   UNL     1      45.339   8.593  11.971  0.00  0.00    +0.000 A 
ATOM     26  C   UNL     1      44.604   7.409  11.866  0.00  0.00    +0.000 A 
ENDBRANCH  19  20
ENDBRANCH  17  19
ENDBRANCH   1  17
TORSDOF 5
ENDMDL
MODEL 3
REMARK VINA RESULT:    -7.600      4.080      6.259
REMARK INTER + INTRA:         -10.398
REMARK INTER:                  -9.574
REMARK INTRA:                  -0.824
REMARK UNBOUND:                -0.799
REMARK  Name = 
REMARK  6 active torsions:
REMARK  status: ('A' for Active; 'I' for Inactive)
REMARK    1  A    between atoms: C_1  and  C_2
REMARK    2  A    between atoms: C_2  and  C_3
REMARK    3  A    between atoms: C_2  and  C_15
REMARK    4  A    between atoms: C_3  and  N_4
REMARK    5  A    between atoms: C_8  and  C_9
REMARK    6  A    between atoms: C_12  and  N_13
REMARK                            x       y       z     vdW  Elec       q    Type
REMARK                         _______ _______ _______ _____ _____    ______ ____
ROOT
ATOM      1  N   UNL     1      43.920   5.244  11.995  0.00  0.00    +0.000 N 
ATOM      2  C   UNL     1      45.223   5.617  12.292  0.00  0.00    +0.000 A 
ATOM      3  N   UNL     1      45.934   6.351  11.426  0.00  0.00    +0.000 NA
ATOM      4  C   UNL     1      47.157   6.759  11.832  0.00  0.00    +0.000 A 
ATOM      5  C   UNL     1      47.700   6.444  13.055  0.00  0.00    +0.000 A 
ATOM      6  C   UNL     1      46.905   5.650  13.865  0.00  0.00    +0.000 A 
ATOM      7  N   UNL     1      45.681   5.230  13.488  0.00  0.00    +0.000 NA
ATOM      8  H   UNL     1      43.696   4.463  12.604  0.00  0.00    +0.000 HD
ENDROOT
BRANCH   5   9
ATOM      9  C   UNL     1      48.977   7.018  13.524  0.00  0.00    +0.000 C 
ATOM     10  N   UNL     1      49.999   7.159  12.625  0.00  0.00    +0.000 N 
ATOM     11  O   UNL     1      49.123   7.388  14.685  0.00  0.00    +0.000 OA
ATOM     12  H   UNL     1      50.023   6.719  11.717  0.00  0.00    +0.000 HD
ATOM     13  H   UNL     1      50.874   7.511  12.995  0.00  0.00    +0.000 HD
ENDBRANCH   5   9
BRANCH   6  14
ATOM     14  N   UNL     1      47.360   5.136  15.081  0.00  0.00    +0.000 N 
ATOM     15  H   UNL     1      48.377   5.058  15.104  0.00  0.00    +0.000 HD
ATOM     16  H   UNL     1      46.965   5.671  15.847  0.00  0.00    +0.000 HD
ENDBRANCH   6  14
BRANCH   1  17
ATOM     17  C   UNL     1      43.628   5.042  10.585  0.00  0.00    +0.000 C 
BRANCH  17  19
ATOM     18  C   UNL     1      43.602   2.636  11.427  0.00  0.00    +0.000 C 
ATOM     19  C   UNL     1      43.668   3.545  10.192  0.00  0.00    +0.000 C 
BRANCH  19  20
ATOM     20  C   UNL     1      44.804   3.198   9.233  0.00  0.00    +0.000 A 
ATOM     21  C   UNL     1      45.416   4.226   8.495  0.00  0.00    +0.000 A 
ATOM     22  C   UNL     1      46.407   3.941   7.552  0.00  0.00    +0.000 A 
ATOM     23  C   UNL     1      46.802   2.623   7.341  0.00  0.00    +0.000 A 
ATOM     24 CL   UNL     1      47.990   2.263   6.150  0.00  0.00    +0.000 Cl
ATOM     25  C   UNL     1      46.232   1.593   8.083  0.00  0.00    +0.000 A 
ATOM     26  C   UNL     1      45.245   1.880   9.030  0.00  0.00    +0.000 A 
ENDBRANCH  19  20
ENDBRANCH  17  19
ENDBRANCH   1  17
TORSDOF 5
ENDMDL
MODEL 4
REMARK VINA RESULT:    -7.376      4.290      6.830
REMARK INTER + INTRA:         -10.116
REMARK INTER:                  -9.483
REMARK INTRA:                  -0.633
REMARK UNBOUND:                -0.799
REMARK  Name = 
REMARK  6 active torsions:
REMARK  status: ('A' for Active; 'I' for Inactive)
REMARK    1  A    between atoms: C_1  and  C_2
REMARK    2  A    between atoms: C_2  and  C_3
REMARK    3  A    between atoms: C_2  and  C_15
REMARK    4  A    between atoms: C_3  and  N_4
REMARK    5  A    between atoms: C_8  and  C_9
REMARK    6  A    between atoms: C_12  and  N_13
REMARK                            x       y       z     vdW  Elec       q    Type
REMARK                         _______ _______ _______ _____ _____    ______ ____
ROOT
ATOM      1  N   UNL     1      44.562   4.748  12.646  0.00  0.00    +0.000 N 
ATOM      2  C   UNL     1      45.722   5.069  13.336  0.00  0.00    +0.000 A 
ATOM      3  N   UNL     1      46.466   6.119  12.964  0.00  0.00    +0.000 NA
ATOM      4  C   UNL     1      47.523   6.425  13.748  0.00  0.00    +0.000 A 
ATOM      5  C   UNL     1      47.875   5.713  14.869  0.00  0.00    +0.000 A 
ATOM      6  C   UNL     1      47.069   4.623  15.151  0.00  0.00    +0.000 A 
ATOM      7  N   UNL     1      46.006   4.293  14.389  0.00  0.00    +0.000 NA
ATOM      8  H   UNL     1      44.345   3.783  12.875  0.00  0.00    +0.000 HD
ENDROOT
BRANCH   5   9
ATOM      9  C   UNL     1      48.950   6.154  15.781  0.00  0.00    +0.000 C 
ATOM     10  N   UNL     1      49.109   7.495  16.002  0.00  0.00    +0.000 N 
ATOM     11  O   UNL     1      49.675   5.345  16.352  0.00  0.00    +0.000 OA
ATOM     12  H   UNL     1      48.685   8.219  15.441  0.00  0.00    +0.000 HD
ATOM     13  H   UNL     1      49.886   7.761  16.594  0.00  0.00    +0.000 HD
ENDBRANCH   5   9
BRANCH   6  14
ATOM     14  N   UNL     1      47.364   3.722  16.176  0.00  0.00    +0.000 N 
ATOM     15  H   UNL     1      47.869   2.905  15.830  0.00  0.00    +0.000 HD
ATOM     16  H   UNL     1      47.829   4.209  16.934  0.00  0.00    +0.000 HD
ENDBRANCH   6  14
BRANCH   1  17
ATOM     17  C   UNL     1      44.563   5.069  11.228  0.00  0.00    +0.000 C 
BRANCH  17  19
ATOM     18  C   UNL     1      43.481   2.760  11.243  0.00  0.00    +0.000 C 
ATOM     19  C   UNL     1      44.001   3.910  10.369  0.00  0.00    +0.000 C 
BRANCH  19  20
ATOM     20  C   UNL     1      44.948   3.460   9.260  0.00  0.00    +0.000 A 
ATOM     21  C   UNL     1      45.221   2.090   9.106  0.00  0.00    +0.000 A 
ATOM     22  C   UNL     1      46.140   1.644   8.152  0.00  0.00    +0.000 A 
ATOM     23  C   UNL     1      46.793   2.564   7.337  0.00  0.00    +0.000 A 
ATOM     24 CL   UNL     1      47.957   2.022   6.192  0.00  0.00    +0.000 Cl
ATOM     25  C   UNL     1      46.513   3.923   7.451  0.00  0.00    +0.000 A 
ATOM     26  C   UNL     1      45.590   4.367   8.400  0.00  0.00    +0.000 A 
ENDBRANCH  19  20
ENDBRANCH  17  19
ENDBRANCH   1  17
TORSDOF 5
ENDMDL
MODEL 5
REMARK VINA RESULT:    -7.039      4.496      6.927
REMARK INTER + INTRA:          -9.690
REMARK INTER:                  -9.013
REMARK INTRA:                  -0.677
REMARK UNBOUND:                -0.799
REMARK  Name = 
REMARK  6 active torsions:
REMARK  status: ('A' for Active; 'I' for Inactive)
REMARK    1  A    between atoms: C_1  and  C_2
REMARK    2  A    between atoms: C_2  and  C_3
REMARK    3  A    between atoms: C_2  and  C_15
REMARK    4  A    between atoms: C_3  and  N_4
REMARK    5  A    between atoms: C_8  and  C_9
REMARK    6  A    between atoms: C_12  and  N_13
REMARK                            x       y       z     vdW  Elec       q    Type
REMARK                         _______ _______ _______ _____ _____    ______ ____
ROOT
ATOM      1  N   UNL     1      45.553   5.053  11.892  0.00  0.00    +0.000 N 
ATOM      2  C   UNL     1      46.195   6.191  12.357  0.00  0.00    +0.000 A 
ATOM      3  N   UNL     1      45.495   7.292  12.662  0.00  0.00    +0.000 NA
ATOM      4  C   UNL     1      46.181   8.321  13.204  0.00  0.00    +0.000 A 
ATOM      5  C   UNL     1      47.537   8.300  13.431  0.00  0.00    +0.000 A 
ATOM      6  C   UNL     1      48.180   7.135  13.048  0.00  0.00    +0.000 A 
ATOM      7  N   UNL     1      47.522   6.091  12.506  0.00  0.00    +0.000 NA
ATOM      8  H   UNL     1      46.261   4.485  11.436  0.00  0.00    +0.000 HD
ENDROOT
BRANCH   5   9
ATOM      9  C   UNL     1      48.234   9.385  14.151  0.00  0.00    +0.000 C 
ATOM     10  N   UNL     1      47.925   9.599  15.467  0.00  0.00    +0.000 N 
ATOM     11  O   UNL     1      49.091  10.069  13.601  0.00  0.00    +0.000 OA
ATOM     12  H   UNL     1      47.117   9.211  15.932  0.00  0.00    +0.000 HD
ATOM     13  H   UNL     1      48.387  10.382  15.913  0.00  0.00    +0.000 HD
ENDBRANCH   5   9
BRANCH   6  14
ATOM     14  N   UNL     1      49.569   7.002  13.091  0.00  0.00    +0.000 N 
ATOM     15  H   UNL     1      49.855   6.024  13.162  0.00  0.00    +0.000 HD
ATOM     16  H   UNL     1      49.984   7.501  12.311  0.00  0.00    +0.000 HD
ENDBRANCH   6  14
BRANCH   1  17
ATOM     17  C   UNL     1      44.344   5.285  11.117  0.00  0.00    +0.000 C 
BRANCH  17  19
ATOM     18  C   UNL     1      43.431   2.924  11.426  0.00  0.00    +0.000 C 
ATOM     19  C   UNL     1      43.851   3.998  10.412  0.00  0.00    +0.000 C 
BRANCH  19  20
ATOM     20  C   UNL     1      44.807   3.488   9.337  0.00  0.00    +0.000 A 
ATOM     21  C   UNL     1      45.086   2.112   9.264  0.00  0.00    +0.000 A 
ATOM     22  C   UNL     1      46.013   1.616   8.344  0.00  0.00    +0.000 A 
ATOM     23  C   UNL     1      46.668   2.490   7.481  0.00  0.00    +0.000 A 
ATOM     24 CL   UNL     1      47.842   1.888   6.377  0.00  0.00    +0.000 Cl
ATOM     25  C   UNL     1      46.383   3.852   7.515  0.00  0.00    +0.000 A 
ATOM     26  C   UNL     1      45.452   4.347   8.431  0.00  0.00    +0.000 A 
ENDBRANCH  19  20
ENDBRANCH  17  19
ENDBRANCH   1  17
TORSDOF 5
ENDMDL
MODEL 6
REMARK VINA RESULT:    -7.037      5.130      7.559
REMARK INTER + INTRA:          -9.687
REMARK INTER:                  -9.064
REMARK INTRA:                  -0.623
REMARK UNBOUND:                -0.799
REMARK  Name = 
REMARK  6 active torsions:
REMARK  status: ('A' for Active; 'I' for Inactive)
REMARK    1  A    between atoms: C_1  and  C_2
REMARK    2  A    between atoms: C_2  and  C_3
REMARK    3  A    between atoms: C_2  and  C_15
REMARK    4  A    between atoms: C_3  and  N_4
REMARK    5  A    between atoms: C_8  and  C_9
REMARK    6  A    between atoms: C_12  and  N_13
REMARK                            x       y       z     vdW  Elec       q    Type
REMARK                         _______ _______ _______ _____ _____    ______ ____
ROOT
ATOM      1  N   UNL     1      46.125   3.916  13.878  0.00  0.00    +0.000 N 
ATOM      2  C   UNL     1      46.998   3.951  14.954  0.00  0.00    +0.000 A 
ATOM      3  N   UNL     1      47.047   5.022  15.758  0.00  0.00    +0.000 NA
ATOM      4  C   UNL     1      47.849   4.936  16.841  0.00  0.00    +0.000 A 
ATOM      5  C   UNL     1      48.616   3.835  17.139  0.00  0.00    +0.000 A 
ATOM      6  C   UNL     1      48.528   2.793  16.231  0.00  0.00    +0.000 A 
ATOM      7  N   UNL     1      47.736   2.849  15.141  0.00  0.00    +0.000 NA
ATOM      8  H   UNL     1      46.467   3.196  13.249  0.00  0.00    +0.000 HD
ENDROOT
BRANCH   5   9
ATOM      9  C   UNL     1      49.373   3.717  18.401  0.00  0.00    +0.000 C 
ATOM     10  N   UNL     1      48.682   3.480  19.558  0.00  0.00    +0.000 N 
ATOM     11  O   UNL     1      50.597   3.804  18.423  0.00  0.00    +0.000 OA
ATOM     12  H   UNL     1      47.682   3.577  19.654  0.00  0.00    +0.000 HD
ATOM     13  H   UNL     1      49.230   3.454  20.409  0.00  0.00    +0.000 HD
ENDBRANCH   5   9
BRANCH   6  14
ATOM     14  N   UNL     1      49.337   1.659  16.316  0.00  0.00    +0.000 N 
ATOM     15  H   UNL     1      48.837   0.865  16.717  0.00  0.00    +0.000 HD
ATOM     16  H   UNL     1      49.760   1.472  15.413  0.00  0.00    +0.000 HD
ENDBRANCH   6  14
BRANCH   1  17
ATOM     17  C   UNL     1      45.837   5.201  13.259  0.00  0.00    +0.000 C 
BRANCH  17  19
ATOM     18  C   UNL     1      43.449   4.337  13.023  0.00  0.00    +0.000 C 
ATOM     19  C   UNL     1      44.576   5.144  12.362  0.00  0.00    +0.000 C 
BRANCH  19  20
ATOM     20  C   UNL     1      44.871   4.724  10.925  0.00  0.00    +0.000 A 
ATOM     21  C   UNL     1      44.402   3.482  10.463  0.00  0.00    +0.000 A 
ATOM     22  C   UNL     1      44.715   3.029   9.179  0.00  0.00    +0.000 A 
ATOM     23  C   UNL     1      45.497   3.816   8.338  0.00  0.00    +0.000 A 
ATOM     24 CL   UNL     1      45.921   3.242   6.773  0.00  0.00    +0.000 Cl
ATOM     25  C   UNL     1      45.945   5.063   8.764  0.00  0.00    +0.000 A 
ATOM     26  C   UNL     1      45.626   5.518  10.046  0.00  0.00    +0.000 A 
ENDBRANCH  19  20
ENDBRANCH  17  19
ENDBRANCH   1  17
TORSDOF 5
ENDMDL
MODEL 7
REMARK VINA RESULT:    -6.873      4.625      7.092
REMARK INTER + INTRA:          -9.480
REMARK INTER:                  -8.917
REMARK INTRA:                  -0.562
REMARK UNBOUND:                -0.799
REMARK  Name = 
REMARK  6 active torsions:
REMARK  status: ('A' for Active; 'I' for Inactive)
REMARK    1  A    between atoms: C_1  and  C_2
REMARK    2  A    between atoms: C_2  and  C_3
REMARK    3  A    between atoms: C_2  and  C_15
REMARK    4  A    between atoms: C_3  and  N_4
REMARK    5  A    between atoms: C_8  and  C_9
REMARK    6  A    between atoms: C_12  and  N_13
REMARK                            x       y       z     vdW  Elec       q    Type
REMARK                         _______ _______ _______ _____ _____    ______ ____
ROOT
ATOM      1  N   UNL     1      44.412   6.210  11.015  0.00  0.00    +0.000 N 
ATOM      2  C   UNL     1      45.268   7.187  11.499  0.00  0.00    +0.000 A 
ATOM      3  N   UNL     1      46.558   6.907  11.732  0.00  0.00    +0.000 NA
ATOM      4  C   UNL     1      47.348   7.938  12.105  0.00  0.00    +0.000 A 
ATOM      5  C   UNL     1      46.896   9.225  12.273  0.00  0.00    +0.000 A 
ATOM      6  C   UNL     1      45.542   9.409  12.046  0.00  0.00    +0.000 A 
ATOM      7  N   UNL     1      44.729   8.401  11.671  0.00  0.00    +0.000 NA
ATOM      8  H   UNL     1      43.467   6.527  11.212  0.00  0.00    +0.000 HD
ENDROOT
BRANCH   5   9
ATOM      9  C   UNL     1      47.809  10.354  12.544  0.00  0.00    +0.000 C 
ATOM     10  N   UNL     1      48.856  10.155  13.402  0.00  0.00    +0.000 N 
ATOM     11  O   UNL     1      47.657  11.444  12.001  0.00  0.00    +0.000 OA
ATOM     12  H   UNL     1      48.943   9.362  14.020  0.00  0.00    +0.000 HD
ATOM     13  H   UNL     1      49.431  10.965  13.601  0.00  0.00    +0.000 HD
ENDBRANCH   5   9
BRANCH   6  14
ATOM     14  N   UNL     1      44.902  10.623  12.297  0.00  0.00    +0.000 N 
ATOM     15  H   UNL     1      45.396  11.175  13.000  0.00  0.00    +0.000 HD
ATOM     16  H   UNL     1      44.741  11.112  11.423  0.00  0.00    +0.000 HD
ENDBRANCH   6  14
BRANCH   1  17
ATOM     17  C   UNL     1      44.712   4.848  11.428  0.00  0.00    +0.000 C 
BRANCH  17  19
ATOM     18  C   UNL     1      43.471   2.625  11.287  0.00  0.00    +0.000 C 
ATOM     19  C   UNL     1      44.060   3.800  10.493  0.00  0.00    +0.000 C 
BRANCH  19  20
ATOM     20  C   UNL     1      44.960   3.372   9.338  0.00  0.00    +0.000 A 
ATOM     21  C   UNL     1      45.256   2.008   9.167  0.00  0.00    +0.000 A 
ATOM     22  C   UNL     1      46.135   1.583   8.168  0.00  0.00    +0.000 A 
ATOM     23  C   UNL     1      46.726   2.518   7.323  0.00  0.00    +0.000 A 
ATOM     24 CL   UNL     1      47.843   2.003   6.121  0.00  0.00    +0.000 Cl
ATOM     25  C   UNL     1      46.423   3.870   7.453  0.00  0.00    +0.000 A 
ATOM     26  C   UNL     1      45.539   4.293   8.449  0.00  0.00    +0.000 A 
ENDBRANCH  19  20
ENDBRANCH  17  19
ENDBRANCH   1  17
TORSDOF 5
ENDMDL
MODEL 8
REMARK VINA RESULT:    -6.644      4.598      6.591
REMARK INTER + INTRA:          -9.191
REMARK INTER:                  -8.593
REMARK INTRA:                  -0.598
REMARK UNBOUND:                -0.799
REMARK  Name = 
REMARK  6 active torsions:
REMARK  status: ('A' for Active; 'I' for Inactive)
REMARK    1  A    between atoms: C_1  and  C_2
REMARK    2  A    between atoms: C_2  and  C_3
REMARK    3  A    between atoms: C_2  and  C_15
REMARK    4  A    between atoms: C_3  and  N_4
REMARK    5  A    between atoms: C_8  and  C_9
REMARK    6  A    between atoms: C_12  and  N_13
REMARK                            x       y       z     vdW  Elec       q    Type
REMARK                         _______ _______ _______ _____ _____    ______ ____
ROOT
ATOM      1  N   UNL     1      47.204   3.795  14.633  0.00  0.00    +0.000 N 
ATOM      2  C   UNL     1      46.206   4.239  13.780  0.00  0.00    +0.000 A 
ATOM      3  N   UNL     1      46.027   5.549  13.564  0.00  0.00    +0.000 NA
ATOM      4  C   UNL     1      45.102   5.895  12.642  0.00  0.00    +0.000 A 
ATOM      5  C   UNL     1      44.338   4.987  11.948  0.00  0.00    +0.000 A 
ATOM      6  C   UNL     1      44.567   3.659  12.267  0.00  0.00    +0.000 A 
ATOM      7  N   UNL     1      45.484   3.283  13.181  0.00  0.00    +0.000 NA
ATOM      8  H   UNL     1      46.964   2.843  14.893  0.00  0.00    +0.000 HD
ENDROOT
BRANCH   5   9
ATOM      9  C   UNL     1      43.436   5.388  10.850  0.00  0.00    +0.000 C 
ATOM     10  N   UNL     1      42.650   6.495  11.022  0.00  0.00    +0.000 N 
ATOM     11  O   UNL     1      43.400   4.766   9.793  0.00  0.00    +0.000 OA
ATOM     12  H   UNL     1      42.487   6.945  11.910  0.00  0.00    +0.000 HD
ATOM     13  H   UNL     1      42.010   6.710  10.267  0.00  0.00    +0.000 HD
ENDBRANCH   5   9
BRANCH   6  14
ATOM     14  N   UNL     1      43.788   2.622  11.750  0.00  0.00    +0.000 N 
ATOM     15  H   UNL     1      43.597   1.905  12.451  0.00  0.00    +0.000 HD
ATOM     16  H   UNL     1      42.958   3.006  11.310  0.00  0.00    +0.000 HD
ENDBRANCH   6  14
BRANCH   1  17
ATOM     17  C   UNL     1      47.527   4.682  15.740  0.00  0.00    +0.000 C 
BRANCH  17  19
ATOM     18  C   UNL     1      47.151   4.641  18.262  0.00  0.00    +0.000 C 
ATOM     19  C   UNL     1      47.759   3.905  17.059  0.00  0.00    +0.000 C 
BRANCH  19  20
ATOM     20  C   UNL     1      49.209   3.480  17.267  0.00  0.00    +0.000 A 
ATOM     21  C   UNL     1      49.577   2.147  17.012  0.00  0.00    +0.000 A 
ATOM     22  C   UNL     1      50.877   1.700  17.261  0.00  0.00    +0.000 A 
ATOM     23  C   UNL     1      51.828   2.584  17.764  0.00  0.00    +0.000 A 
ATOM     24 CL   UNL     1      53.417   2.026  18.114  0.00  0.00    +0.000 Cl
ATOM     25  C   UNL     1      51.495   3.915  17.994  0.00  0.00    +0.000 A 
ATOM     26  C   UNL     1      50.196   4.362  17.738  0.00  0.00    +0.000 A 
ENDBRANCH  19  20
ENDBRANCH  17  19
ENDBRANCH   1  17
TORSDOF 5
ENDMDL
MODEL 9
REMARK VINA RESULT:    -6.622      5.230      7.804
REMARK INTER + INTRA:          -9.163
REMARK INTER:                  -8.536
REMARK INTRA:                  -0.627
REMARK UNBOUND:                -0.799
REMARK  Name = 
REMARK  6 active torsions:
REMARK  status: ('A' for Active; 'I' for Inactive)
REMARK    1  A    between atoms: C_1  and  C_2
REMARK    2  A    between atoms: C_2  and  C_3
REMARK    3  A    between atoms: C_2  and  C_15
REMARK    4  A    between atoms: C_3  and  N_4
REMARK    5  A    between atoms: C_8  and  C_9
REMARK    6  A    between atoms: C_12  and  N_13
REMARK                            x       y       z     vdW  Elec       q    Type
REMARK                         _______ _______ _______ _____ _____    ______ ____
ROOT
ATOM      1  N   UNL     1      46.570   4.898  13.269  0.00  0.00    +0.000 N 
ATOM      2  C   UNL     1      47.099   4.882  14.551  0.00  0.00    +0.000 A 
ATOM      3  N   UNL     1      46.722   3.944  15.431  0.00  0.00    +0.000 NA
ATOM      4  C   UNL     1      47.358   3.935  16.623  0.00  0.00    +0.000 A 
ATOM      5  C   UNL     1      48.335   4.836  16.974  0.00  0.00    +0.000 A 
ATOM      6  C   UNL     1      48.630   5.790  16.014  0.00  0.00    +0.000 A 
ATOM      7  N   UNL     1      48.013   5.823  14.816  0.00  0.00    +0.000 NA
ATOM      8  H   UNL     1      46.733   5.830  12.899  0.00  0.00    +0.000 HD
ENDROOT
BRANCH   5   9
ATOM      9  C   UNL     1      49.108   4.715  18.227  0.00  0.00    +0.000 C 
ATOM     10  N   UNL     1      49.738   3.531  18.494  0.00  0.00    +0.000 N 
ATOM     11  O   UNL     1      49.211   5.657  19.008  0.00  0.00    +0.000 OA
ATOM     12  H   UNL     1      49.556   2.666  18.006  0.00  0.00    +0.000 HD
ATOM     13  H   UNL     1      50.217   3.470  19.384  0.00  0.00    +0.000 HD
ENDBRANCH   5   9
BRANCH   6  14
ATOM     14  N   UNL     1      49.502   6.851  16.261  0.00  0.00    +0.000 N 
ATOM     15  H   UNL     1      49.004   7.690  16.562  0.00  0.00    +0.000 HD
ATOM     16  H   UNL     1      50.234   6.551  16.896  0.00  0.00    +0.000 HD
ENDBRANCH   6  14
BRANCH   1  17
ATOM     17  C   UNL     1      45.208   4.405  13.144  0.00  0.00    +0.000 C 
BRANCH  17  19
ATOM     18  C   UNL     1      42.951   4.993  12.113  0.00  0.00    +0.000 C 
ATOM     19  C   UNL     1      44.475   5.025  11.929  0.00  0.00    +0.000 C 
BRANCH  19  20
ATOM     20  C   UNL     1      44.944   4.470  10.588  0.00  0.00    +0.000 A 
ATOM     21  C   UNL     1      45.638   5.313   9.702  0.00  0.00    +0.000 A 
ATOM     22  C   UNL     1      46.019   4.864   8.434  0.00  0.00    +0.000 A 
ATOM     23  C   UNL     1      45.715   3.564   8.039  0.00  0.00    +0.000 A 
ATOM     24 CL   UNL     1      46.142   3.024   6.464  0.00  0.00    +0.000 Cl
ATOM     25  C   UNL     1      45.056   2.704   8.912  0.00  0.00    +0.000 A 
ATOM     26  C   UNL     1      44.682   3.151  10.182  0.00  0.00    +0.000 A 
ENDBRANCH  19  20
ENDBRANCH  17  19
ENDBRANCH   1  17
TORSDOF 5
ENDMDL
