MODEL 1
REMARK VINA RESULT:    -8.980      0.000      0.000
REMARK INTER + INTRA:         -13.561
REMARK INTER:                 -12.655
REMARK INTRA:                  -0.906
REMARK UNBOUND:                -0.906
REMARK  Name = 
REMARK  7 active torsions:
REMARK  status: ('A' for Active; 'I' for Inactive)
REMARK    1  A    between atoms: C_2  and  C_4
REMARK    2  A    between atoms: C_7  and  N_8
REMARK    3  A    between atoms: N_8  and  C_9
REMARK    4  A    between atoms: C_9  and  C_10
REMARK    5  A    between atoms: C_10  and  C_13
REMARK    6  A    between atoms: C_17  and  O_18
REMARK    7  A    between atoms: O_18  and  C_19
REMARK                            x       y       z     vdW  Elec       q    Type
REMARK                         _______ _______ _______ _____ _____    ______ ____
ROOT
ATOM      1  C   UNL     1      43.365   4.423  11.003  0.00  0.00    +0.000 C 
ENDROOT
BRANCH   1   2
ATOM      2  C   UNL     1      43.514   5.560  12.050  0.00  0.00    +0.000 C 
ATOM      3  F   UNL     1      43.177   6.738  11.431  0.00  0.00    +0.000 F 
ATOM      4  F   UNL     1      42.563   5.392  13.020  0.00  0.00    +0.000 F 
BRANCH   2   5
ATOM      5  C   UNL     1      44.908   5.605  12.637  0.00  0.00    +0.000 A 
ATOM      6  C   UNL     1      45.783   6.654  12.321  0.00  0.00    +0.000 A 
ATOM      7  C   UNL     1      47.061   6.702  12.883  0.00  0.00    +0.000 A 
ATOM      8  C   UNL     1      47.482   5.702  13.765  0.00  0.00    +0.000 A 
ATOM      9  C   UNL     1      46.627   4.648  14.074  0.00  0.00    +0.000 A 
ATOM     10  C   UNL     1      45.345   4.604  13.517  0.00  0.00    +0.000 A 
BRANCH   9  11
ATOM     11  O   UNL     1      46.917   3.627  14.943  0.00  0.00    +0.000 OA
BRANCH  11  12
ATOM     12  C   UNL     1      47.817   3.869  16.048  0.00  0.00    +0.000 C 
ATOM     13  C   UNL     1      48.547   2.642  16.641  0.00  0.00    +0.000 C 
ATOM     14  C   UNL     1      48.110   3.078  18.046  0.00  0.00    +0.000 C 
ATOM     15  C   UNL     1      47.098   4.036  17.409  0.00  0.00    +0.000 C 
ENDBRANCH  11  12
ENDBRANCH   9  11
ENDBRANCH   2   5
ENDBRANCH   1   2
BRANCH   1  16
ATOM     16  N   UNL     1      43.785   4.866   9.655  0.00  0.00    +0.000 N 
ATOM     17  H   UNL     1      44.137   5.821   9.662  0.00  0.00    +0.000 HD
BRANCH  16  21
ATOM     18  C   UNL     1      46.376   2.259   7.827  0.00  0.00    +0.000 A 
ATOM     19  C   UNL     1      46.363   3.601   7.478  0.00  0.00    +0.000 A 
ATOM     20  N   UNL     1      45.505   4.497   8.045  0.00  0.00    +0.000 NA
ATOM     21  C   UNL     1      44.652   4.011   8.971  0.00  0.00    +0.000 A 
ATOM     22  C   UNL     1      44.685   2.649   9.306  0.00  0.00    +0.000 A 
ATOM     23  N   UNL     1      45.526   1.738   8.751  0.00  0.00    +0.000 NA
BRANCH  18  25
ATOM     24  N   UNL     1      48.391   1.939   6.524  0.00  0.00    +0.000 N 
ATOM     25  C   UNL     1      47.361   1.338   7.196  0.00  0.00    +0.000 C 
ATOM     26  O   UNL     1      47.258   0.120   7.269  0.00  0.00    +0.000 OA
ATOM     27  H   UNL     1      49.089   1.368   6.069  0.00  0.00    +0.000 HD
ATOM     28  H   UNL     1      48.454   2.950   6.490  0.00  0.00    +0.000 HD
ENDBRANCH  18  25
ENDBRANCH  16  21
ENDBRANCH   1  16
TORSDOF 7
ENDMDL
MODEL 2
REMARK VINA RESULT:    -7.838      1.904      3.187
REMARK INTER + INTRA:         -11.952
REMARK INTER:                 -11.356
REMARK INTRA:                  -0.596
REMARK UNBOUND:                -0.906
REMARK  Name = 
REMARK  7 active torsions:
REMARK  status: ('A' for Active; 'I' for Inactive)
REMARK    1  A    between atoms: C_2  and  C_4
REMARK    2  A    between atoms: C_7  and  N_8
REMARK    3  A    between atoms: N_8  and  C_9
REMARK    4  A    between atoms: C_9  and  C_10
REMARK    5  A    between atoms: C_10  and  C_13
REMARK    6  A    between atoms: C_17  and  O_18
REMARK    7  A    between atoms: O_18  and  C_19
REMARK                            x       y       z     vdW  Elec       q    Type
REMARK                         _______ _______ _______ _____ _____    ______ ____
ROOT
ATOM      1  C   UNL     1      43.392   4.471  11.007  0.00  0.00    +0.000 C 
ENDROOT
BRANCH   1   2
ATOM      2  C   UNL     1      43.580   5.611  12.044  0.00  0.00    +0.000 C 
ATOM      3  F   UNL     1      43.403   6.802  11.383  0.00  0.00    +0.000 F 
ATOM      4  F   UNL     1      42.553   5.558  12.946  0.00  0.00    +0.000 F 
BRANCH   2   5
ATOM      5  C   UNL     1      44.929   5.535  12.726  0.00  0.00    +0.000 A 
ATOM      6  C   UNL     1      45.498   4.296  13.049  0.00  0.00    +0.000 A 
ATOM      7  C   UNL     1      46.753   4.232  13.658  0.00  0.00    +0.000 A 
ATOM      8  C   UNL     1      47.453   5.405  13.956  0.00  0.00    +0.000 A 
ATOM      9  C   UNL     1      46.892   6.642  13.653  0.00  0.00    +0.000 A 
ATOM     10  C   UNL     1      45.638   6.706  13.036  0.00  0.00    +0.000 A 
BRANCH   9  11
ATOM     11  O   UNL     1      47.492   7.856  13.871  0.00  0.00    +0.000 OA
BRANCH  11  12
ATOM     12  C   UNL     1      48.726   8.171  13.188  0.00  0.00    +0.000 C 
ATOM     13  C   UNL     1      48.613   8.937  11.850  0.00  0.00    +0.000 C 
ATOM     14  C   UNL     1      49.540   7.903  11.195  0.00  0.00    +0.000 C 
ATOM     15  C   UNL     1      49.320   6.980  12.398  0.00  0.00    +0.000 C 
ENDBRANCH  11  12
ENDBRANCH   9  11
ENDBRANCH   2   5
ENDBRANCH   1   2
BRANCH   1  16
ATOM     16  N   UNL     1      43.869   4.871   9.664  0.00  0.00    +0.000 N 
ATOM     17  H   UNL     1      44.300   5.794   9.674  0.00  0.00    +0.000 HD
BRANCH  16  21
ATOM     18  C   UNL     1      46.257   2.047   7.883  0.00  0.00    +0.000 A 
ATOM     19  C   UNL     1      46.374   3.386   7.543  0.00  0.00    +0.000 A 
ATOM     20  N   UNL     1      45.588   4.354   8.094  0.00  0.00    +0.000 NA
ATOM     21  C   UNL     1      44.671   3.944   8.996  0.00  0.00    +0.000 A 
ATOM     22  C   UNL     1      44.572   2.583   9.324  0.00  0.00    +0.000 A 
ATOM     23  N   UNL     1      45.340   1.601   8.783  0.00  0.00    +0.000 NA
BRANCH  18  25
ATOM     24  N   UNL     1      46.953  -0.258   7.637  0.00  0.00    +0.000 N 
ATOM     25  C   UNL     1      47.169   1.042   7.270  0.00  0.00    +0.000 C 
ATOM     26  O   UNL     1      48.058   1.357   6.489  0.00  0.00    +0.000 OA
ATOM     27  H   UNL     1      47.543  -0.986   7.260  0.00  0.00    +0.000 HD
ATOM     28  H   UNL     1      46.202  -0.487   8.279  0.00  0.00    +0.000 HD
ENDBRANCH  18  25
ENDBRANCH  16  21
ENDBRANCH   1  16
TORSDOF 7
ENDMDL
MODEL 3
REMARK VINA RESULT:    -7.619      3.269      7.459
REMARK INTER + INTRA:         -11.644
REMARK INTER:                 -10.739
REMARK INTRA:                  -0.904
REMARK UNBOUND:                -0.906
REMARK  Name = 
REMARK  7 active torsions:
REMARK  status: ('A' for Active; 'I' for Inactive)
REMARK    1  A    between atoms: C_2  and  C_4
REMARK    2  A    between atoms: C_7  and  N_8
REMARK    3  A    between atoms: N_8  and  C_9
REMARK    4  A    between atoms: C_9  and  C_10
REMARK    5  A    between atoms: C_10  and  C_13
REMARK    6  A    between atoms: C_17  and  O_18
REMARK    7  A    between atoms: O_18  and  C_19
REMARK                            x       y       z     vdW  Elec       q    Type
REMARK                         _______ _______ _______ _____ _____    ______ ____
ROOT
ATOM      1  C   UNL     1      46.816   6.340  12.173  0.00  0.00    +0.000 C 
ENDROOT
BRANCH   1   2
ATOM      2  C   UNL     1      45.329   6.331  11.726  0.00  0.00    +0.000 C 
ATOM      3  F   UNL     1      44.558   6.470  12.854  0.00  0.00    +0.000 F 
ATOM      4  F   UNL     1      45.083   7.460  10.994  0.00  0.00    +0.000 F 
BRANCH   2   5
ATOM      5  C   UNL     1      44.982   5.077  10.953  0.00  0.00    +0.000 A 
ATOM      6  C   UNL     1      44.309   4.016  11.575  0.00  0.00    +0.000 A 
ATOM      7  C   UNL     1      43.971   2.871  10.849  0.00  0.00    +0.000 A 
ATOM      8  C   UNL     1      44.305   2.770   9.496  0.00  0.00    +0.000 A 
ATOM      9  C   UNL     1      44.986   3.811   8.871  0.00  0.00    +0.000 A 
ATOM     10  C   UNL     1      45.317   4.960   9.595  0.00  0.00    +0.000 A 
BRANCH   9  11
ATOM     11  O   UNL     1      45.342   3.837   7.546  0.00  0.00    +0.000 OA
BRANCH  11  12
ATOM     12  C   UNL     1      46.699   3.513   7.170  0.00  0.00    +0.000 C 
ATOM     13  C   UNL     1      46.969   3.252   5.670  0.00  0.00    +0.000 C 
ATOM     14  C   UNL     1      47.693   1.951   6.041  0.00  0.00    +0.000 C 
ATOM     15  C   UNL     1      47.085   2.040   7.444  0.00  0.00    +0.000 C 
ENDBRANCH  11  12
ENDBRANCH   9  11
ENDBRANCH   2   5
ENDBRANCH   1   2
BRANCH   1  16
ATOM     16  N   UNL     1      46.958   6.765  13.583  0.00  0.00    +0.000 N 
ATOM     17  H   UNL     1      46.109   7.206  13.934  0.00  0.00    +0.000 HD
BRANCH  16  21
ATOM     18  C   UNL     1      48.160   3.830  16.189  0.00  0.00    +0.000 A 
ATOM     19  C   UNL     1      48.531   5.151  16.394  0.00  0.00    +0.000 A 
ATOM     20  N   UNL     1      48.171   6.153  15.543  0.00  0.00    +0.000 NA
ATOM     21  C   UNL     1      47.431   5.798  14.472  0.00  0.00    +0.000 A 
ATOM     22  C   UNL     1      47.069   4.455  14.286  0.00  0.00    +0.000 A 
ATOM     23  N   UNL     1      47.421   3.439  15.118  0.00  0.00    +0.000 NA
BRANCH  18  25
ATOM     24  N   UNL     1      49.282   1.740  16.672  0.00  0.00    +0.000 N 
ATOM     25  C   UNL     1      48.556   2.786  17.174  0.00  0.00    +0.000 C 
ATOM     26  O   UNL     1      48.251   2.855  18.358  0.00  0.00    +0.000 OA
ATOM     27  H   UNL     1      49.576   0.997  17.289  0.00  0.00    +0.000 HD
ATOM     28  H   UNL     1      49.527   1.718  15.688  0.00  0.00    +0.000 HD
ENDBRANCH  18  25
ENDBRANCH  16  21
ENDBRANCH   1  16
TORSDOF 7
ENDMDL
MODEL 4
REMARK VINA RESULT:    -6.731      2.173      2.926
REMARK INTER + INTRA:         -10.392
REMARK INTER:                  -9.778
REMARK INTRA:                  -0.614
REMARK UNBOUND:                -0.906
REMARK  Name = 
REMARK  7 active torsions:
REMARK  status: ('A' for Active; 'I' for Inactive)
REMARK    1  A    between atoms: C_2  and  C_4
REMARK    2  A    between atoms: C_7  and  N_8
REMARK    3  A    between atoms: N_8  and  C_9
REMARK    4  A    between atoms: C_9  and  C_10
REMARK    5  A    between atoms: C_10  and  C_13
REMARK    6  A    between atoms: C_17  and  O_18
REMARK    7  A    between atoms: O_18  and  C_19
REMARK                            x       y       z     vdW  Elec       q    Type
REMARK                         _______ _______ _______ _____ _____    ______ ____
ROOT
ATOM      1  C   UNL     1      44.301   5.771  10.716  0.00  0.00    +0.000 C 
ENDROOT
BRANCH   1   2
ATOM      2  C   UNL     1      44.854   5.812  12.166  0.00  0.00    +0.000 C 
ATOM      3  F   UNL     1      43.779   5.898  13.015  0.00  0.00    +0.000 F 
ATOM      4  F   UNL     1      45.429   4.604  12.452  0.00  0.00    +0.000 F 
BRANCH   2   5
ATOM      5  C   UNL     1      45.827   6.955  12.365  0.00  0.00    +0.000 A 
ATOM      6  C   UNL     1      45.386   8.285  12.320  0.00  0.00    +0.000 A 
ATOM      7  C   UNL     1      46.285   9.334  12.527  0.00  0.00    +0.000 A 
ATOM      8  C   UNL     1      47.634   9.068  12.777  0.00  0.00    +0.000 A 
ATOM      9  C   UNL     1      48.086   7.752  12.809  0.00  0.00    +0.000 A 
ATOM     10  C   UNL     1      47.185   6.701  12.609  0.00  0.00    +0.000 A 
BRANCH   9  11
ATOM     11  O   UNL     1      49.377   7.367  13.070  0.00  0.00    +0.000 OA
BRANCH  11  12
ATOM     12  C   UNL     1      49.852   7.357  14.434  0.00  0.00    +0.000 C 
ATOM     13  C   UNL     1      48.906   6.762  15.503  0.00  0.00    +0.000 C 
ATOM     14  C   UNL     1      49.117   8.014  16.366  0.00  0.00    +0.000 C 
ATOM     15  C   UNL     1      49.718   8.723  15.149  0.00  0.00    +0.000 C 
ENDBRANCH  11  12
ENDBRANCH   9  11
ENDBRANCH   2   5
ENDBRANCH   1   2
BRANCH   1  16
ATOM     16  N   UNL     1      43.903   4.401  10.324  0.00  0.00    +0.000 N 
ATOM     17  H   UNL     1      42.957   4.374   9.947  0.00  0.00    +0.000 HD
BRANCH  16  21
ATOM     18  C   UNL     1      46.473   2.507   7.743  0.00  0.00    +0.000 A 
ATOM     19  C   UNL     1      45.719   1.778   8.650  0.00  0.00    +0.000 A 
ATOM     20  N   UNL     1      44.869   2.367   9.538  0.00  0.00    +0.000 NA
ATOM     21  C   UNL     1      44.797   3.714   9.500  0.00  0.00    +0.000 A 
ATOM     22  C   UNL     1      45.570   4.430   8.573  0.00  0.00    +0.000 A 
ATOM     23  N   UNL     1      46.428   3.864   7.684  0.00  0.00    +0.000 NA
BRANCH  18  25
ATOM     24  N   UNL     1      48.375   2.549   6.246  0.00  0.00    +0.000 N 
ATOM     25  C   UNL     1      47.358   1.802   6.776  0.00  0.00    +0.000 C 
ATOM     26  O   UNL     1      47.188   0.629   6.469  0.00  0.00    +0.000 OA
ATOM     27  H   UNL     1      49.006   2.129   5.579  0.00  0.00    +0.000 HD
ATOM     28  H   UNL     1      48.495   3.516   6.528  0.00  0.00    +0.000 HD
ENDBRANCH  18  25
ENDBRANCH  16  21
ENDBRANCH   1  16
TORSDOF 7
ENDMDL
MODEL 5
REMARK VINA RESULT:    -6.567      3.375      7.476
REMARK INTER + INTRA:         -10.161
REMARK INTER:                  -9.607
REMARK INTRA:                  -0.553
REMARK UNBOUND:                -0.906
REMARK  Name = 
REMARK  7 active torsions:
REMARK  status: ('A' for Active; 'I' for Inactive)
REMARK    1  A    between atoms: C_2  and  C_4
REMARK    2  A    between atoms: C_7  and  N_8
REMARK    3  A    between atoms: N_8  and  C_9
REMARK    4  A    between atoms: C_9  and  C_10
REMARK    5  A    between atoms: C_10  and  C_13
REMARK    6  A    between atoms: C_17  and  O_18
REMARK    7  A    between atoms: O_18  and  C_19
REMARK                            x       y       z     vdW  Elec       q    Type
REMARK                         _______ _______ _______ _____ _____    ______ ____
ROOT
ATOM      1  C   UNL     1      44.245   3.767  13.361  0.00  0.00    +0.000 C 
ENDROOT
BRANCH   1   2
ATOM      2  C   UNL     1      43.497   3.808  12.001  0.00  0.00    +0.000 C 
ATOM      3  F   UNL     1      43.027   2.543  11.750  0.00  0.00    +0.000 F 
ATOM      4  F   UNL     1      42.373   4.576  12.141  0.00  0.00    +0.000 F 
BRANCH   2   5
ATOM      5  C   UNL     1      44.385   4.316  10.886  0.00  0.00    +0.000 A 
ATOM      6  C   UNL     1      44.932   5.605  10.937  0.00  0.00    +0.000 A 
ATOM      7  C   UNL     1      45.769   6.059   9.915  0.00  0.00    +0.000 A 
ATOM      8  C   UNL     1      46.068   5.233   8.828  0.00  0.00    +0.000 A 
ATOM      9  C   UNL     1      45.519   3.955   8.759  0.00  0.00    +0.000 A 
ATOM     10  C   UNL     1      44.687   3.498   9.786  0.00  0.00    +0.000 A 
BRANCH   9  11
ATOM     11  O   UNL     1      45.759   3.047   7.760  0.00  0.00    +0.000 OA
BRANCH  11  12
ATOM     12  C   UNL     1      46.920   3.212   6.914  0.00  0.00    +0.000 C 
ATOM     13  C   UNL     1      46.706   3.059   5.391  0.00  0.00    +0.000 C 
ATOM     14  C   UNL     1      47.894   2.089   5.335  0.00  0.00    +0.000 C 
ATOM     15  C   UNL     1      47.831   1.962   6.861  0.00  0.00    +0.000 C 
ENDBRANCH  11  12
ENDBRANCH   9  11
ENDBRANCH   2   5
ENDBRANCH   1   2
BRANCH   1  16
ATOM     16  N   UNL     1      45.700   3.572  13.177  0.00  0.00    +0.000 N 
ATOM     17  H   UNL     1      45.980   3.698  12.206  0.00  0.00    +0.000 HD
BRANCH  16  21
ATOM     18  C   UNL     1      48.281   5.691  15.565  0.00  0.00    +0.000 A 
ATOM     19  C   UNL     1      47.555   4.628  16.080  0.00  0.00    +0.000 A 
ATOM     20  N   UNL     1      46.672   3.910  15.328  0.00  0.00    +0.000 NA
ATOM     21  C   UNL     1      46.529   4.290  14.041  0.00  0.00    +0.000 A 
ATOM     22  C   UNL     1      47.274   5.370  13.543  0.00  0.00    +0.000 A 
ATOM     23  N   UNL     1      48.155   6.102  14.276  0.00  0.00    +0.000 NA
BRANCH  18  25
ATOM     24  N   UNL     1      50.374   5.708  16.781  0.00  0.00    +0.000 N 
ATOM     25  C   UNL     1      49.255   6.413  16.429  0.00  0.00    +0.000 C 
ATOM     26  O   UNL     1      49.069   7.564  16.804  0.00  0.00    +0.000 OA
ATOM     27  H   UNL     1      51.069   6.141  17.371  0.00  0.00    +0.000 HD
ATOM     28  H   UNL     1      50.503   4.760  16.446  0.00  0.00    +0.000 HD
ENDBRANCH  18  25
ENDBRANCH  16  21
ENDBRANCH   1  16
TORSDOF 7
ENDMDL
MODEL 6
REMARK VINA RESULT:    -6.455      4.332      8.462
REMARK INTER + INTRA:         -10.003
REMARK INTER:                  -9.250
REMARK INTRA:                  -0.753
REMARK UNBOUND:                -0.906
REMARK  Name = 
REMARK  7 active torsions:
REMARK  status: ('A' for Active; 'I' for Inactive)
REMARK    1  A    between atoms: C_2  and  C_4
REMARK    2  A    between atoms: C_7  and  N_8
REMARK    3  A    between atoms: N_8  and  C_9
REMARK    4  A    between atoms: C_9  and  C_10
REMARK    5  A    between atoms: C_10  and  C_13
REMARK    6  A    between atoms: C_17  and  O_18
REMARK    7  A    between atoms: O_18  and  C_19
REMARK                            x       y       z     vdW  Elec       q    Type
REMARK                         _______ _______ _______ _____ _____    ______ ____
ROOT
ATOM      1  C   UNL     1      47.275   5.769  13.208  0.00  0.00    +0.000 C 
ENDROOT
BRANCH   1   2
ATOM      2  C   UNL     1      46.437   6.559  12.167  0.00  0.00    +0.000 C 
ATOM      3  F   UNL     1      45.701   7.493  12.854  0.00  0.00    +0.000 F 
ATOM      4  F   UNL     1      47.286   7.292  11.384  0.00  0.00    +0.000 F 
BRANCH   2   5
ATOM      5  C   UNL     1      45.562   5.644  11.338  0.00  0.00    +0.000 A 
ATOM      6  C   UNL     1      44.427   5.040  11.897  0.00  0.00    +0.000 A 
ATOM      7  C   UNL     1      43.610   4.215  11.120  0.00  0.00    +0.000 A 
ATOM      8  C   UNL     1      43.920   3.980   9.777  0.00  0.00    +0.000 A 
ATOM      9  C   UNL     1      45.052   4.563   9.215  0.00  0.00    +0.000 A 
ATOM     10  C   UNL     1      45.865   5.394   9.991  0.00  0.00    +0.000 A 
BRANCH   9  11
ATOM     11  O   UNL     1      45.442   4.428   7.907  0.00  0.00    +0.000 OA
BRANCH  11  12
ATOM     12  C   UNL     1      46.613   3.641   7.593  0.00  0.00    +0.000 C 
ATOM     13  C   UNL     1      46.778   3.182   6.126  0.00  0.00    +0.000 C 
ATOM     14  C   UNL     1      47.028   1.749   6.616  0.00  0.00    +0.000 C 
ATOM     15  C   UNL     1      46.485   2.151   7.991  0.00  0.00    +0.000 C 
ENDBRANCH  11  12
ENDBRANCH   9  11
ENDBRANCH   2   5
ENDBRANCH   1   2
BRANCH   1  16
ATOM     16  N   UNL     1      48.254   6.641  13.894  0.00  0.00    +0.000 N 
ATOM     17  H   UNL     1      48.075   7.627  13.715  0.00  0.00    +0.000 HD
BRANCH  16  21
ATOM     18  C   UNL     1      48.985   6.042  17.889  0.00  0.00    +0.000 A 
ATOM     19  C   UNL     1      48.527   5.004  17.092  0.00  0.00    +0.000 A 
ATOM     20  N   UNL     1      48.252   5.163  15.766  0.00  0.00    +0.000 NA
ATOM     21  C   UNL     1      48.443   6.399  15.256  0.00  0.00    +0.000 A 
ATOM     22  C   UNL     1      48.907   7.433  16.083  0.00  0.00    +0.000 A 
ATOM     23  N   UNL     1      49.181   7.298  17.407  0.00  0.00    +0.000 NA
BRANCH  18  25
ATOM     24  N   UNL     1      50.093   6.732  19.928  0.00  0.00    +0.000 N 
ATOM     25  C   UNL     1      49.300   5.795  19.323  0.00  0.00    +0.000 C 
ATOM     26  O   UNL     1      48.879   4.815  19.926  0.00  0.00    +0.000 OA
ATOM     27  H   UNL     1      50.346   6.617  20.898  0.00  0.00    +0.000 HD
ATOM     28  H   UNL     1      50.417   7.537  19.404  0.00  0.00    +0.000 HD
ENDBRANCH  18  25
ENDBRANCH  16  21
ENDBRANCH   1  16
TORSDOF 7
ENDMDL
MODEL 7
REMARK VINA RESULT:    -6.423      4.067      7.739
REMARK INTER + INTRA:          -9.957
REMARK INTER:                  -9.161
REMARK INTRA:                  -0.796
REMARK UNBOUND:                -0.906
REMARK  Name = 
REMARK  7 active torsions:
REMARK  status: ('A' for Active; 'I' for Inactive)
REMARK    1  A    between atoms: C_2  and  C_4
REMARK    2  A    between atoms: C_7  and  N_8
REMARK    3  A    between atoms: N_8  and  C_9
REMARK    4  A    between atoms: C_9  and  C_10
REMARK    5  A    between atoms: C_10  and  C_13
REMARK    6  A    between atoms: C_17  and  O_18
REMARK    7  A    between atoms: O_18  and  C_19
REMARK                            x       y       z     vdW  Elec       q    Type
REMARK                         _______ _______ _______ _____ _____    ______ ____
ROOT
ATOM      1  C   UNL     1      45.967   6.325  12.988  0.00  0.00    +0.000 C 
ENDROOT
BRANCH   1   2
ATOM      2  C   UNL     1      45.542   6.210  11.499  0.00  0.00    +0.000 C 
ATOM      3  F   UNL     1      44.653   7.226  11.246  0.00  0.00    +0.000 F 
ATOM      4  F   UNL     1      46.624   6.490  10.710  0.00  0.00    +0.000 F 
BRANCH   2   5
ATOM      5  C   UNL     1      44.955   4.851  11.184  0.00  0.00    +0.000 A 
ATOM      6  C   UNL     1      44.101   4.212  12.094  0.00  0.00    +0.000 A 
ATOM      7  C   UNL     1      43.545   2.969  11.787  0.00  0.00    +0.000 A 
ATOM      8  C   UNL     1      43.838   2.346  10.570  0.00  0.00    +0.000 A 
ATOM      9  C   UNL     1      44.696   2.964   9.665  0.00  0.00    +0.000 A 
ATOM     10  C   UNL     1      45.246   4.213   9.969  0.00  0.00    +0.000 A 
BRANCH   9  11
ATOM     11  O   UNL     1      45.035   2.465   8.433  0.00  0.00    +0.000 OA
BRANCH  11  12
ATOM     12  C   UNL     1      46.373   2.674   7.927  0.00  0.00    +0.000 C 
ATOM     13  C   UNL     1      46.502   3.305   6.522  0.00  0.00    +0.000 C 
ATOM     14  C   UNL     1      47.471   2.184   6.122  0.00  0.00    +0.000 C 
ATOM     15  C   UNL     1      47.028   1.393   7.357  0.00  0.00    +0.000 C 
ENDBRANCH  11  12
ENDBRANCH   9  11
ENDBRANCH   2   5
ENDBRANCH   1   2
BRANCH   1  16
ATOM     16  N   UNL     1      46.339   7.712  13.344  0.00  0.00    +0.000 N 
ATOM     17  H   UNL     1      45.732   8.094  14.067  0.00  0.00    +0.000 HD
BRANCH  16  21
ATOM     18  C   UNL     1      50.268   8.245  14.410  0.00  0.00    +0.000 A 
ATOM     19  C   UNL     1      49.548   9.278  13.826  0.00  0.00    +0.000 A 
ATOM     20  N   UNL     1      48.249   9.137  13.438  0.00  0.00    +0.000 NA
ATOM     21  C   UNL     1      47.685   7.928  13.645  0.00  0.00    +0.000 A 
ATOM     22  C   UNL     1      48.434   6.900  14.237  0.00  0.00    +0.000 A 
ATOM     23  N   UNL     1      49.731   7.015  14.626  0.00  0.00    +0.000 NA
BRANCH  18  25
ATOM     24  N   UNL     1      52.473   7.362  14.871  0.00  0.00    +0.000 N 
ATOM     25  C   UNL     1      51.674   8.472  14.843  0.00  0.00    +0.000 C 
ATOM     26  O   UNL     1      52.091   9.580  15.156  0.00  0.00    +0.000 OA
ATOM     27  H   UNL     1      53.436   7.450  15.162  0.00  0.00    +0.000 HD
ATOM     28  H   UNL     1      52.100   6.460  14.597  0.00  0.00    +0.000 HD
ENDBRANCH  18  25
ENDBRANCH  16  21
ENDBRANCH   1  16
TORSDOF 7
ENDMDL
MODEL 8
REMARK VINA RESULT:    -6.419      4.720      8.155
REMARK INTER + INTRA:          -9.952
REMARK INTER:                  -9.099
REMARK INTRA:                  -0.853
REMARK UNBOUND:                -0.906
REMARK  Name = 
REMARK  7 active torsions:
REMARK  status: ('A' for Active; 'I' for Inactive)
REMARK    1  A    between atoms: C_2  and  C_4
REMARK    2  A    between atoms: C_7  and  N_8
REMARK    3  A    between atoms: N_8  and  C_9
REMARK    4  A    between atoms: C_9  and  C_10
REMARK    5  A    between atoms: C_10  and  C_13
REMARK    6  A    between atoms: C_17  and  O_18
REMARK    7  A    between atoms: O_18  and  C_19
REMARK                            x       y       z     vdW  Elec       q    Type
REMARK                         _______ _______ _______ _____ _____    ______ ____
ROOT
ATOM      1  C   UNL     1      47.521   5.838  13.410  0.00  0.00    +0.000 C 
ENDROOT
BRANCH   1   2
ATOM      2  C   UNL     1      46.536   4.648  13.562  0.00  0.00    +0.000 C 
ATOM      3  F   UNL     1      47.277   3.493  13.530  0.00  0.00    +0.000 F 
ATOM      4  F   UNL     1      45.996   4.681  14.819  0.00  0.00    +0.000 F 
BRANCH   2   5
ATOM      5  C   UNL     1      45.465   4.665  12.493  0.00  0.00    +0.000 A 
ATOM      6  C   UNL     1      44.107   4.624  12.840  0.00  0.00    +0.000 A 
ATOM      7  C   UNL     1      43.123   4.663  11.850  0.00  0.00    +0.000 A 
ATOM      8  C   UNL     1      43.482   4.738  10.501  0.00  0.00    +0.000 A 
ATOM      9  C   UNL     1      44.827   4.764  10.143  0.00  0.00    +0.000 A 
ATOM     10  C   UNL     1      45.812   4.733  11.135  0.00  0.00    +0.000 A 
BRANCH   9  11
ATOM     11  O   UNL     1      45.301   4.863   8.859  0.00  0.00    +0.000 OA
BRANCH  11  12
ATOM     12  C   UNL     1      45.271   3.701   8.000  0.00  0.00    +0.000 C 
ATOM     13  C   UNL     1      45.538   2.330   8.664  0.00  0.00    +0.000 C 
ATOM     14  C   UNL     1      46.574   2.020   7.576  0.00  0.00    +0.000 C 
ATOM     15  C   UNL     1      46.570   3.501   7.183  0.00  0.00    +0.000 C 
ENDBRANCH  11  12
ENDBRANCH   9  11
ENDBRANCH   2   5
ENDBRANCH   1   2
BRANCH   1  16
ATOM     16  N   UNL     1      47.606   6.637  14.653  0.00  0.00    +0.000 N 
ATOM     17  H   UNL     1      46.748   6.582  15.199  0.00  0.00    +0.000 HD
BRANCH  16  21
ATOM     18  C   UNL     1      51.029   5.995  16.826  0.00  0.00    +0.000 A 
ATOM     19  C   UNL     1      49.885   5.253  17.077  0.00  0.00    +0.000 A 
ATOM     20  N   UNL     1      48.721   5.447  16.393  0.00  0.00    +0.000 NA
ATOM     21  C   UNL     1      48.730   6.414  15.451  0.00  0.00    +0.000 A 
ATOM     22  C   UNL     1      49.900   7.152  15.216  0.00  0.00    +0.000 A 
ATOM     23  N   UNL     1      51.068   6.979  15.889  0.00  0.00    +0.000 NA
BRANCH  18  25
ATOM     24  N   UNL     1      52.773   6.750  18.325  0.00  0.00    +0.000 N 
ATOM     25  C   UNL     1      52.279   5.712  17.584  0.00  0.00    +0.000 C 
ATOM     26  O   UNL     1      52.833   4.620  17.547  0.00  0.00    +0.000 OA
ATOM     27  H   UNL     1      53.622   6.622  18.857  0.00  0.00    +0.000 HD
ATOM     28  H   UNL     1      52.286   7.639  18.343  0.00  0.00    +0.000 HD
ENDBRANCH  18  25
ENDBRANCH  16  21
ENDBRANCH   1  16
TORSDOF 7
ENDMDL
MODEL 9
REMARK VINA RESULT:    -6.355      4.333      6.717
REMARK INTER + INTRA:          -9.862
REMARK INTER:                  -9.130
REMARK INTRA:                  -0.732
REMARK UNBOUND:                -0.906
REMARK  Name = 
REMARK  7 active torsions:
REMARK  status: ('A' for Active; 'I' for Inactive)
REMARK    1  A    between atoms: C_2  and  C_4
REMARK    2  A    between atoms: C_7  and  N_8
REMARK    3  A    between atoms: N_8  and  C_9
REMARK    4  A    between atoms: C_9  and  C_10
REMARK    5  A    between atoms: C_10  and  C_13
REMARK    6  A    between atoms: C_17  and  O_18
REMARK    7  A    between atoms: O_18  and  C_19
REMARK                            x       y       z     vdW  Elec       q    Type
REMARK                         _______ _______ _______ _____ _____    ______ ____
ROOT
ATOM      1  C   UNL     1      47.385   3.923  15.929  0.00  0.00    +0.000 C 
ENDROOT
BRANCH   1   2
ATOM      2  C   UNL     1      47.979   2.938  16.972  0.00  0.00    +0.000 C 
ATOM      3  F   UNL     1      46.930   2.405  17.680  0.00  0.00    +0.000 F 
ATOM      4  F   UNL     1      48.527   1.873  16.309  0.00  0.00    +0.000 F 
BRANCH   2   5
ATOM      5  C   UNL     1      48.988   3.614  17.874  0.00  0.00    +0.000 A 
ATOM      6  C   UNL     1      48.586   4.210  19.078  0.00  0.00    +0.000 A 
ATOM      7  C   UNL     1      49.525   4.812  19.917  0.00  0.00    +0.000 A 
ATOM      8  C   UNL     1      50.878   4.831  19.564  0.00  0.00    +0.000 A 
ATOM      9  C   UNL     1      51.287   4.256  18.364  0.00  0.00    +0.000 A 
ATOM     10  C   UNL     1      50.348   3.646  17.528  0.00  0.00    +0.000 A 
BRANCH   9  11
ATOM     11  O   UNL     1      52.585   4.190  17.924  0.00  0.00    +0.000 OA
BRANCH  11  12
ATOM     12  C   UNL     1      53.332   2.965  18.099  0.00  0.00    +0.000 C 
ATOM     13  C   UNL     1      53.940   2.707  19.496  0.00  0.00    +0.000 C 
ATOM     14  C   UNL     1      55.293   2.404  18.837  0.00  0.00    +0.000 C 
ATOM     15  C   UNL     1      54.773   3.032  17.539  0.00  0.00    +0.000 C 
ENDBRANCH  11  12
ENDBRANCH   9  11
ENDBRANCH   2   5
ENDBRANCH   1   2
BRANCH   1  16
ATOM     16  N   UNL     1      47.423   3.357  14.562  0.00  0.00    +0.000 N 
ATOM     17  H   UNL     1      47.474   2.340  14.574  0.00  0.00    +0.000 HD
BRANCH  16  21
ATOM     18  C   UNL     1      44.431   4.788  12.142  0.00  0.00    +0.000 A 
ATOM     19  C   UNL     1      44.811   3.455  12.082  0.00  0.00    +0.000 A 
ATOM     20  N   UNL     1      45.813   2.943  12.852  0.00  0.00    +0.000 NA
ATOM     21  C   UNL     1      46.432   3.806  13.686  0.00  0.00    +0.000 A 
ATOM     22  C   UNL     1      46.030   5.149  13.729  0.00  0.00    +0.000 A 
ATOM     23  N   UNL     1      45.039   5.682  12.966  0.00  0.00    +0.000 NA
BRANCH  18  25
ATOM     24  N   UNL     1      42.322   5.961  11.960  0.00  0.00    +0.000 N 
ATOM     25  C   UNL     1      43.306   5.278  11.299  0.00  0.00    +0.000 C 
ATOM     26  O   UNL     1      43.260   5.082  10.092  0.00  0.00    +0.000 OA
ATOM     27  H   UNL     1      41.529   6.314  11.445  0.00  0.00    +0.000 HD
ATOM     28  H   UNL     1      42.394   6.116  12.960  0.00  0.00    +0.000 HD
ENDBRANCH  18  25
ENDBRANCH  16  21
ENDBRANCH   1  16
TORSDOF 7
ENDMDL
