MODEL 1
REMARK VINA RESULT:    -7.608      0.000      0.000
REMARK INTER + INTRA:          -9.722
REMARK INTER:                  -9.164
REMARK INTRA:                  -0.558
REMARK UNBOUND:                -0.558
REMARK  Name = 
REMARK  5 active torsions:
REMARK  status: ('A' for Active; 'I' for Inactive)
REMARK    1  A    between atoms: C_1  and  C_2
REMARK    2  A    between atoms: C_5  and  C_6
REMARK    3  A    between atoms: C_6  and  N_7
REMARK    4  A    between atoms: C_12  and  C_13
REMARK    5  A    between atoms: C_13  and  O_15
REMARK                            x       y       z     vdW  Elec       q    Type
REMARK                         _______ _______ _______ _____ _____    ______ ____
ROOT
ATOM      1  N   UNL     1      44.874   3.765  11.397  0.00  0.00    +0.000 N 
ATOM      2  C   UNL     1      45.506   2.995  12.344  0.00  0.00    +0.000 A 
ATOM      3  C   UNL     1      46.136   3.839  13.227  0.00  0.00    +0.000 A 
ATOM      4  C   UNL     1      45.885   5.171  12.805  0.00  0.00    +0.000 A 
ATOM      5  C   UNL     1      46.295   6.431  13.283  0.00  0.00    +0.000 A 
ATOM      6  C   UNL     1      45.888   7.597  12.615  0.00  0.00    +0.000 A 
ATOM      7  C   UNL     1      45.062   7.510  11.489  0.00  0.00    +0.000 A 
ATOM      8  C   UNL     1      44.629   6.265  11.009  0.00  0.00    +0.000 A 
ATOM      9  C   UNL     1      45.071   5.107  11.669  0.00  0.00    +0.000 A 
ENDROOT
BRANCH   6  10
ATOM     10  C   UNL     1      46.435   8.889  13.115  0.00  0.00    +0.000 C 
ATOM     11  O   UNL     1      46.554   9.870  12.405  0.00  0.00    +0.000 OA
BRANCH  10  12
ATOM     12  O   UNL     1      46.816   8.877  14.410  0.00  0.00    +0.000 OA
ATOM     13  H   UNL     1      46.548   8.093  14.921  0.00  0.00    +0.000 HD
ENDBRANCH  10  12
ENDBRANCH   6  10
BRANCH   1  14
ATOM     14  C   UNL     1      44.176   3.217  10.235  0.00  0.00    +0.000 C 
BRANCH  14  19
ATOM     15  C   UNL     1      47.632   2.542   5.670  0.00  0.00    +0.000 C 
ATOM     16  C   UNL     1      46.722   2.648   6.856  0.00  0.00    +0.000 A 
ATOM     17  C   UNL     1      46.501   1.554   7.682  0.00  0.00    +0.000 A 
ATOM     18  C   UNL     1      45.660   1.698   8.783  0.00  0.00    +0.000 A 
ATOM     19  C   UNL     1      45.058   2.930   9.050  0.00  0.00    +0.000 A 
ATOM     20  C   UNL     1      45.326   3.961   8.152  0.00  0.00    +0.000 A 
ATOM     21  N   UNL     1      46.134   3.847   7.072  0.00  0.00    +0.000 NA
ENDBRANCH  14  19
ENDBRANCH   1  14
TORSDOF 4
ENDMDL
MODEL 2
REMARK VINA RESULT:    -7.481      2.023      3.076
REMARK INTER + INTRA:          -9.570
REMARK INTER:                  -9.006
REMARK INTRA:                  -0.564
REMARK UNBOUND:                -0.558
REMARK  Name = 
REMARK  5 active torsions:
REMARK  status: ('A' for Active; 'I' for Inactive)
REMARK    1  A    between atoms: C_1  and  C_2
REMARK    2  A    between atoms: C_5  and  C_6
REMARK    3  A    between atoms: C_6  and  N_7
REMARK    4  A    between atoms: C_12  and  C_13
REMARK    5  A    between atoms: C_13  and  O_15
REMARK                            x       y       z     vdW  Elec       q    Type
REMARK                         _______ _______ _______ _____ _____    ______ ____
ROOT
ATOM      1  N   UNL     1      44.654   5.082  11.000  0.00  0.00    +0.000 N 
ATOM      2  C   UNL     1      44.496   6.447  11.023  0.00  0.00    +0.000 A 
ATOM      3  C   UNL     1      45.128   6.929  12.145  0.00  0.00    +0.000 A 
ATOM      4  C   UNL     1      45.688   5.821  12.834  0.00  0.00    +0.000 A 
ATOM      5  C   UNL     1      46.403   5.693  14.041  0.00  0.00    +0.000 A 
ATOM      6  C   UNL     1      46.812   4.424  14.479  0.00  0.00    +0.000 A 
ATOM      7  C   UNL     1      46.528   3.290  13.710  0.00  0.00    +0.000 A 
ATOM      8  C   UNL     1      45.832   3.399  12.497  0.00  0.00    +0.000 A 
ATOM      9  C   UNL     1      45.403   4.673  12.089  0.00  0.00    +0.000 A 
ENDROOT
BRANCH   6  10
ATOM     10  C   UNL     1      47.478   4.349  15.809  0.00  0.00    +0.000 C 
ATOM     11  O   UNL     1      48.582   4.816  16.017  0.00  0.00    +0.000 OA
BRANCH  10  12
ATOM     12  O   UNL     1      46.773   3.695  16.756  0.00  0.00    +0.000 OA
ATOM     13  H   UNL     1      46.946   2.740  16.828  0.00  0.00    +0.000 HD
ENDBRANCH  10  12
ENDBRANCH   6  10
BRANCH   1  14
ATOM     14  C   UNL     1      44.036   4.208  10.004  0.00  0.00    +0.000 C 
BRANCH  14  19
ATOM     15  C   UNL     1      47.927   2.158   6.276  0.00  0.00    +0.000 C 
ATOM     16  C   UNL     1      46.885   2.627   7.246  0.00  0.00    +0.000 A 
ATOM     17  C   UNL     1      46.226   1.726   8.073  0.00  0.00    +0.000 A 
ATOM     18  C   UNL     1      45.276   2.205   8.971  0.00  0.00    +0.000 A 
ATOM     19  C   UNL     1      45.001   3.573   9.039  0.00  0.00    +0.000 A 
ATOM     20  C   UNL     1      45.699   4.392   8.156  0.00  0.00    +0.000 A 
ATOM     21  N   UNL     1      46.623   3.954   7.270  0.00  0.00    +0.000 NA
ENDBRANCH  14  19
ENDBRANCH   1  14
TORSDOF 4
ENDMDL
MODEL 3
REMARK VINA RESULT:    -7.321      3.543      6.620
REMARK INTER + INTRA:          -9.377
REMARK INTER:                  -8.925
REMARK INTRA:                  -0.452
REMARK UNBOUND:                -0.558
REMARK  Name = 
REMARK  5 active torsions:
REMARK  status: ('A' for Active; 'I' for Inactive)
REMARK    1  A    between atoms: C_1  and  C_2
REMARK    2  A    between atoms: C_5  and  C_6
REMARK    3  A    between atoms: C_6  and  N_7
REMARK    4  A    between atoms: C_12  and  C_13
REMARK    5  A    between atoms: C_13  and  O_15
REMARK                            x       y       z     vdW  Elec       q    Type
REMARK                         _______ _______ _______ _____ _____    ______ ____
ROOT
ATOM      1  N   UNL     1      44.014   4.351  10.537  0.00  0.00    +0.000 N 
ATOM      2  C   UNL     1      43.528   3.223  11.153  0.00  0.00    +0.000 A 
ATOM      3  C   UNL     1      44.107   2.129  10.554  0.00  0.00    +0.000 A 
ATOM      4  C   UNL     1      44.974   2.603   9.534  0.00  0.00    +0.000 A 
ATOM      5  C   UNL     1      45.789   1.962   8.582  0.00  0.00    +0.000 A 
ATOM      6  C   UNL     1      46.530   2.728   7.668  0.00  0.00    +0.000 A 
ATOM      7  C   UNL     1      46.474   4.126   7.715  0.00  0.00    +0.000 A 
ATOM      8  C   UNL     1      45.682   4.783   8.668  0.00  0.00    +0.000 A 
ATOM      9  C   UNL     1      44.922   4.001   9.554  0.00  0.00    +0.000 A 
ENDROOT
BRANCH   6  10
ATOM     10  C   UNL     1      47.295   1.987   6.626  0.00  0.00    +0.000 C 
ATOM     11  O   UNL     1      47.281   0.773   6.542  0.00  0.00    +0.000 OA
BRANCH  10  12
ATOM     12  O   UNL     1      48.026   2.767   5.803  0.00  0.00    +0.000 OA
ATOM     13  H   UNL     1      48.764   2.325   5.347  0.00  0.00    +0.000 HD
ENDBRANCH  10  12
ENDBRANCH   6  10
BRANCH   1  14
ATOM     14  C   UNL     1      43.555   5.706  10.840  0.00  0.00    +0.000 C 
BRANCH  14  19
ATOM     15  C   UNL     1      47.539   8.557  13.879  0.00  0.00    +0.000 C 
ATOM     16  C   UNL     1      46.468   7.876  13.082  0.00  0.00    +0.000 A 
ATOM     17  C   UNL     1      45.673   8.596  12.200  0.00  0.00    +0.000 A 
ATOM     18  C   UNL     1      44.699   7.923  11.466  0.00  0.00    +0.000 A 
ATOM     19  C   UNL     1      44.535   6.544  11.616  0.00  0.00    +0.000 A 
ATOM     20  C   UNL     1      45.368   5.916  12.539  0.00  0.00    +0.000 A 
ATOM     21  N   UNL     1      46.318   6.544  13.269  0.00  0.00    +0.000 NA
ENDBRANCH  14  19
ENDBRANCH   1  14
TORSDOF 4
ENDMDL
MODEL 4
REMARK VINA RESULT:    -6.444      1.386      1.989
REMARK INTER + INTRA:          -8.320
REMARK INTER:                  -7.791
REMARK INTRA:                  -0.530
REMARK UNBOUND:                -0.558
REMARK  Name = 
REMARK  5 active torsions:
REMARK  status: ('A' for Active; 'I' for Inactive)
REMARK    1  A    between atoms: C_1  and  C_2
REMARK    2  A    between atoms: C_5  and  C_6
REMARK    3  A    between atoms: C_6  and  N_7
REMARK    4  A    between atoms: C_12  and  C_13
REMARK    5  A    between atoms: C_13  and  O_15
REMARK                            x       y       z     vdW  Elec       q    Type
REMARK                         _______ _______ _______ _____ _____    ______ ____
ROOT
ATOM      1  N   UNL     1      45.414   5.154  12.429  0.00  0.00    +0.000 N 
ATOM      2  C   UNL     1      46.063   4.199  13.174  0.00  0.00    +0.000 A 
ATOM      3  C   UNL     1      47.059   4.821  13.889  0.00  0.00    +0.000 A 
ATOM      4  C   UNL     1      47.021   6.204  13.569  0.00  0.00    +0.000 A 
ATOM      5  C   UNL     1      47.806   7.308  13.955  0.00  0.00    +0.000 A 
ATOM      6  C   UNL     1      47.525   8.580  13.432  0.00  0.00    +0.000 A 
ATOM      7  C   UNL     1      46.457   8.756  12.545  0.00  0.00    +0.000 A 
ATOM      8  C   UNL     1      45.653   7.671  12.163  0.00  0.00    +0.000 A 
ATOM      9  C   UNL     1      45.968   6.399  12.670  0.00  0.00    +0.000 A 
ENDROOT
BRANCH   6  10
ATOM     10  C   UNL     1      48.452   9.685  13.806  0.00  0.00    +0.000 C 
ATOM     11  O   UNL     1      49.487   9.494  14.415  0.00  0.00    +0.000 OA
BRANCH  10  12
ATOM     12  O   UNL     1      48.036  10.916  13.441  0.00  0.00    +0.000 OA
ATOM     13  H   UNL     1      47.234  10.946  12.890  0.00  0.00    +0.000 HD
ENDBRANCH  10  12
ENDBRANCH   6  10
BRANCH   1  14
ATOM     14  C   UNL     1      44.355   4.856  11.467  0.00  0.00    +0.000 C 
BRANCH  14  19
ATOM     15  C   UNL     1      46.498   3.062   6.424  0.00  0.00    +0.000 C 
ATOM     16  C   UNL     1      45.893   3.477   7.731  0.00  0.00    +0.000 A 
ATOM     17  C   UNL     1      45.171   2.572   8.499  0.00  0.00    +0.000 A 
ATOM     18  C   UNL     1      44.638   2.994   9.715  0.00  0.00    +0.000 A 
ATOM     19  C   UNL     1      44.837   4.306  10.151  0.00  0.00    +0.000 A 
ATOM     20  C   UNL     1      45.558   5.141   9.301  0.00  0.00    +0.000 A 
ATOM     21  N   UNL     1      46.082   4.761   8.113  0.00  0.00    +0.000 NA
ENDBRANCH  14  19
ENDBRANCH   1  14
TORSDOF 4
ENDMDL
MODEL 5
REMARK VINA RESULT:    -6.364      4.222      6.996
REMARK INTER + INTRA:          -8.224
REMARK INTER:                  -7.770
REMARK INTRA:                  -0.454
REMARK UNBOUND:                -0.558
REMARK  Name = 
REMARK  5 active torsions:
REMARK  status: ('A' for Active; 'I' for Inactive)
REMARK    1  A    between atoms: C_1  and  C_2
REMARK    2  A    between atoms: C_5  and  C_6
REMARK    3  A    between atoms: C_6  and  N_7
REMARK    4  A    between atoms: C_12  and  C_13
REMARK    5  A    between atoms: C_13  and  O_15
REMARK                            x       y       z     vdW  Elec       q    Type
REMARK                         _______ _______ _______ _____ _____    ______ ____
ROOT
ATOM      1  N   UNL     1      47.072   5.236  14.796  0.00  0.00    +0.000 N 
ATOM      2  C   UNL     1      48.027   6.207  14.609  0.00  0.00    +0.000 A 
ATOM      3  C   UNL     1      47.955   6.628  13.303  0.00  0.00    +0.000 A 
ATOM      4  C   UNL     1      46.924   5.887  12.666  0.00  0.00    +0.000 A 
ATOM      5  C   UNL     1      46.426   5.856  11.349  0.00  0.00    +0.000 A 
ATOM      6  C   UNL     1      45.387   4.973  11.016  0.00  0.00    +0.000 A 
ATOM      7  C   UNL     1      44.832   4.140  11.994  0.00  0.00    +0.000 A 
ATOM      8  C   UNL     1      45.302   4.170  13.315  0.00  0.00    +0.000 A 
ATOM      9  C   UNL     1      46.364   5.036  13.624  0.00  0.00    +0.000 A 
ENDROOT
BRANCH   6  10
ATOM     10  C   UNL     1      44.975   4.922   9.585  0.00  0.00    +0.000 C 
ATOM     11  O   UNL     1      45.763   5.070   8.670  0.00  0.00    +0.000 OA
BRANCH  10  12
ATOM     12  O   UNL     1      43.654   4.729   9.387  0.00  0.00    +0.000 OA
ATOM     13  H   UNL     1      43.410   3.897   8.943  0.00  0.00    +0.000 HD
ENDBRANCH  10  12
ENDBRANCH   6  10
BRANCH   1  14
ATOM     14  C   UNL     1      46.911   4.481  16.037  0.00  0.00    +0.000 C 
BRANCH  14  19
ATOM     15  C   UNL     1      51.597   1.412  17.402  0.00  0.00    +0.000 C 
ATOM     16  C   UNL     1      50.385   2.244  17.108  0.00  0.00    +0.000 A 
ATOM     17  C   UNL     1      50.216   3.487  17.703  0.00  0.00    +0.000 A 
ATOM     18  C   UNL     1      49.084   4.236  17.392  0.00  0.00    +0.000 A 
ATOM     19  C   UNL     1      48.141   3.740  16.488  0.00  0.00    +0.000 A 
ATOM     20  C   UNL     1      48.391   2.476  15.960  0.00  0.00    +0.000 A 
ATOM     21  N   UNL     1      49.479   1.725  16.249  0.00  0.00    +0.000 NA
ENDBRANCH  14  19
ENDBRANCH   1  14
TORSDOF 4
ENDMDL
MODEL 6
REMARK VINA RESULT:    -6.236      2.067      3.287
REMARK INTER + INTRA:          -8.070
REMARK INTER:                  -7.567
REMARK INTRA:                  -0.504
REMARK UNBOUND:                -0.558
REMARK  Name = 
REMARK  5 active torsions:
REMARK  status: ('A' for Active; 'I' for Inactive)
REMARK    1  A    between atoms: C_1  and  C_2
REMARK    2  A    between atoms: C_5  and  C_6
REMARK    3  A    between atoms: C_6  and  N_7
REMARK    4  A    between atoms: C_12  and  C_13
REMARK    5  A    between atoms: C_13  and  O_15
REMARK                            x       y       z     vdW  Elec       q    Type
REMARK                         _______ _______ _______ _____ _____    ______ ____
ROOT
ATOM      1  N   UNL     1      44.593   6.617  11.555  0.00  0.00    +0.000 N 
ATOM      2  C   UNL     1      44.427   7.958  11.309  0.00  0.00    +0.000 A 
ATOM      3  C   UNL     1      45.373   8.644  12.032  0.00  0.00    +0.000 A 
ATOM      4  C   UNL     1      46.143   7.690  12.749  0.00  0.00    +0.000 A 
ATOM      5  C   UNL     1      47.207   7.797  13.666  0.00  0.00    +0.000 A 
ATOM      6  C   UNL     1      47.756   6.638  14.237  0.00  0.00    +0.000 A 
ATOM      7  C   UNL     1      47.262   5.378  13.881  0.00  0.00    +0.000 A 
ATOM      8  C   UNL     1      46.215   5.250  12.956  0.00  0.00    +0.000 A 
ATOM      9  C   UNL     1      45.656   6.421  12.419  0.00  0.00    +0.000 A 
ENDROOT
BRANCH   6  10
ATOM     10  C   UNL     1      48.811   6.827  15.271  0.00  0.00    +0.000 C 
ATOM     11  O   UNL     1      49.998   6.709  15.026  0.00  0.00    +0.000 OA
BRANCH  10  12
ATOM     12  O   UNL     1      48.346   7.110  16.505  0.00  0.00    +0.000 OA
ATOM     13  H   UNL     1      47.554   6.616  16.782  0.00  0.00    +0.000 HD
ENDBRANCH  10  12
ENDBRANCH   6  10
BRANCH   1  14
ATOM     14  C   UNL     1      43.706   5.577  11.035  0.00  0.00    +0.000 C 
BRANCH  14  19
ATOM     15  C   UNL     1      46.022   1.254   8.004  0.00  0.00    +0.000 C 
ATOM     16  C   UNL     1      45.473   2.419   8.772  0.00  0.00    +0.000 A 
ATOM     17  C   UNL     1      45.790   3.721   8.409  0.00  0.00    +0.000 A 
ATOM     18  C   UNL     1      45.247   4.777   9.138  0.00  0.00    +0.000 A 
ATOM     19  C   UNL     1      44.391   4.520  10.211  0.00  0.00    +0.000 A 
ATOM     20  C   UNL     1      44.149   3.181  10.508  0.00  0.00    +0.000 A 
ATOM     21  N   UNL     1      44.668   2.137   9.821  0.00  0.00    +0.000 NA
ENDBRANCH  14  19
ENDBRANCH   1  14
TORSDOF 4
ENDMDL
MODEL 7
REMARK VINA RESULT:    -6.010      4.305      6.452
REMARK INTER + INTRA:          -7.798
REMARK INTER:                  -7.215
REMARK INTRA:                  -0.583
REMARK UNBOUND:                -0.558
REMARK  Name = 
REMARK  5 active torsions:
REMARK  status: ('A' for Active; 'I' for Inactive)
REMARK    1  A    between atoms: C_1  and  C_2
REMARK    2  A    between atoms: C_5  and  C_6
REMARK    3  A    between atoms: C_6  and  N_7
REMARK    4  A    between atoms: C_12  and  C_13
REMARK    5  A    between atoms: C_13  and  O_15
REMARK                            x       y       z     vdW  Elec       q    Type
REMARK                         _______ _______ _______ _____ _____    ______ ____
ROOT
ATOM      1  N   UNL     1      47.313   6.373  13.576  0.00  0.00    +0.000 N 
ATOM      2  C   UNL     1      47.613   5.576  14.655  0.00  0.00    +0.000 A 
ATOM      3  C   UNL     1      46.988   4.365  14.476  0.00  0.00    +0.000 A 
ATOM      4  C   UNL     1      46.279   4.422  13.247  0.00  0.00    +0.000 A 
ATOM      5  C   UNL     1      45.441   3.515  12.570  0.00  0.00    +0.000 A 
ATOM      6  C   UNL     1      44.852   3.885  11.351  0.00  0.00    +0.000 A 
ATOM      7  C   UNL     1      45.112   5.144  10.798  0.00  0.00    +0.000 A 
ATOM      8  C   UNL     1      45.958   6.054  11.448  0.00  0.00    +0.000 A 
ATOM      9  C   UNL     1      46.513   5.681  12.684  0.00  0.00    +0.000 A 
ENDROOT
BRANCH   6  10
ATOM     10  C   UNL     1      43.901   2.916  10.736  0.00  0.00    +0.000 C 
ATOM     11  O   UNL     1      44.022   2.514   9.594  0.00  0.00    +0.000 OA
BRANCH  10  12
ATOM     12  O   UNL     1      42.881   2.545  11.537  0.00  0.00    +0.000 OA
ATOM     13  H   UNL     1      43.106   2.410  12.474  0.00  0.00    +0.000 HD
ENDBRANCH  10  12
ENDBRANCH   6  10
BRANCH   1  14
ATOM     14  C   UNL     1      47.721   7.772  13.458  0.00  0.00    +0.000 C 
BRANCH  14  19
ATOM     15  C   UNL     1      53.130   8.554  11.621  0.00  0.00    +0.000 C 
ATOM     16  C   UNL     1      51.703   8.355  12.032  0.00  0.00    +0.000 A 
ATOM     17  C   UNL     1      50.767   7.858  11.134  0.00  0.00    +0.000 A 
ATOM     18  C   UNL     1      49.454   7.673  11.559  0.00  0.00    +0.000 A 
ATOM     19  C   UNL     1      49.093   7.979  12.874  0.00  0.00    +0.000 A 
ATOM     20  C   UNL     1      50.097   8.489  13.692  0.00  0.00    +0.000 A 
ATOM     21  N   UNL     1      51.379   8.684  13.304  0.00  0.00    +0.000 NA
ENDBRANCH  14  19
ENDBRANCH   1  14
TORSDOF 4
ENDMDL
MODEL 8
REMARK VINA RESULT:    -5.725      4.293      7.781
REMARK INTER + INTRA:          -7.455
REMARK INTER:                  -6.867
REMARK INTRA:                  -0.588
REMARK UNBOUND:                -0.558
REMARK  Name = 
REMARK  5 active torsions:
REMARK  status: ('A' for Active; 'I' for Inactive)
REMARK    1  A    between atoms: C_1  and  C_2
REMARK    2  A    between atoms: C_5  and  C_6
REMARK    3  A    between atoms: C_6  and  N_7
REMARK    4  A    between atoms: C_12  and  C_13
REMARK    5  A    between atoms: C_13  and  O_15
REMARK                            x       y       z     vdW  Elec       q    Type
REMARK                         _______ _______ _______ _____ _____    ______ ____
ROOT
ATOM      1  N   UNL     1      47.567   7.019  13.831  0.00  0.00    +0.000 N 
ATOM      2  C   UNL     1      47.213   8.317  13.552  0.00  0.00    +0.000 A 
ATOM      3  C   UNL     1      46.089   8.291  12.761  0.00  0.00    +0.000 A 
ATOM      4  C   UNL     1      45.745   6.930  12.544  0.00  0.00    +0.000 A 
ATOM      5  C   UNL     1      44.733   6.295  11.799  0.00  0.00    +0.000 A 
ATOM      6  C   UNL     1      44.669   4.893  11.763  0.00  0.00    +0.000 A 
ATOM      7  C   UNL     1      45.595   4.128  12.481  0.00  0.00    +0.000 A 
ATOM      8  C   UNL     1      46.598   4.743  13.244  0.00  0.00    +0.000 A 
ATOM      9  C   UNL     1      46.668   6.146  13.244  0.00  0.00    +0.000 A 
ENDROOT
BRANCH   6  10
ATOM     10  C   UNL     1      43.635   4.285  10.879  0.00  0.00    +0.000 C 
ATOM     11  O   UNL     1      43.021   3.279  11.183  0.00  0.00    +0.000 OA
BRANCH  10  12
ATOM     12  O   UNL     1      43.456   4.921   9.702  0.00  0.00    +0.000 OA
ATOM     13  H   UNL     1      43.589   4.380   8.904  0.00  0.00    +0.000 HD
ENDBRANCH  10  12
ENDBRANCH   6  10
BRANCH   1  14
ATOM     14  C   UNL     1      48.771   6.645  14.570  0.00  0.00    +0.000 C 
BRANCH  14  19
ATOM     15  C   UNL     1      47.866   6.037  20.232  0.00  0.00    +0.000 C 
ATOM     16  C   UNL     1      48.113   6.126  18.756  0.00  0.00    +0.000 A 
ATOM     17  C   UNL     1      47.943   5.016  17.939  0.00  0.00    +0.000 A 
ATOM     18  C   UNL     1      48.168   5.144  16.570  0.00  0.00    +0.000 A 
ATOM     19  C   UNL     1      48.552   6.376  16.035  0.00  0.00    +0.000 A 
ATOM     20  C   UNL     1      48.715   7.422  16.938  0.00  0.00    +0.000 A 
ATOM     21  N   UNL     1      48.509   7.325  18.272  0.00  0.00    +0.000 NA
ENDBRANCH  14  19
ENDBRANCH   1  14
TORSDOF 4
ENDMDL
MODEL 9
REMARK VINA RESULT:    -5.680      4.106      6.546
REMARK INTER + INTRA:          -7.401
REMARK INTER:                  -6.862
REMARK INTRA:                  -0.539
REMARK UNBOUND:                -0.558
REMARK  Name = 
REMARK  5 active torsions:
REMARK  status: ('A' for Active; 'I' for Inactive)
REMARK    1  A    between atoms: C_1  and  C_2
REMARK    2  A    between atoms: C_5  and  C_6
REMARK    3  A    between atoms: C_6  and  N_7
REMARK    4  A    between atoms: C_12  and  C_13
REMARK    5  A    between atoms: C_13  and  O_15
REMARK                            x       y       z     vdW  Elec       q    Type
REMARK                         _______ _______ _______ _____ _____    ______ ____
ROOT
ATOM      1  N   UNL     1      46.282   7.838  12.924  0.00  0.00    +0.000 N 
ATOM      2  C   UNL     1      45.585   8.727  12.141  0.00  0.00    +0.000 A 
ATOM      3  C   UNL     1      44.649   8.020  11.425  0.00  0.00    +0.000 A 
ATOM      4  C   UNL     1      44.779   6.651  11.778  0.00  0.00    +0.000 A 
ATOM      5  C   UNL     1      44.130   5.476  11.351  0.00  0.00    +0.000 A 
ATOM      6  C   UNL     1      44.510   4.235  11.887  0.00  0.00    +0.000 A 
ATOM      7  C   UNL     1      45.517   4.167  12.858  0.00  0.00    +0.000 A 
ATOM      8  C   UNL     1      46.161   5.328  13.308  0.00  0.00    +0.000 A 
ATOM      9  C   UNL     1      45.791   6.558  12.738  0.00  0.00    +0.000 A 
ENDROOT
BRANCH   6  10
ATOM     10  C   UNL     1      43.853   3.023  11.323  0.00  0.00    +0.000 C 
ATOM     11  O   UNL     1      43.743   2.835  10.126  0.00  0.00    +0.000 OA
BRANCH  10  12
ATOM     12  O   UNL     1      43.362   2.168  12.244  0.00  0.00    +0.000 OA
ATOM     13  H   UNL     1      43.400   1.225  12.007  0.00  0.00    +0.000 HD
ENDBRANCH  10  12
ENDBRANCH   6  10
BRANCH   1  14
ATOM     14  C   UNL     1      47.426   8.209  13.755  0.00  0.00    +0.000 C 
BRANCH  14  19
ATOM     15  C   UNL     1      52.665   8.427  11.359  0.00  0.00    +0.000 C 
ATOM     16  C   UNL     1      51.276   8.361  11.918  0.00  0.00    +0.000 A 
ATOM     17  C   UNL     1      50.262   7.710  11.227  0.00  0.00    +0.000 A 
ATOM     18  C   UNL     1      48.988   7.657  11.788  0.00  0.00    +0.000 A 
ATOM     19  C   UNL     1      48.744   8.248  13.031  0.00  0.00    +0.000 A 
ATOM     20  C   UNL     1      49.820   8.893  13.634  0.00  0.00    +0.000 A 
ATOM     21  N   UNL     1      51.065   8.964  13.110  0.00  0.00    +0.000 NA
ENDBRANCH  14  19
ENDBRANCH   1  14
TORSDOF 4
ENDMDL
