MODEL 1
REMARK VINA RESULT:    -8.978      0.000      0.000
REMARK INTER + INTRA:         -13.043
REMARK INTER:                 -12.127
REMARK INTRA:                  -0.916
REMARK UNBOUND:                -0.916
REMARK  Name = 
REMARK  6 active torsions:
REMARK  status: ('A' for Active; 'I' for Inactive)
REMARK    1  A    between atoms: C_2  and  C_3
REMARK    2  A    between atoms: C_6  and  N_7
REMARK    3  A    between atoms: N_7  and  C_8
REMARK    4  A    between atoms: C_8  and  C_9
REMARK    5  A    between atoms: C_9  and  C_12
REMARK    6  A    between atoms: C_14  and  C_15
REMARK                            x       y       z     vdW  Elec       q    Type
REMARK                         _______ _______ _______ _____ _____    ______ ____
ROOT
ATOM      1  C   UNL     1      43.398   4.787  12.561  0.00  0.00    +0.000 C 
ATOM      2  F   UNL     1      42.740   5.888  12.087  0.00  0.00    +0.000 F 
ATOM      3  F   UNL     1      42.634   4.351  13.616  0.00  0.00    +0.000 F 
ENDROOT
BRANCH   1   4
ATOM      4  C   UNL     1      44.824   5.120  12.986  0.00  0.00    +0.000 A 
ATOM      5  C   UNL     1      45.415   6.288  12.507  0.00  0.00    +0.000 A 
ATOM      6  C   UNL     1      46.739   6.604  12.849  0.00  0.00    +0.000 A 
ATOM      7  C   UNL     1      47.415   5.695  13.670  0.00  0.00    +0.000 A 
ATOM      8  C   UNL     1      46.764   4.561  14.116  0.00  0.00    +0.000 A 
ATOM      9  N   UNL     1      45.494   4.254  13.792  0.00  0.00    +0.000 NA
BRANCH   6  10
ATOM     10  C   UNL     1      47.387   7.842  12.364  0.00  0.00    +0.000 A 
ATOM     11  C   UNL     1      48.685   7.815  11.814  0.00  0.00    +0.000 A 
ATOM     12  C   UNL     1      49.294   8.982  11.342  0.00  0.00    +0.000 A 
ATOM     13  C   UNL     1      48.615  10.191  11.423  0.00  0.00    +0.000 A 
ATOM     14  F   UNL     1      49.201  11.306  10.969  0.00  0.00    +0.000 F 
ATOM     15  C   UNL     1      47.345  10.261  11.964  0.00  0.00    +0.000 A 
ATOM     16  C   UNL     1      46.743   9.094  12.423  0.00  0.00    +0.000 A 
ATOM     17  F   UNL     1      45.500   9.203  12.917  0.00  0.00    +0.000 F 
ENDBRANCH   6  10
ENDBRANCH   1   4
BRANCH   1  18
ATOM     18  C   UNL     1      43.390   3.685  11.481  0.00  0.00    +0.000 C 
BRANCH  18  19
ATOM     19  N   UNL     1      43.605   4.189  10.113  0.00  0.00    +0.000 N 
ATOM     20  H   UNL     1      42.829   4.685   9.685  0.00  0.00    +0.000 HD
BRANCH  19  24
ATOM     21  C   UNL     1      46.585   2.531   7.645  0.00  0.00    +0.000 A 
ATOM     22  C   UNL     1      45.825   1.695   8.460  0.00  0.00    +0.000 A 
ATOM     23  C   UNL     1      44.821   2.235   9.269  0.00  0.00    +0.000 A 
ATOM     24  C   UNL     1      44.540   3.607   9.269  0.00  0.00    +0.000 A 
ATOM     25  C   UNL     1      45.337   4.434   8.467  0.00  0.00    +0.000 A 
ATOM     26  C   UNL     1      46.349   3.906   7.656  0.00  0.00    +0.000 A 
BRANCH  21  28
ATOM     27  N   UNL     1      48.412   1.540   6.095  0.00  0.00    +0.000 NA
ATOM     28  C   UNL     1      47.597   1.981   6.800  0.00  0.00    +0.000 C 
ENDBRANCH  21  28
ENDBRANCH  19  24
ENDBRANCH  18  19
ENDBRANCH   1  18
TORSDOF 6
ENDMDL
MODEL 2
REMARK VINA RESULT:    -8.743      1.805      2.278
REMARK INTER + INTRA:         -12.725
REMARK INTER:                 -11.349
REMARK INTRA:                  -1.376
REMARK UNBOUND:                -0.916
REMARK  Name = 
REMARK  6 active torsions:
REMARK  status: ('A' for Active; 'I' for Inactive)
REMARK    1  A    between atoms: C_2  and  C_3
REMARK    2  A    between atoms: C_6  and  N_7
REMARK    3  A    between atoms: N_7  and  C_8
REMARK    4  A    between atoms: C_8  and  C_9
REMARK    5  A    between atoms: C_9  and  C_12
REMARK    6  A    between atoms: C_14  and  C_15
REMARK                            x       y       z     vdW  Elec       q    Type
REMARK                         _______ _______ _______ _____ _____    ______ ____
ROOT
ATOM      1  C   UNL     1      44.347   3.796  12.472  0.00  0.00    +0.000 C 
ATOM      2  F   UNL     1      43.634   3.690  13.633  0.00  0.00    +0.000 F 
ATOM      3  F   UNL     1      45.412   2.945  12.637  0.00  0.00    +0.000 F 
ENDROOT
BRANCH   1   4
ATOM      4  C   UNL     1      44.795   5.230  12.212  0.00  0.00    +0.000 A 
ATOM      5  C   UNL     1      46.131   5.568  12.423  0.00  0.00    +0.000 A 
ATOM      6  C   UNL     1      46.566   6.888  12.229  0.00  0.00    +0.000 A 
ATOM      7  C   UNL     1      45.602   7.821  11.832  0.00  0.00    +0.000 A 
ATOM      8  C   UNL     1      44.298   7.414  11.632  0.00  0.00    +0.000 A 
ATOM      9  N   UNL     1      43.875   6.149  11.815  0.00  0.00    +0.000 NA
BRANCH   6  10
ATOM     10  C   UNL     1      47.980   7.272  12.435  0.00  0.00    +0.000 A 
ATOM     11  C   UNL     1      48.774   7.723  11.360  0.00  0.00    +0.000 A 
ATOM     12  C   UNL     1      50.106   8.100  11.553  0.00  0.00    +0.000 A 
ATOM     13  C   UNL     1      50.663   8.022  12.823  0.00  0.00    +0.000 A 
ATOM     14  F   UNL     1      51.939   8.385  13.005  0.00  0.00    +0.000 F 
ATOM     15  C   UNL     1      49.922   7.577  13.901  0.00  0.00    +0.000 A 
ATOM     16  C   UNL     1      48.594   7.212  13.701  0.00  0.00    +0.000 A 
ATOM     17  F   UNL     1      47.903   6.810  14.779  0.00  0.00    +0.000 F 
ENDBRANCH   6  10
ENDBRANCH   1   4
BRANCH   1  18
ATOM     18  C   UNL     1      43.494   3.267  11.300  0.00  0.00    +0.000 C 
BRANCH  18  19
ATOM     19  N   UNL     1      43.761   3.940  10.016  0.00  0.00    +0.000 N 
ATOM     20  H   UNL     1      43.017   4.527   9.648  0.00  0.00    +0.000 HD
BRANCH  19  24
ATOM     21  C   UNL     1      46.709   2.512   7.373  0.00  0.00    +0.000 A 
ATOM     22  C   UNL     1      46.009   1.611   8.172  0.00  0.00    +0.000 A 
ATOM     23  C   UNL     1      45.016   2.075   9.040  0.00  0.00    +0.000 A 
ATOM     24  C   UNL     1      44.685   3.434   9.115  0.00  0.00    +0.000 A 
ATOM     25  C   UNL     1      45.423   4.327   8.327  0.00  0.00    +0.000 A 
ATOM     26  C   UNL     1      46.424   3.876   7.458  0.00  0.00    +0.000 A 
BRANCH  21  28
ATOM     27  N   UNL     1      48.531   1.642   5.747  0.00  0.00    +0.000 NA
ATOM     28  C   UNL     1      47.710   2.040   6.469  0.00  0.00    +0.000 C 
ENDBRANCH  21  28
ENDBRANCH  19  24
ENDBRANCH  18  19
ENDBRANCH   1  18
TORSDOF 6
ENDMDL
MODEL 3
REMARK VINA RESULT:    -8.338      2.724      4.340
REMARK INTER + INTRA:         -12.178
REMARK INTER:                 -11.333
REMARK INTRA:                  -0.845
REMARK UNBOUND:                -0.916
REMARK  Name = 
REMARK  6 active torsions:
REMARK  status: ('A' for Active; 'I' for Inactive)
REMARK    1  A    between atoms: C_2  and  C_3
REMARK    2  A    between atoms: C_6  and  N_7
REMARK    3  A    between atoms: N_7  and  C_8
REMARK    4  A    between atoms: C_8  and  C_9
REMARK    5  A    between atoms: C_9  and  C_12
REMARK    6  A    between atoms: C_14  and  C_15
REMARK                            x       y       z     vdW  Elec       q    Type
REMARK                         _______ _______ _______ _____ _____    ______ ____
ROOT
ATOM      1  C   UNL     1      44.052   4.800  12.428  0.00  0.00    +0.000 C 
ATOM      2  F   UNL     1      43.132   5.331  13.289  0.00  0.00    +0.000 F 
ATOM      3  F   UNL     1      43.877   3.442  12.523  0.00  0.00    +0.000 F 
ENDROOT
BRANCH   1   4
ATOM      4  C   UNL     1      45.472   5.222  12.787  0.00  0.00    +0.000 A 
ATOM      5  C   UNL     1      45.977   4.886  14.043  0.00  0.00    +0.000 A 
ATOM      6  C   UNL     1      47.267   5.292  14.419  0.00  0.00    +0.000 A 
ATOM      7  C   UNL     1      47.992   6.042  13.486  0.00  0.00    +0.000 A 
ATOM      8  C   UNL     1      47.434   6.329  12.256  0.00  0.00    +0.000 A 
ATOM      9  N   UNL     1      46.197   5.941  11.890  0.00  0.00    +0.000 NA
BRANCH   6  10
ATOM     10  C   UNL     1      47.832   4.941  15.740  0.00  0.00    +0.000 A 
ATOM     11  C   UNL     1      47.628   3.663  16.300  0.00  0.00    +0.000 A 
ATOM     12  C   UNL     1      48.173   3.324  17.543  0.00  0.00    +0.000 A 
ATOM     13  C   UNL     1      48.920   4.261  18.243  0.00  0.00    +0.000 A 
ATOM     14  F   UNL     1      49.442   3.932  19.431  0.00  0.00    +0.000 F 
ATOM     15  C   UNL     1      49.136   5.527  17.733  0.00  0.00    +0.000 A 
ATOM     16  C   UNL     1      48.598   5.854  16.491  0.00  0.00    +0.000 A 
ATOM     17  F   UNL     1      48.852   7.085  16.022  0.00  0.00    +0.000 F 
ENDBRANCH   6  10
ENDBRANCH   1   4
BRANCH   1  18
ATOM     18  C   UNL     1      43.703   5.225  10.986  0.00  0.00    +0.000 C 
BRANCH  18  19
ATOM     19  N   UNL     1      43.501   4.093  10.063  0.00  0.00    +0.000 N 
ATOM     20  H   UNL     1      42.747   3.451  10.290  0.00  0.00    +0.000 HD
BRANCH  19  24
ATOM     21  C   UNL     1      46.504   2.523   7.567  0.00  0.00    +0.000 A 
ATOM     22  C   UNL     1      46.216   3.885   7.521  0.00  0.00    +0.000 A 
ATOM     23  C   UNL     1      45.233   4.418   8.360  0.00  0.00    +0.000 A 
ATOM     24  C   UNL     1      44.534   3.616   9.271  0.00  0.00    +0.000 A 
ATOM     25  C   UNL     1      44.816   2.243   9.278  0.00  0.00    +0.000 A 
ATOM     26  C   UNL     1      45.795   1.697   8.440  0.00  0.00    +0.000 A 
BRANCH  21  28
ATOM     27  N   UNL     1      48.354   1.516   6.054  0.00  0.00    +0.000 NA
ATOM     28  C   UNL     1      47.524   1.977   6.728  0.00  0.00    +0.000 C 
ENDBRANCH  21  28
ENDBRANCH  19  24
ENDBRANCH  18  19
ENDBRANCH   1  18
TORSDOF 6
ENDMDL
MODEL 4
REMARK VINA RESULT:    -7.637      2.963      7.232
REMARK INTER + INTRA:         -11.232
REMARK INTER:                 -10.799
REMARK INTRA:                  -0.433
REMARK UNBOUND:                -0.916
REMARK  Name = 
REMARK  6 active torsions:
REMARK  status: ('A' for Active; 'I' for Inactive)
REMARK    1  A    between atoms: C_2  and  C_3
REMARK    2  A    between atoms: C_6  and  N_7
REMARK    3  A    between atoms: N_7  and  C_8
REMARK    4  A    between atoms: C_8  and  C_9
REMARK    5  A    between atoms: C_9  and  C_12
REMARK    6  A    between atoms: C_14  and  C_15
REMARK                            x       y       z     vdW  Elec       q    Type
REMARK                         _______ _______ _______ _____ _____    ______ ____
ROOT
ATOM      1  C   UNL     1      44.553   6.371  11.955  0.00  0.00    +0.000 C 
ATOM      2  F   UNL     1      44.149   6.376  13.261  0.00  0.00    +0.000 F 
ATOM      3  F   UNL     1      43.741   7.288  11.334  0.00  0.00    +0.000 F 
ENDROOT
BRANCH   1   4
ATOM      4  C   UNL     1      44.431   4.985  11.332  0.00  0.00    +0.000 A 
ATOM      5  C   UNL     1      45.171   4.692  10.187  0.00  0.00    +0.000 A 
ATOM      6  C   UNL     1      45.053   3.438   9.568  0.00  0.00    +0.000 A 
ATOM      7  C   UNL     1      44.162   2.527  10.148  0.00  0.00    +0.000 A 
ATOM      8  C   UNL     1      43.468   2.881  11.288  0.00  0.00    +0.000 A 
ATOM      9  N   UNL     1      43.579   4.081  11.886  0.00  0.00    +0.000 NA
BRANCH   6  10
ATOM     10  C   UNL     1      45.835   3.097   8.359  0.00  0.00    +0.000 A 
ATOM     11  C   UNL     1      46.330   4.105   7.507  0.00  0.00    +0.000 A 
ATOM     12  C   UNL     1      47.082   3.786   6.372  0.00  0.00    +0.000 A 
ATOM     13  C   UNL     1      47.339   2.456   6.071  0.00  0.00    +0.000 A 
ATOM     14  F   UNL     1      48.060   2.154   4.984  0.00  0.00    +0.000 F 
ATOM     15  C   UNL     1      46.863   1.437   6.876  0.00  0.00    +0.000 A 
ATOM     16  C   UNL     1      46.124   1.764   8.009  0.00  0.00    +0.000 A 
ATOM     17  F   UNL     1      45.702   0.746   8.775  0.00  0.00    +0.000 F 
ENDBRANCH   6  10
ENDBRANCH   1   4
BRANCH   1  18
ATOM     18  C   UNL     1      46.005   6.885  11.868  0.00  0.00    +0.000 C 
BRANCH  18  19
ATOM     19  N   UNL     1      47.015   5.893  12.279  0.00  0.00    +0.000 N 
ATOM     20  H   UNL     1      47.192   5.130  11.631  0.00  0.00    +0.000 HD
BRANCH  19  24
ATOM     21  C   UNL     1      48.015   5.078  16.286  0.00  0.00    +0.000 A 
ATOM     22  C   UNL     1      48.525   6.218  15.669  0.00  0.00    +0.000 A 
ATOM     23  C   UNL     1      48.183   6.506  14.344  0.00  0.00    +0.000 A 
ATOM     24  C   UNL     1      47.316   5.682  13.616  0.00  0.00    +0.000 A 
ATOM     25  C   UNL     1      46.840   4.523  14.244  0.00  0.00    +0.000 A 
ATOM     26  C   UNL     1      47.179   4.221  15.568  0.00  0.00    +0.000 A 
BRANCH  21  28
ATOM     27  N   UNL     1      48.631   4.567  18.752  0.00  0.00    +0.000 NA
ATOM     28  C   UNL     1      48.344   4.791  17.646  0.00  0.00    +0.000 C 
ENDBRANCH  21  28
ENDBRANCH  19  24
ENDBRANCH  18  19
ENDBRANCH   1  18
TORSDOF 6
ENDMDL
MODEL 5
REMARK VINA RESULT:    -7.533      3.055      6.765
REMARK INTER + INTRA:         -11.091
REMARK INTER:                  -9.787
REMARK INTRA:                  -1.305
REMARK UNBOUND:                -0.916
REMARK  Name = 
REMARK  6 active torsions:
REMARK  status: ('A' for Active; 'I' for Inactive)
REMARK    1  A    between atoms: C_2  and  C_3
REMARK    2  A    between atoms: C_6  and  N_7
REMARK    3  A    between atoms: N_7  and  C_8
REMARK    4  A    between atoms: C_8  and  C_9
REMARK    5  A    between atoms: C_9  and  C_12
REMARK    6  A    between atoms: C_14  and  C_15
REMARK                            x       y       z     vdW  Elec       q    Type
REMARK                         _______ _______ _______ _____ _____    ______ ____
ROOT
ATOM      1  C   UNL     1      46.309   4.262  13.668  0.00  0.00    +0.000 C 
ATOM      2  F   UNL     1      47.217   3.351  14.129  0.00  0.00    +0.000 F 
ATOM      3  F   UNL     1      45.572   4.612  14.772  0.00  0.00    +0.000 F 
ENDROOT
BRANCH   1   4
ATOM      4  C   UNL     1      45.439   3.680  12.559  0.00  0.00    +0.000 A 
ATOM      5  C   UNL     1      45.982   3.531  11.283  0.00  0.00    +0.000 A 
ATOM      6  C   UNL     1      45.196   3.034  10.232  0.00  0.00    +0.000 A 
ATOM      7  C   UNL     1      43.867   2.715  10.532  0.00  0.00    +0.000 A 
ATOM      8  C   UNL     1      43.397   2.879  11.820  0.00  0.00    +0.000 A 
ATOM      9  N   UNL     1      44.147   3.354  12.832  0.00  0.00    +0.000 NA
BRANCH   6  10
ATOM     10  C   UNL     1      45.750   2.855   8.872  0.00  0.00    +0.000 A 
ATOM     11  C   UNL     1      46.042   1.569   8.371  0.00  0.00    +0.000 A 
ATOM     12  C   UNL     1      46.553   1.396   7.081  0.00  0.00    +0.000 A 
ATOM     13  C   UNL     1      46.785   2.506   6.281  0.00  0.00    +0.000 A 
ATOM     14  F   UNL     1      47.273   2.337   5.046  0.00  0.00    +0.000 F 
ATOM     15  C   UNL     1      46.521   3.784   6.738  0.00  0.00    +0.000 A 
ATOM     16  C   UNL     1      46.004   3.946   8.020  0.00  0.00    +0.000 A 
ATOM     17  F   UNL     1      45.739   5.201   8.415  0.00  0.00    +0.000 F 
ENDBRANCH   6  10
ENDBRANCH   1   4
BRANCH   1  18
ATOM     18  C   UNL     1      47.055   5.520  13.176  0.00  0.00    +0.000 C 
BRANCH  18  19
ATOM     19  N   UNL     1      46.468   6.786  13.653  0.00  0.00    +0.000 N 
ATOM     20  H   UNL     1      46.263   6.846  14.646  0.00  0.00    +0.000 HD
BRANCH  19  24
ATOM     21  C   UNL     1      44.143   9.234  11.139  0.00  0.00    +0.000 A 
ATOM     22  C   UNL     1      45.006   9.821  12.062  0.00  0.00    +0.000 A 
ATOM     23  C   UNL     1      45.796   9.015  12.888  0.00  0.00    +0.000 A 
ATOM     24  C   UNL     1      45.758   7.618  12.800  0.00  0.00    +0.000 A 
ATOM     25  C   UNL     1      44.860   7.048  11.888  0.00  0.00    +0.000 A 
ATOM     26  C   UNL     1      44.061   7.844  11.058  0.00  0.00    +0.000 A 
BRANCH  21  28
ATOM     27  N   UNL     1      42.716  10.713   9.559  0.00  0.00    +0.000 NA
ATOM     28  C   UNL     1      43.352  10.054  10.277  0.00  0.00    +0.000 C 
ENDBRANCH  21  28
ENDBRANCH  19  24
ENDBRANCH  18  19
ENDBRANCH   1  18
TORSDOF 6
ENDMDL
MODEL 6
REMARK VINA RESULT:    -7.335      2.049      2.986
REMARK INTER + INTRA:         -10.823
REMARK INTER:                 -10.003
REMARK INTRA:                  -0.820
REMARK UNBOUND:                -0.916
REMARK  Name = 
REMARK  6 active torsions:
REMARK  status: ('A' for Active; 'I' for Inactive)
REMARK    1  A    between atoms: C_2  and  C_3
REMARK    2  A    between atoms: C_6  and  N_7
REMARK    3  A    between atoms: N_7  and  C_8
REMARK    4  A    between atoms: C_8  and  C_9
REMARK    5  A    between atoms: C_9  and  C_12
REMARK    6  A    between atoms: C_14  and  C_15
REMARK                            x       y       z     vdW  Elec       q    Type
REMARK                         _______ _______ _______ _____ _____    ______ ____
ROOT
ATOM      1  C   UNL     1      44.958   5.997  12.215  0.00  0.00    +0.000 C 
ATOM      2  F   UNL     1      44.255   5.874  13.381  0.00  0.00    +0.000 F 
ATOM      3  F   UNL     1      45.794   4.908  12.194  0.00  0.00    +0.000 F 
ENDROOT
BRANCH   1   4
ATOM      4  C   UNL     1      45.729   7.311  12.156  0.00  0.00    +0.000 A 
ATOM      5  C   UNL     1      47.122   7.275  12.120  0.00  0.00    +0.000 A 
ATOM      6  C   UNL     1      47.861   8.469  12.103  0.00  0.00    +0.000 A 
ATOM      7  C   UNL     1      47.135   9.664  12.134  0.00  0.00    +0.000 A 
ATOM      8  C   UNL     1      45.754   9.625  12.159  0.00  0.00    +0.000 A 
ATOM      9  N   UNL     1      45.041   8.484  12.174  0.00  0.00    +0.000 NA
BRANCH   6  10
ATOM     10  C   UNL     1      49.340   8.460  12.054  0.00  0.00    +0.000 A 
ATOM     11  C   UNL     1      50.027   7.822  11.001  0.00  0.00    +0.000 A 
ATOM     12  C   UNL     1      51.424   7.824  10.944  0.00  0.00    +0.000 A 
ATOM     13  C   UNL     1      52.150   8.456  11.944  0.00  0.00    +0.000 A 
ATOM     14  F   UNL     1      53.487   8.457  11.886  0.00  0.00    +0.000 F 
ATOM     15  C   UNL     1      51.514   9.085  12.998  0.00  0.00    +0.000 A 
ATOM     16  C   UNL     1      50.123   9.086  13.042  0.00  0.00    +0.000 A 
ATOM     17  F   UNL     1      49.547   9.729  14.069  0.00  0.00    +0.000 F 
ENDBRANCH   6  10
ENDBRANCH   1   4
BRANCH   1  18
ATOM     18  C   UNL     1      43.989   5.875  11.020  0.00  0.00    +0.000 C 
BRANCH  18  19
ATOM     19  N   UNL     1      43.811   4.495  10.535  0.00  0.00    +0.000 N 
ATOM     20  H   UNL     1      43.249   3.878  11.114  0.00  0.00    +0.000 HD
BRANCH  19  24
ATOM     21  C   UNL     1      46.445   2.628   7.834  0.00  0.00    +0.000 A 
ATOM     22  C   UNL     1      46.407   4.018   7.905  0.00  0.00    +0.000 A 
ATOM     23  C   UNL     1      45.548   4.647   8.812  0.00  0.00    +0.000 A 
ATOM     24  C   UNL     1      44.730   3.908   9.677  0.00  0.00    +0.000 A 
ATOM     25  C   UNL     1      44.760   2.512   9.567  0.00  0.00    +0.000 A 
ATOM     26  C   UNL     1      45.612   1.871   8.659  0.00  0.00    +0.000 A 
BRANCH  21  28
ATOM     27  N   UNL     1      48.049   1.451   6.171  0.00  0.00    +0.000 NA
ATOM     28  C   UNL     1      47.338   1.981   6.924  0.00  0.00    +0.000 C 
ENDBRANCH  21  28
ENDBRANCH  19  24
ENDBRANCH  18  19
ENDBRANCH   1  18
TORSDOF 6
ENDMDL
MODEL 7
REMARK VINA RESULT:    -7.247      3.080      6.823
REMARK INTER + INTRA:         -10.705
REMARK INTER:                 -10.221
REMARK INTRA:                  -0.484
REMARK UNBOUND:                -0.916
REMARK  Name = 
REMARK  6 active torsions:
REMARK  status: ('A' for Active; 'I' for Inactive)
REMARK    1  A    between atoms: C_2  and  C_3
REMARK    2  A    between atoms: C_6  and  N_7
REMARK    3  A    between atoms: N_7  and  C_8
REMARK    4  A    between atoms: C_8  and  C_9
REMARK    5  A    between atoms: C_9  and  C_12
REMARK    6  A    between atoms: C_14  and  C_15
REMARK                            x       y       z     vdW  Elec       q    Type
REMARK                         _______ _______ _______ _____ _____    ______ ____
ROOT
ATOM      1  C   UNL     1      43.753   6.191  11.725  0.00  0.00    +0.000 C 
ATOM      2  F   UNL     1      43.582   6.215  13.081  0.00  0.00    +0.000 F 
ATOM      3  F   UNL     1      42.627   6.791  11.219  0.00  0.00    +0.000 F 
ENDROOT
BRANCH   1   4
ATOM      4  C   UNL     1      43.927   4.769  11.203  0.00  0.00    +0.000 A 
ATOM      5  C   UNL     1      44.727   4.555  10.081  0.00  0.00    +0.000 A 
ATOM      6  C   UNL     1      44.877   3.263   9.553  0.00  0.00    +0.000 A 
ATOM      7  C   UNL     1      44.186   2.232  10.198  0.00  0.00    +0.000 A 
ATOM      8  C   UNL     1      43.420   2.513  11.312  0.00  0.00    +0.000 A 
ATOM      9  N   UNL     1      43.273   3.750  11.823  0.00  0.00    +0.000 NA
BRANCH   6  10
ATOM     10  C   UNL     1      45.728   3.007   8.371  0.00  0.00    +0.000 A 
ATOM     11  C   UNL     1      46.210   4.070   7.579  0.00  0.00    +0.000 A 
ATOM     12  C   UNL     1      47.026   3.831   6.469  0.00  0.00    +0.000 A 
ATOM     13  C   UNL     1      47.362   2.527   6.133  0.00  0.00    +0.000 A 
ATOM     14  F   UNL     1      48.145   2.302   5.070  0.00  0.00    +0.000 F 
ATOM     15  C   UNL     1      46.903   1.457   6.878  0.00  0.00    +0.000 A 
ATOM     16  C   UNL     1      46.099   1.704   7.986  0.00  0.00    +0.000 A 
ATOM     17  F   UNL     1      45.695   0.639   8.695  0.00  0.00    +0.000 F 
ENDBRANCH   6  10
ENDBRANCH   1   4
BRANCH   1  18
ATOM     18  C   UNL     1      44.968   7.065  11.350  0.00  0.00    +0.000 C 
BRANCH  18  19
ATOM     19  N   UNL     1      45.752   7.527  12.509  0.00  0.00    +0.000 N 
ATOM     20  H   UNL     1      45.234   7.982  13.256  0.00  0.00    +0.000 HD
BRANCH  19  24
ATOM     21  C   UNL     1      49.865   8.275  12.017  0.00  0.00    +0.000 A 
ATOM     22  C   UNL     1      48.952   9.310  11.830  0.00  0.00    +0.000 A 
ATOM     23  C   UNL     1      47.585   9.075  12.009  0.00  0.00    +0.000 A 
ATOM     24  C   UNL     1      47.103   7.818  12.396  0.00  0.00    +0.000 A 
ATOM     25  C   UNL     1      48.035   6.783  12.548  0.00  0.00    +0.000 A 
ATOM     26  C   UNL     1      49.405   7.005  12.366  0.00  0.00    +0.000 A 
BRANCH  21  28
ATOM     27  N   UNL     1      52.402   8.708  11.706  0.00  0.00    +0.000 NA
ATOM     28  C   UNL     1      51.264   8.517  11.857  0.00  0.00    +0.000 C 
ENDBRANCH  21  28
ENDBRANCH  19  24
ENDBRANCH  18  19
ENDBRANCH   1  18
TORSDOF 6
ENDMDL
MODEL 8
REMARK VINA RESULT:    -7.222      2.984      7.352
REMARK INTER + INTRA:         -10.670
REMARK INTER:                  -9.219
REMARK INTRA:                  -1.451
REMARK UNBOUND:                -0.916
REMARK  Name = 
REMARK  6 active torsions:
REMARK  status: ('A' for Active; 'I' for Inactive)
REMARK    1  A    between atoms: C_2  and  C_3
REMARK    2  A    between atoms: C_6  and  N_7
REMARK    3  A    between atoms: N_7  and  C_8
REMARK    4  A    between atoms: C_8  and  C_9
REMARK    5  A    between atoms: C_9  and  C_12
REMARK    6  A    between atoms: C_14  and  C_15
REMARK                            x       y       z     vdW  Elec       q    Type
REMARK                         _______ _______ _______ _____ _____    ______ ____
ROOT
ATOM      1  C   UNL     1      49.090   8.352  11.829  0.00  0.00    +0.000 C 
ATOM      2  F   UNL     1      49.267   9.702  11.705  0.00  0.00    +0.000 F 
ATOM      3  F   UNL     1      49.744   7.813  10.750  0.00  0.00    +0.000 F 
ENDROOT
BRANCH   1   4
ATOM      4  C   UNL     1      47.612   7.976  11.850  0.00  0.00    +0.000 A 
ATOM      5  C   UNL     1      47.213   6.776  11.263  0.00  0.00    +0.000 A 
ATOM      6  C   UNL     1      45.856   6.419  11.232  0.00  0.00    +0.000 A 
ATOM      7  C   UNL     1      44.951   7.322  11.801  0.00  0.00    +0.000 A 
ATOM      8  C   UNL     1      45.417   8.489  12.374  0.00  0.00    +0.000 A 
ATOM      9  N   UNL     1      46.718   8.835  12.408  0.00  0.00    +0.000 NA
BRANCH   6  10
ATOM     10  C   UNL     1      45.407   5.146  10.626  0.00  0.00    +0.000 A 
ATOM     11  C   UNL     1      45.477   4.941   9.233  0.00  0.00    +0.000 A 
ATOM     12  C   UNL     1      45.065   3.734   8.660  0.00  0.00    +0.000 A 
ATOM     13  C   UNL     1      44.572   2.722   9.471  0.00  0.00    +0.000 A 
ATOM     14  F   UNL     1      44.180   1.567   8.920  0.00  0.00    +0.000 F 
ATOM     15  C   UNL     1      44.479   2.887  10.841  0.00  0.00    +0.000 A 
ATOM     16  C   UNL     1      44.898   4.088  11.404  0.00  0.00    +0.000 A 
ATOM     17  F   UNL     1      44.814   4.197  12.739  0.00  0.00    +0.000 F 
ENDBRANCH   6  10
ENDBRANCH   1   4
BRANCH   1  18
ATOM     18  C   UNL     1      49.798   7.861  13.109  0.00  0.00    +0.000 C 
BRANCH  18  19
ATOM     19  N   UNL     1      48.958   7.925  14.318  0.00  0.00    +0.000 N 
ATOM     20  H   UNL     1      49.002   8.786  14.856  0.00  0.00    +0.000 HD
BRANCH  19  24
ATOM     21  C   UNL     1      47.650   4.548  16.463  0.00  0.00    +0.000 A 
ATOM     22  C   UNL     1      47.245   4.721  15.142  0.00  0.00    +0.000 A 
ATOM     23  C   UNL     1      47.689   5.830  14.416  0.00  0.00    +0.000 A 
ATOM     24  C   UNL     1      48.558   6.774  14.980  0.00  0.00    +0.000 A 
ATOM     25  C   UNL     1      48.927   6.599  16.320  0.00  0.00    +0.000 A 
ATOM     26  C   UNL     1      48.484   5.495  17.059  0.00  0.00    +0.000 A 
BRANCH  21  28
ATOM     27  N   UNL     1      46.845   2.472  17.793  0.00  0.00    +0.000 NA
ATOM     28  C   UNL     1      47.217   3.404  17.201  0.00  0.00    +0.000 C 
ENDBRANCH  21  28
ENDBRANCH  19  24
ENDBRANCH  18  19
ENDBRANCH   1  18
TORSDOF 6
ENDMDL
MODEL 9
REMARK VINA RESULT:    -6.667      3.124      6.910
REMARK INTER + INTRA:          -9.921
REMARK INTER:                  -8.632
REMARK INTRA:                  -1.289
REMARK UNBOUND:                -0.916
REMARK  Name = 
REMARK  6 active torsions:
REMARK  status: ('A' for Active; 'I' for Inactive)
REMARK    1  A    between atoms: C_2  and  C_3
REMARK    2  A    between atoms: C_6  and  N_7
REMARK    3  A    between atoms: N_7  and  C_8
REMARK    4  A    between atoms: C_8  and  C_9
REMARK    5  A    between atoms: C_9  and  C_12
REMARK    6  A    between atoms: C_14  and  C_15
REMARK                            x       y       z     vdW  Elec       q    Type
REMARK                         _______ _______ _______ _____ _____    ______ ____
ROOT
ATOM      1  C   UNL     1      45.401   3.865  13.188  0.00  0.00    +0.000 C 
ATOM      2  F   UNL     1      46.250   2.796  13.249  0.00  0.00    +0.000 F 
ATOM      3  F   UNL     1      44.393   3.562  14.069  0.00  0.00    +0.000 F 
ENDROOT
BRANCH   1   4
ATOM      4  C   UNL     1      44.877   4.091  11.774  0.00  0.00    +0.000 A 
ATOM      5  C   UNL     1      45.615   3.603  10.695  0.00  0.00    +0.000 A 
ATOM      6  C   UNL     1      45.179   3.827   9.380  0.00  0.00    +0.000 A 
ATOM      7  C   UNL     1      43.996   4.558   9.221  0.00  0.00    +0.000 A 
ATOM      8  C   UNL     1      43.310   5.002  10.334  0.00  0.00    +0.000 A 
ATOM      9  N   UNL     1      43.723   4.789  11.598  0.00  0.00    +0.000 NA
BRANCH   6  10
ATOM     10  C   UNL     1      45.936   3.312   8.218  0.00  0.00    +0.000 A 
ATOM     11  C   UNL     1      46.502   4.192   7.273  0.00  0.00    +0.000 A 
ATOM     12  C   UNL     1      47.230   3.708   6.181  0.00  0.00    +0.000 A 
ATOM     13  C   UNL     1      47.392   2.339   6.018  0.00  0.00    +0.000 A 
ATOM     14  F   UNL     1      48.091   1.879   4.973  0.00  0.00    +0.000 F 
ATOM     15  C   UNL     1      46.845   1.443   6.917  0.00  0.00    +0.000 A 
ATOM     16  C   UNL     1      46.129   1.933   8.006  0.00  0.00    +0.000 A 
ATOM     17  F   UNL     1      45.636   1.030   8.867  0.00  0.00    +0.000 F 
ENDBRANCH   6  10
ENDBRANCH   1   4
BRANCH   1  18
ATOM     18  C   UNL     1      46.127   5.123  13.710  0.00  0.00    +0.000 C 
BRANCH  18  19
ATOM     19  N   UNL     1      45.598   6.386  13.166  0.00  0.00    +0.000 N 
ATOM     20  H   UNL     1      44.670   6.350  12.754  0.00  0.00    +0.000 HD
BRANCH  19  24
ATOM     21  C   UNL     1      48.164   9.395  11.723  0.00  0.00    +0.000 A 
ATOM     22  C   UNL     1      46.929   9.747  12.262  0.00  0.00    +0.000 A 
ATOM     23  C   UNL     1      46.077   8.756  12.760  0.00  0.00    +0.000 A 
ATOM     24  C   UNL     1      46.445   7.404  12.752  0.00  0.00    +0.000 A 
ATOM     25  C   UNL     1      47.677   7.068  12.176  0.00  0.00    +0.000 A 
ATOM     26  C   UNL     1      48.536   8.051  11.670  0.00  0.00    +0.000 A 
BRANCH  21  28
ATOM     27  N   UNL     1      49.780  11.218  10.835  0.00  0.00    +0.000 NA
ATOM     28  C   UNL     1      49.046  10.407  11.234  0.00  0.00    +0.000 C 
ENDBRANCH  21  28
ENDBRANCH  19  24
ENDBRANCH  18  19
ENDBRANCH   1  18
TORSDOF 6
ENDMDL
