MODEL 1
REMARK VINA RESULT:    -7.999      0.000      0.000
REMARK INTER + INTRA:         -10.084
REMARK INTER:                  -9.869
REMARK INTRA:                  -0.215
REMARK UNBOUND:                -0.215
REMARK  Name = 
REMARK  4 active torsions:
REMARK  status: ('A' for Active; 'I' for Inactive)
REMARK    1  A    between atoms: C_2  and  C_3
REMARK    2  A    between atoms: C_7  and  C_8
REMARK    3  A    between atoms: C_8  and  N_9
REMARK    4  A    between atoms: C_13  and  C_14
REMARK                            x       y       z     vdW  Elec       q    Type
REMARK                         _______ _______ _______ _____ _____    ______ ____
ROOT
ATOM      1  N   UNL     1      43.900   3.362  10.428  0.00  0.00    +0.000 N 
ATOM      2  C   UNL     1      44.809   3.117   9.386  0.00  0.00    +0.000 A 
ATOM      3  C   UNL     1      45.162   1.800   9.101  0.00  0.00    +0.000 A 
ATOM      4  C   UNL     1      46.067   1.537   8.068  0.00  0.00    +0.000 A 
ATOM      5  C   UNL     1      46.608   2.594   7.336  0.00  0.00    +0.000 A 
ATOM      6  C   UNL     1      46.218   3.871   7.700  0.00  0.00    +0.000 A 
ATOM      7  N   UNL     1      45.345   4.147   8.701  0.00  0.00    +0.000 NA
ATOM      8  H   UNL     1      43.054   2.825  10.264  0.00  0.00    +0.000 HD
ENDROOT
BRANCH   5   9
ATOM      9  C   UNL     1      47.546   2.309   6.223  0.00  0.00    +0.000 C 
ATOM     10  N   UNL     1      47.502   3.090   5.100  0.00  0.00    +0.000 N 
ATOM     11  O   UNL     1      48.345   1.384   6.293  0.00  0.00    +0.000 OA
ATOM     12  H   UNL     1      46.888   3.870   4.937  0.00  0.00    +0.000 HD
ATOM     13  H   UNL     1      48.156   2.852   4.363  0.00  0.00    +0.000 HD
ENDBRANCH   5   9
BRANCH   1  14
ATOM     14  C   UNL     1      43.613   4.779  10.616  0.00  0.00    +0.000 C 
BRANCH  14  19
ATOM     15  C   UNL     1      46.236   5.170  13.366  0.00  0.00    +0.000 A 
ATOM     16  C   UNL     1      46.590   6.515  13.221  0.00  0.00    +0.000 A 
ATOM     17  C   UNL     1      45.969   7.300  12.249  0.00  0.00    +0.000 A 
ATOM     18  C   UNL     1      44.996   6.742  11.418  0.00  0.00    +0.000 A 
ATOM     19  C   UNL     1      44.631   5.394  11.551  0.00  0.00    +0.000 A 
ATOM     20  C   UNL     1      45.262   4.613  12.532  0.00  0.00    +0.000 A 
BRANCH  15  22
ATOM     21  N   UNL     1      47.396   3.707  15.167  0.00  0.00    +0.000 NA
ATOM     22  C   UNL     1      46.876   4.364  14.363  0.00  0.00    +0.000 C 
ENDBRANCH  15  22
ENDBRANCH  14  19
ENDBRANCH   1  14
TORSDOF 4
ENDMDL
MODEL 2
REMARK VINA RESULT:    -7.617      2.764      6.577
REMARK INTER + INTRA:          -9.613
REMARK INTER:                  -9.301
REMARK INTRA:                  -0.312
REMARK UNBOUND:                -0.215
REMARK  Name = 
REMARK  4 active torsions:
REMARK  status: ('A' for Active; 'I' for Inactive)
REMARK    1  A    between atoms: C_2  and  C_3
REMARK    2  A    between atoms: C_7  and  C_8
REMARK    3  A    between atoms: C_8  and  N_9
REMARK    4  A    between atoms: C_13  and  C_14
REMARK                            x       y       z     vdW  Elec       q    Type
REMARK                         _______ _______ _______ _____ _____    ______ ____
ROOT
ATOM      1  N   UNL     1      44.723   5.397  10.440  0.00  0.00    +0.000 N 
ATOM      2  C   UNL     1      45.358   5.136  11.665  0.00  0.00    +0.000 A 
ATOM      3  C   UNL     1      45.877   6.205  12.390  0.00  0.00    +0.000 A 
ATOM      4  C   UNL     1      46.515   5.965  13.611  0.00  0.00    +0.000 A 
ATOM      5  C   UNL     1      46.625   4.660  14.089  0.00  0.00    +0.000 A 
ATOM      6  C   UNL     1      46.100   3.656  13.294  0.00  0.00    +0.000 A 
ATOM      7  N   UNL     1      45.482   3.868  12.105  0.00  0.00    +0.000 NA
ATOM      8  H   UNL     1      43.986   6.080  10.586  0.00  0.00    +0.000 HD
ENDROOT
BRANCH   5   9
ATOM      9  C   UNL     1      47.278   4.412  15.398  0.00  0.00    +0.000 C 
ATOM     10  N   UNL     1      47.796   5.470  16.094  0.00  0.00    +0.000 N 
ATOM     11  O   UNL     1      47.368   3.279  15.853  0.00  0.00    +0.000 OA
ATOM     12  H   UNL     1      47.779   6.436  15.814  0.00  0.00    +0.000 HD
ATOM     13  H   UNL     1      48.239   5.251  16.978  0.00  0.00    +0.000 HD
ENDBRANCH   5   9
BRANCH   1  14
ATOM     14  C   UNL     1      44.219   4.193   9.788  0.00  0.00    +0.000 C 
BRANCH  14  19
ATOM     15  C   UNL     1      46.405   1.749   7.826  0.00  0.00    +0.000 A 
ATOM     16  C   UNL     1      47.130   2.622   7.009  0.00  0.00    +0.000 A 
ATOM     17  C   UNL     1      46.927   3.999   7.104  0.00  0.00    +0.000 A 
ATOM     18  C   UNL     1      45.998   4.507   8.013  0.00  0.00    +0.000 A 
ATOM     19  C   UNL     1      45.262   3.644   8.839  0.00  0.00    +0.000 A 
ATOM     20  C   UNL     1      45.473   2.260   8.736  0.00  0.00    +0.000 A 
BRANCH  15  22
ATOM     21  N   UNL     1      46.775  -0.812   7.649  0.00  0.00    +0.000 NA
ATOM     22  C   UNL     1      46.613   0.335   7.727  0.00  0.00    +0.000 C 
ENDBRANCH  15  22
ENDBRANCH  14  19
ENDBRANCH   1  14
TORSDOF 4
ENDMDL
MODEL 3
REMARK VINA RESULT:    -7.400      1.669      2.359
REMARK INTER + INTRA:          -9.345
REMARK INTER:                  -9.199
REMARK INTRA:                  -0.146
REMARK UNBOUND:                -0.215
REMARK  Name = 
REMARK  4 active torsions:
REMARK  status: ('A' for Active; 'I' for Inactive)
REMARK    1  A    between atoms: C_2  and  C_3
REMARK    2  A    between atoms: C_7  and  C_8
REMARK    3  A    between atoms: C_8  and  N_9
REMARK    4  A    between atoms: C_13  and  C_14
REMARK                            x       y       z     vdW  Elec       q    Type
REMARK                         _______ _______ _______ _____ _____    ______ ____
ROOT
ATOM      1  N   UNL     1      43.813   3.560  10.442  0.00  0.00    +0.000 N 
ATOM      2  C   UNL     1      44.735   3.281   9.420  0.00  0.00    +0.000 A 
ATOM      3  C   UNL     1      45.098   1.957   9.190  0.00  0.00    +0.000 A 
ATOM      4  C   UNL     1      46.016   1.660   8.177  0.00  0.00    +0.000 A 
ATOM      5  C   UNL     1      46.559   2.691   7.411  0.00  0.00    +0.000 A 
ATOM      6  C   UNL     1      46.158   3.979   7.722  0.00  0.00    +0.000 A 
ATOM      7  N   UNL     1      45.272   4.288   8.702  0.00  0.00    +0.000 NA
ATOM      8  H   UNL     1      42.971   3.012  10.289  0.00  0.00    +0.000 HD
ENDROOT
BRANCH   5   9
ATOM      9  C   UNL     1      47.511   2.370   6.320  0.00  0.00    +0.000 C 
ATOM     10  N   UNL     1      47.420   3.050   5.136  0.00  0.00    +0.000 N 
ATOM     11  O   UNL     1      48.363   1.502   6.462  0.00  0.00    +0.000 OA
ATOM     12  H   UNL     1      46.761   3.776   4.912  0.00  0.00    +0.000 HD
ATOM     13  H   UNL     1      48.086   2.790   4.418  0.00  0.00    +0.000 HD
ENDBRANCH   5   9
BRANCH   1  14
ATOM     14  C   UNL     1      43.515   4.981  10.573  0.00  0.00    +0.000 C 
BRANCH  14  19
ATOM     15  C   UNL     1      45.681   7.647  12.246  0.00  0.00    +0.000 A 
ATOM     16  C   UNL     1      46.363   6.888  13.201  0.00  0.00    +0.000 A 
ATOM     17  C   UNL     1      46.138   5.515  13.294  0.00  0.00    +0.000 A 
ATOM     18  C   UNL     1      45.230   4.897  12.434  0.00  0.00    +0.000 A 
ATOM     19  C   UNL     1      44.537   5.644  11.470  0.00  0.00    +0.000 A 
ATOM     20  C   UNL     1      44.770   7.026  11.385  0.00  0.00    +0.000 A 
BRANCH  15  22
ATOM     21  N   UNL     1      46.096  10.202  12.083  0.00  0.00    +0.000 NA
ATOM     22  C   UNL     1      45.911   9.058  12.153  0.00  0.00    +0.000 C 
ENDBRANCH  15  22
ENDBRANCH  14  19
ENDBRANCH   1  14
TORSDOF 4
ENDMDL
MODEL 4
REMARK VINA RESULT:    -6.716      2.889      6.300
REMARK INTER + INTRA:          -8.501
REMARK INTER:                  -8.714
REMARK INTRA:                   0.213
REMARK UNBOUND:                -0.215
REMARK  Name = 
REMARK  4 active torsions:
REMARK  status: ('A' for Active; 'I' for Inactive)
REMARK    1  A    between atoms: C_2  and  C_3
REMARK    2  A    between atoms: C_7  and  C_8
REMARK    3  A    between atoms: C_8  and  N_9
REMARK    4  A    between atoms: C_13  and  C_14
REMARK                            x       y       z     vdW  Elec       q    Type
REMARK                         _______ _______ _______ _____ _____    ______ ____
ROOT
ATOM      1  N   UNL     1      44.695   3.040  12.423  0.00  0.00    +0.000 N 
ATOM      2  C   UNL     1      45.394   4.229  12.692  0.00  0.00    +0.000 A 
ATOM      3  C   UNL     1      46.339   4.232  13.714  0.00  0.00    +0.000 A 
ATOM      4  C   UNL     1      47.044   5.407  13.997  0.00  0.00    +0.000 A 
ATOM      5  C   UNL     1      46.791   6.561  13.257  0.00  0.00    +0.000 A 
ATOM      6  C   UNL     1      45.820   6.474  12.275  0.00  0.00    +0.000 A 
ATOM      7  N   UNL     1      45.123   5.346  11.987  0.00  0.00    +0.000 NA
ATOM      8  H   UNL     1      45.363   2.294  12.253  0.00  0.00    +0.000 HD
ENDROOT
BRANCH   5   9
ATOM      9  C   UNL     1      47.559   7.797  13.543  0.00  0.00    +0.000 C 
ATOM     10  N   UNL     1      47.029   8.728  14.394  0.00  0.00    +0.000 N 
ATOM     11  O   UNL     1      48.648   7.997  13.021  0.00  0.00    +0.000 OA
ATOM     12  H   UNL     1      46.147   8.667  14.874  0.00  0.00    +0.000 HD
ATOM     13  H   UNL     1      47.586   9.560  14.551  0.00  0.00    +0.000 HD
ENDBRANCH   5   9
BRANCH   1  14
ATOM     14  C   UNL     1      43.742   3.172  11.327  0.00  0.00    +0.000 C 
BRANCH  14  19
ATOM     15  C   UNL     1      45.781   1.986   8.322  0.00  0.00    +0.000 A 
ATOM     16  C   UNL     1      45.745   3.116   7.501  0.00  0.00    +0.000 A 
ATOM     17  C   UNL     1      45.080   4.267   7.924  0.00  0.00    +0.000 A 
ATOM     18  C   UNL     1      44.447   4.290   9.167  0.00  0.00    +0.000 A 
ATOM     19  C   UNL     1      44.472   3.163  10.002  0.00  0.00    +0.000 A 
ATOM     20  C   UNL     1      45.144   2.009   9.567  0.00  0.00    +0.000 A 
BRANCH  15  22
ATOM     21  N   UNL     1      47.010  -0.158   7.531  0.00  0.00    +0.000 NA
ATOM     22  C   UNL     1      46.462   0.803   7.885  0.00  0.00    +0.000 C 
ENDBRANCH  15  22
ENDBRANCH  14  19
ENDBRANCH   1  14
TORSDOF 4
ENDMDL
MODEL 5
REMARK VINA RESULT:    -6.493      2.831      6.828
REMARK INTER + INTRA:          -8.226
REMARK INTER:                  -7.876
REMARK INTRA:                  -0.350
REMARK UNBOUND:                -0.215
REMARK  Name = 
REMARK  4 active torsions:
REMARK  status: ('A' for Active; 'I' for Inactive)
REMARK    1  A    between atoms: C_2  and  C_3
REMARK    2  A    between atoms: C_7  and  C_8
REMARK    3  A    between atoms: C_8  and  N_9
REMARK    4  A    between atoms: C_13  and  C_14
REMARK                            x       y       z     vdW  Elec       q    Type
REMARK                         _______ _______ _______ _____ _____    ______ ____
ROOT
ATOM      1  N   UNL     1      45.286   6.313  10.557  0.00  0.00    +0.000 N 
ATOM      2  C   UNL     1      46.031   6.176  11.740  0.00  0.00    +0.000 A 
ATOM      3  C   UNL     1      47.143   6.992  11.929  0.00  0.00    +0.000 A 
ATOM      4  C   UNL     1      47.898   6.868  13.101  0.00  0.00    +0.000 A 
ATOM      5  C   UNL     1      47.531   5.929  14.064  0.00  0.00    +0.000 A 
ATOM      6  C   UNL     1      46.425   5.145  13.784  0.00  0.00    +0.000 A 
ATOM      7  N   UNL     1      45.683   5.247  12.653  0.00  0.00    +0.000 NA
ATOM      8  H   UNL     1      45.001   7.283  10.456  0.00  0.00    +0.000 HD
ENDROOT
BRANCH   5   9
ATOM      9  C   UNL     1      48.318   5.819  15.316  0.00  0.00    +0.000 C 
ATOM     10  N   UNL     1      47.760   5.198  16.401  0.00  0.00    +0.000 N 
ATOM     11  O   UNL     1      49.448   6.284  15.394  0.00  0.00    +0.000 OA
ATOM     12  H   UNL     1      46.844   4.784  16.447  0.00  0.00    +0.000 HD
ATOM     13  H   UNL     1      48.331   5.155  17.236  0.00  0.00    +0.000 HD
ENDBRANCH   5   9
BRANCH   1  14
ATOM     14  C   UNL     1      44.147   5.406  10.489  0.00  0.00    +0.000 C 
BRANCH  14  19
ATOM     15  C   UNL     1      45.654   3.107   7.835  0.00  0.00    +0.000 A 
ATOM     16  C   UNL     1      45.298   1.847   8.327  0.00  0.00    +0.000 A 
ATOM     17  C   UNL     1      44.557   1.741   9.503  0.00  0.00    +0.000 A 
ATOM     18  C   UNL     1      44.171   2.891  10.193  0.00  0.00    +0.000 A 
ATOM     19  C   UNL     1      44.522   4.162   9.713  0.00  0.00    +0.000 A 
ATOM     20  C   UNL     1      45.269   4.259   8.528  0.00  0.00    +0.000 A 
BRANCH  15  22
ATOM     21  N   UNL     1      47.038   3.299   5.649  0.00  0.00    +0.000 NA
ATOM     22  C   UNL     1      46.418   3.216   6.628  0.00  0.00    +0.000 C 
ENDBRANCH  15  22
ENDBRANCH  14  19
ENDBRANCH   1  14
TORSDOF 4
ENDMDL
MODEL 6
REMARK VINA RESULT:    -6.416      3.517      5.893
REMARK INTER + INTRA:          -8.132
REMARK INTER:                  -7.819
REMARK INTRA:                  -0.312
REMARK UNBOUND:                -0.215
REMARK  Name = 
REMARK  4 active torsions:
REMARK  status: ('A' for Active; 'I' for Inactive)
REMARK    1  A    between atoms: C_2  and  C_3
REMARK    2  A    between atoms: C_7  and  C_8
REMARK    3  A    between atoms: C_8  and  N_9
REMARK    4  A    between atoms: C_13  and  C_14
REMARK                            x       y       z     vdW  Elec       q    Type
REMARK                         _______ _______ _______ _____ _____    ______ ____
ROOT
ATOM      1  N   UNL     1      47.077   5.203  15.014  0.00  0.00    +0.000 N 
ATOM      2  C   UNL     1      46.446   4.870  13.804  0.00  0.00    +0.000 A 
ATOM      3  C   UNL     1      46.334   5.846  12.818  0.00  0.00    +0.000 A 
ATOM      4  C   UNL     1      45.708   5.533  11.607  0.00  0.00    +0.000 A 
ATOM      5  C   UNL     1      45.200   4.251  11.401  0.00  0.00    +0.000 A 
ATOM      6  C   UNL     1      45.335   3.350  12.444  0.00  0.00    +0.000 A 
ATOM      7  N   UNL     1      45.936   3.634  13.627  0.00  0.00    +0.000 NA
ATOM      8  H   UNL     1      48.001   5.573  14.816  0.00  0.00    +0.000 HD
ENDROOT
BRANCH   5   9
ATOM      9  C   UNL     1      44.560   3.915  10.106  0.00  0.00    +0.000 C 
ATOM     10  N   UNL     1      44.717   4.767   9.046  0.00  0.00    +0.000 N 
ATOM     11  O   UNL     1      43.890   2.899   9.978  0.00  0.00    +0.000 OA
ATOM     12  H   UNL     1      45.242   5.626   9.041  0.00  0.00    +0.000 HD
ATOM     13  H   UNL     1      44.255   4.501   8.185  0.00  0.00    +0.000 HD
ENDBRANCH   5   9
BRANCH   1  14
ATOM     14  C   UNL     1      47.132   4.091  15.956  0.00  0.00    +0.000 C 
BRANCH  14  19
ATOM     15  C   UNL     1      50.454   2.853  17.380  0.00  0.00    +0.000 A 
ATOM     16  C   UNL     1      51.010   4.043  17.858  0.00  0.00    +0.000 A 
ATOM     17  C   UNL     1      50.306   5.241  17.738  0.00  0.00    +0.000 A 
ATOM     18  C   UNL     1      49.046   5.253  17.138  0.00  0.00    +0.000 A 
ATOM     19  C   UNL     1      48.475   4.068  16.652  0.00  0.00    +0.000 A 
ATOM     20  C   UNL     1      49.192   2.867  16.777  0.00  0.00    +0.000 A 
BRANCH  15  22
ATOM     21  N   UNL     1      51.767   0.626  17.605  0.00  0.00    +0.000 NA
ATOM     22  C   UNL     1      51.179   1.623  17.501  0.00  0.00    +0.000 C 
ENDBRANCH  15  22
ENDBRANCH  14  19
ENDBRANCH   1  14
TORSDOF 4
ENDMDL
MODEL 7
REMARK VINA RESULT:    -6.198      4.128      8.199
REMARK INTER + INTRA:          -7.862
REMARK INTER:                  -7.609
REMARK INTRA:                  -0.253
REMARK UNBOUND:                -0.215
REMARK  Name = 
REMARK  4 active torsions:
REMARK  status: ('A' for Active; 'I' for Inactive)
REMARK    1  A    between atoms: C_2  and  C_3
REMARK    2  A    between atoms: C_7  and  C_8
REMARK    3  A    between atoms: C_8  and  N_9
REMARK    4  A    between atoms: C_13  and  C_14
REMARK                            x       y       z     vdW  Elec       q    Type
REMARK                         _______ _______ _______ _____ _____    ______ ____
ROOT
ATOM      1  N   UNL     1      46.487   3.992  14.843  0.00  0.00    +0.000 N 
ATOM      2  C   UNL     1      47.406   4.192  15.887  0.00  0.00    +0.000 A 
ATOM      3  C   UNL     1      47.456   3.262  16.921  0.00  0.00    +0.000 A 
ATOM      4  C   UNL     1      48.363   3.445  17.969  0.00  0.00    +0.000 A 
ATOM      5  C   UNL     1      49.204   4.557  17.971  0.00  0.00    +0.000 A 
ATOM      6  C   UNL     1      49.071   5.443  16.915  0.00  0.00    +0.000 A 
ATOM      7  N   UNL     1      48.196   5.285  15.891  0.00  0.00    +0.000 NA
ATOM      8  H   UNL     1      46.634   3.070  14.444  0.00  0.00    +0.000 HD
ENDROOT
BRANCH   5   9
ATOM      9  C   UNL     1      50.183   4.734  19.071  0.00  0.00    +0.000 C 
ATOM     10  N   UNL     1      49.847   4.324  20.332  0.00  0.00    +0.000 N 
ATOM     11  O   UNL     1      51.275   5.249  18.867  0.00  0.00    +0.000 OA
ATOM     12  H   UNL     1      48.982   3.893  20.611  0.00  0.00    +0.000 HD
ATOM     13  H   UNL     1      50.544   4.473  21.053  0.00  0.00    +0.000 HD
ENDBRANCH   5   9
BRANCH   1  14
ATOM     14  C   UNL     1      46.542   5.035  13.824  0.00  0.00    +0.000 C 
BRANCH  14  19
ATOM     15  C   UNL     1      44.395   3.718  10.951  0.00  0.00    +0.000 A 
ATOM     16  C   UNL     1      43.237   4.487  11.097  0.00  0.00    +0.000 A 
ATOM     17  C   UNL     1      43.155   5.442  12.110  0.00  0.00    +0.000 A 
ATOM     18  C   UNL     1      44.230   5.630  12.980  0.00  0.00    +0.000 A 
ATOM     19  C   UNL     1      45.398   4.865  12.848  0.00  0.00    +0.000 A 
ATOM     20  C   UNL     1      45.471   3.906  11.825  0.00  0.00    +0.000 A 
BRANCH  15  22
ATOM     21  N   UNL     1      44.548   1.935   9.072  0.00  0.00    +0.000 NA
ATOM     22  C   UNL     1      44.478   2.735   9.912  0.00  0.00    +0.000 C 
ENDBRANCH  15  22
ENDBRANCH  14  19
ENDBRANCH   1  14
TORSDOF 4
ENDMDL
MODEL 8
REMARK VINA RESULT:    -6.127      3.672      6.237
REMARK INTER + INTRA:          -7.774
REMARK INTER:                  -7.452
REMARK INTRA:                  -0.323
REMARK UNBOUND:                -0.215
REMARK  Name = 
REMARK  4 active torsions:
REMARK  status: ('A' for Active; 'I' for Inactive)
REMARK    1  A    between atoms: C_2  and  C_3
REMARK    2  A    between atoms: C_7  and  C_8
REMARK    3  A    between atoms: C_8  and  N_9
REMARK    4  A    between atoms: C_13  and  C_14
REMARK                            x       y       z     vdW  Elec       q    Type
REMARK                         _______ _______ _______ _____ _____    ______ ____
ROOT
ATOM      1  N   UNL     1      47.302   5.321  15.236  0.00  0.00    +0.000 N 
ATOM      2  C   UNL     1      46.658   5.148  14.000  0.00  0.00    +0.000 A 
ATOM      3  C   UNL     1      46.710   6.182  13.068  0.00  0.00    +0.000 A 
ATOM      4  C   UNL     1      46.074   6.029  11.832  0.00  0.00    +0.000 A 
ATOM      5  C   UNL     1      45.393   4.846  11.547  0.00  0.00    +0.000 A 
ATOM      6  C   UNL     1      45.373   3.880  12.538  0.00  0.00    +0.000 A 
ATOM      7  N   UNL     1      45.980   4.011  13.744  0.00  0.00    +0.000 NA
ATOM      8  H   UNL     1      48.274   5.564  15.073  0.00  0.00    +0.000 HD
ENDROOT
BRANCH   5   9
ATOM      9  C   UNL     1      44.742   4.677  10.224  0.00  0.00    +0.000 C 
ATOM     10  N   UNL     1      45.409   5.079   9.099  0.00  0.00    +0.000 N 
ATOM     11  O   UNL     1      43.620   4.197  10.130  0.00  0.00    +0.000 OA
ATOM     12  H   UNL     1      46.329   5.486   9.061  0.00  0.00    +0.000 HD
ATOM     13  H   UNL     1      44.922   4.952   8.220  0.00  0.00    +0.000 HD
ENDBRANCH   5   9
BRANCH   1  14
ATOM     14  C   UNL     1      47.175   4.163  16.114  0.00  0.00    +0.000 C 
BRANCH  14  19
ATOM     15  C   UNL     1      50.650   4.336  17.694  0.00  0.00    +0.000 A 
ATOM     16  C   UNL     1      51.023   2.989  17.688  0.00  0.00    +0.000 A 
ATOM     17  C   UNL     1      50.163   2.028  17.157  0.00  0.00    +0.000 A 
ATOM     18  C   UNL     1      48.927   2.410  16.634  0.00  0.00    +0.000 A 
ATOM     19  C   UNL     1      48.536   3.757  16.635  0.00  0.00    +0.000 A 
ATOM     20  C   UNL     1      49.409   4.717  17.171  0.00  0.00    +0.000 A 
BRANCH  15  22
ATOM     21  N   UNL     1      52.250   6.119  18.689  0.00  0.00    +0.000 NA
ATOM     22  C   UNL     1      51.533   5.323  18.241  0.00  0.00    +0.000 C 
ENDBRANCH  15  22
ENDBRANCH  14  19
ENDBRANCH   1  14
TORSDOF 4
ENDMDL
MODEL 9
REMARK VINA RESULT:    -5.959      3.724      5.449
REMARK INTER + INTRA:          -7.567
REMARK INTER:                  -7.181
REMARK INTRA:                  -0.386
REMARK UNBOUND:                -0.215
REMARK  Name = 
REMARK  4 active torsions:
REMARK  status: ('A' for Active; 'I' for Inactive)
REMARK    1  A    between atoms: C_2  and  C_3
REMARK    2  A    between atoms: C_7  and  C_8
REMARK    3  A    between atoms: C_8  and  N_9
REMARK    4  A    between atoms: C_13  and  C_14
REMARK                            x       y       z     vdW  Elec       q    Type
REMARK                         _______ _______ _______ _____ _____    ______ ____
ROOT
ATOM      1  N   UNL     1      46.131   7.479  13.372  0.00  0.00    +0.000 N 
ATOM      2  C   UNL     1      45.577   6.334  12.776  0.00  0.00    +0.000 A 
ATOM      3  C   UNL     1      45.934   5.083  13.271  0.00  0.00    +0.000 A 
ATOM      4  C   UNL     1      45.394   3.932  12.689  0.00  0.00    +0.000 A 
ATOM      5  C   UNL     1      44.507   4.048  11.620  0.00  0.00    +0.000 A 
ATOM      6  C   UNL     1      44.225   5.329  11.178  0.00  0.00    +0.000 A 
ATOM      7  N   UNL     1      44.741   6.458  11.726  0.00  0.00    +0.000 NA
ATOM      8  H   UNL     1      45.944   7.458  14.370  0.00  0.00    +0.000 HD
ENDROOT
BRANCH   5   9
ATOM      9  C   UNL     1      43.915   2.826  11.023  0.00  0.00    +0.000 C 
ATOM     10  N   UNL     1      44.480   2.296   9.894  0.00  0.00    +0.000 N 
ATOM     11  O   UNL     1      42.928   2.297  11.518  0.00  0.00    +0.000 OA
ATOM     12  H   UNL     1      45.286   2.648   9.406  0.00  0.00    +0.000 HD
ATOM     13  H   UNL     1      44.036   1.467   9.518  0.00  0.00    +0.000 HD
ENDBRANCH   5   9
BRANCH   1  14
ATOM     14  C   UNL     1      45.671   8.722  12.763  0.00  0.00    +0.000 C 
BRANCH  14  19
ATOM     15  C   UNL     1      49.185   9.554  11.516  0.00  0.00    +0.000 A 
ATOM     16  C   UNL     1      48.994  10.834  10.988  0.00  0.00    +0.000 A 
ATOM     17  C   UNL     1      47.738  11.436  11.050  0.00  0.00    +0.000 A 
ATOM     18  C   UNL     1      46.668  10.760  11.639  0.00  0.00    +0.000 A 
ATOM     19  C   UNL     1      46.843   9.474  12.172  0.00  0.00    +0.000 A 
ATOM     20  C   UNL     1      48.112   8.876  12.104  0.00  0.00    +0.000 A 
BRANCH  15  22
ATOM     21  N   UNL     1      51.519   8.429  11.395  0.00  0.00    +0.000 NA
ATOM     22  C   UNL     1      50.476   8.935  11.450  0.00  0.00    +0.000 C 
ENDBRANCH  15  22
ENDBRANCH  14  19
ENDBRANCH   1  14
TORSDOF 4
ENDMDL
