MODEL 1
REMARK VINA RESULT:    -9.299      0.000      0.000
REMARK INTER + INTRA:         -13.134
REMARK INTER:                 -12.018
REMARK INTRA:                  -1.117
REMARK UNBOUND:                -1.117
REMARK  Name = 
REMARK  5 active torsions:
REMARK  status: ('A' for Active; 'I' for Inactive)
REMARK    1  A    between atoms: C_2  and  C_3
REMARK    2  A    between atoms: C_6  and  C_7
REMARK    3  A    between atoms: C_11  and  C_12
REMARK    4  A    between atoms: C_12  and  N_13
REMARK    5  A    between atoms: C_17  and  C_18
REMARK                            x       y       z     vdW  Elec       q    Type
REMARK                         _______ _______ _______ _____ _____    ______ ____
ROOT
ATOM      1  C   UNL     1      43.849   5.139  11.245  0.00  0.00    +0.000 C 
ATOM      2  C   UNL     1      42.591   5.858  11.715  0.00  0.00    +0.000 C 
ATOM      3  C   UNL     1      42.652   4.371  11.783  0.00  0.00    +0.000 C 
ENDROOT
BRANCH   1   4
ATOM      4  N   UNL     1      44.149   5.130   9.801  0.00  0.00    +0.000 N 
ATOM      5  C   UNL     1      44.946   4.161   9.173  0.00  0.00    +0.000 A 
ATOM      6  C   UNL     1      44.937   2.813   9.507  0.00  0.00    +0.000 A 
ATOM      7  C   UNL     1      45.697   1.904   8.761  0.00  0.00    +0.000 A 
ATOM      8  C   UNL     1      46.461   2.359   7.689  0.00  0.00    +0.000 A 
ATOM      9  C   UNL     1      46.414   3.715   7.424  0.00  0.00    +0.000 A 
ATOM     10  N   UNL     1      45.680   4.614   8.133  0.00  0.00    +0.000 NA
ATOM     11  H   UNL     1      44.458   6.017   9.411  0.00  0.00    +0.000 HD
BRANCH   8  12
ATOM     12  C   UNL     1      47.263   1.386   6.906  0.00  0.00    +0.000 C 
ATOM     13  N   UNL     1      48.315   1.840   6.159  0.00  0.00    +0.000 N 
ATOM     14  O   UNL     1      47.000   0.190   6.924  0.00  0.00    +0.000 OA
ATOM     15  H   UNL     1      48.622   2.798   6.080  0.00  0.00    +0.000 HD
ATOM     16  H   UNL     1      48.842   1.140   5.651  0.00  0.00    +0.000 HD
ENDBRANCH   8  12
ENDBRANCH   1   4
BRANCH   1  21
ATOM     17  C   UNL     1      47.184   6.528  12.585  0.00  0.00    +0.000 A 
ATOM     18  C   UNL     1      47.390   5.704  13.700  0.00  0.00    +0.000 A 
ATOM     19  C   UNL     1      46.468   4.710  14.039  0.00  0.00    +0.000 A 
ATOM     20  C   UNL     1      45.331   4.517  13.255  0.00  0.00    +0.000 A 
ATOM     21  C   UNL     1      45.084   5.307  12.120  0.00  0.00    +0.000 A 
ATOM     22  C   UNL     1      46.023   6.308  11.823  0.00  0.00    +0.000 A 
BRANCH  17  26
ATOM     23  C   UNL     1      49.917   9.639  11.421  0.00  0.00    +0.000 A 
ATOM     24  C   UNL     1      50.391   8.352  11.669  0.00  0.00    +0.000 A 
ATOM     25  C   UNL     1      49.501   7.354  12.069  0.00  0.00    +0.000 A 
ATOM     26  C   UNL     1      48.122   7.607  12.212  0.00  0.00    +0.000 A 
ATOM     27  C   UNL     1      47.672   8.913  11.953  0.00  0.00    +0.000 A 
ATOM     28  C   UNL     1      48.560   9.922  11.569  0.00  0.00    +0.000 A 
BRANCH  23  30
ATOM     29  N   UNL     1      51.555  11.500  10.683  0.00  0.00    +0.000 NA
ATOM     30  C   UNL     1      50.822  10.670  11.014  0.00  0.00    +0.000 C 
ENDBRANCH  23  30
ENDBRANCH  17  26
ENDBRANCH   1  21
TORSDOF 5
ENDMDL
MODEL 2
REMARK VINA RESULT:    -8.577      2.882      4.510
REMARK INTER + INTRA:         -12.200
REMARK INTER:                 -11.310
REMARK INTRA:                  -0.890
REMARK UNBOUND:                -1.117
REMARK  Name = 
REMARK  5 active torsions:
REMARK  status: ('A' for Active; 'I' for Inactive)
REMARK    1  A    between atoms: C_2  and  C_3
REMARK    2  A    between atoms: C_6  and  C_7
REMARK    3  A    between atoms: C_11  and  C_12
REMARK    4  A    between atoms: C_12  and  N_13
REMARK    5  A    between atoms: C_17  and  C_18
REMARK                            x       y       z     vdW  Elec       q    Type
REMARK                         _______ _______ _______ _____ _____    ______ ____
ROOT
ATOM      1  C   UNL     1      44.141   4.884  11.443  0.00  0.00    +0.000 C 
ATOM      2  C   UNL     1      42.857   5.261  12.172  0.00  0.00    +0.000 C 
ATOM      3  C   UNL     1      43.388   3.874  12.293  0.00  0.00    +0.000 C 
ENDROOT
BRANCH   1   4
ATOM      4  N   UNL     1      44.105   4.790   9.971  0.00  0.00    +0.000 N 
ATOM      5  C   UNL     1      44.929   3.938   9.221  0.00  0.00    +0.000 A 
ATOM      6  C   UNL     1      45.283   2.654   9.616  0.00  0.00    +0.000 A 
ATOM      7  C   UNL     1      46.033   1.842   8.757  0.00  0.00    +0.000 A 
ATOM      8  C   UNL     1      46.423   2.327   7.511  0.00  0.00    +0.000 A 
ATOM      9  C   UNL     1      46.029   3.615   7.196  0.00  0.00    +0.000 A 
ATOM     10  N   UNL     1      45.297   4.419   8.014  0.00  0.00    +0.000 NA
ATOM     11  H   UNL     1      44.122   5.677   9.473  0.00  0.00    +0.000 HD
BRANCH   8  12
ATOM     12  C   UNL     1      47.217   1.457   6.610  0.00  0.00    +0.000 C 
ATOM     13  N   UNL     1      48.243   2.005   5.891  0.00  0.00    +0.000 N 
ATOM     14  O   UNL     1      46.971   0.262   6.506  0.00  0.00    +0.000 OA
ATOM     15  H   UNL     1      48.535   2.970   5.908  0.00  0.00    +0.000 HD
ATOM     16  H   UNL     1      48.767   1.372   5.299  0.00  0.00    +0.000 HD
ENDBRANCH   8  12
ENDBRANCH   1   4
BRANCH   1  21
ATOM     17  C   UNL     1      47.058   5.697  13.825  0.00  0.00    +0.000 A 
ATOM     18  C   UNL     1      47.803   6.591  13.043  0.00  0.00    +0.000 A 
ATOM     19  C   UNL     1      47.390   6.933  11.752  0.00  0.00    +0.000 A 
ATOM     20  C   UNL     1      46.213   6.395  11.232  0.00  0.00    +0.000 A 
ATOM     21  C   UNL     1      45.424   5.505  11.979  0.00  0.00    +0.000 A 
ATOM     22  C   UNL     1      45.882   5.170  13.263  0.00  0.00    +0.000 A 
BRANCH  17  26
ATOM     23  C   UNL     1      48.226   4.567  17.808  0.00  0.00    +0.000 A 
ATOM     24  C   UNL     1      48.695   5.758  17.256  0.00  0.00    +0.000 A 
ATOM     25  C   UNL     1      48.330   6.106  15.954  0.00  0.00    +0.000 A 
ATOM     26  C   UNL     1      47.478   5.291  15.183  0.00  0.00    +0.000 A 
ATOM     27  C   UNL     1      47.019   4.097  15.765  0.00  0.00    +0.000 A 
ATOM     28  C   UNL     1      47.393   3.734  17.062  0.00  0.00    +0.000 A 
BRANCH  23  30
ATOM     29  N   UNL     1      48.891   3.905  20.219  0.00  0.00    +0.000 NA
ATOM     30  C   UNL     1      48.596   4.200  19.140  0.00  0.00    +0.000 C 
ENDBRANCH  23  30
ENDBRANCH  17  26
ENDBRANCH   1  21
TORSDOF 5
ENDMDL
MODEL 3
REMARK VINA RESULT:    -6.473      5.521      8.662
REMARK INTER + INTRA:          -9.482
REMARK INTER:                  -8.542
REMARK INTRA:                  -0.940
REMARK UNBOUND:                -1.117
REMARK  Name = 
REMARK  5 active torsions:
REMARK  status: ('A' for Active; 'I' for Inactive)
REMARK    1  A    between atoms: C_2  and  C_3
REMARK    2  A    between atoms: C_6  and  C_7
REMARK    3  A    between atoms: C_11  and  C_12
REMARK    4  A    between atoms: C_12  and  N_13
REMARK    5  A    between atoms: C_17  and  C_18
REMARK                            x       y       z     vdW  Elec       q    Type
REMARK                         _______ _______ _______ _____ _____    ______ ____
ROOT
ATOM      1  C   UNL     1      50.122   7.561  16.847  0.00  0.00    +0.000 C 
ATOM      2  C   UNL     1      49.859   8.876  17.571  0.00  0.00    +0.000 C 
ATOM      3  C   UNL     1      51.253   8.361  17.470  0.00  0.00    +0.000 C 
ENDROOT
BRANCH   1   4
ATOM      4  N   UNL     1      49.658   6.311  17.479  0.00  0.00    +0.000 N 
ATOM      5  C   UNL     1      50.384   5.111  17.464  0.00  0.00    +0.000 A 
ATOM      6  C   UNL     1      51.766   5.038  17.583  0.00  0.00    +0.000 A 
ATOM      7  C   UNL     1      52.394   3.789  17.654  0.00  0.00    +0.000 A 
ATOM      8  C   UNL     1      51.630   2.626  17.601  0.00  0.00    +0.000 A 
ATOM      9  C   UNL     1      50.262   2.788  17.482  0.00  0.00    +0.000 A 
ATOM     10  N   UNL     1      49.631   3.991  17.416  0.00  0.00    +0.000 NA
ATOM     11  H   UNL     1      48.700   6.042  17.270  0.00  0.00    +0.000 HD
BRANCH   8  12
ATOM     12  C   UNL     1      52.308   1.308  17.676  0.00  0.00    +0.000 C 
ATOM     13  N   UNL     1      51.594   0.216  18.083  0.00  0.00    +0.000 N 
ATOM     14  O   UNL     1      53.489   1.187  17.374  0.00  0.00    +0.000 OA
ATOM     15  H   UNL     1      50.620   0.203  18.346  0.00  0.00    +0.000 HD
ATOM     16  H   UNL     1      52.093  -0.665  18.107  0.00  0.00    +0.000 HD
ENDBRANCH   8  12
ENDBRANCH   1   4
BRANCH   1  21
ATOM     17  C   UNL     1      48.618   6.871  13.367  0.00  0.00    +0.000 A 
ATOM     18  C   UNL     1      49.505   7.581  12.545  0.00  0.00    +0.000 A 
ATOM     19  C   UNL     1      50.579   8.290  13.091  0.00  0.00    +0.000 A 
ATOM     20  C   UNL     1      50.788   8.286  14.469  0.00  0.00    +0.000 A 
ATOM     21  C   UNL     1      49.936   7.580  15.335  0.00  0.00    +0.000 A 
ATOM     22  C   UNL     1      48.858   6.896  14.752  0.00  0.00    +0.000 A 
BRANCH  17  26
ATOM     23  C   UNL     1      45.189   4.760  11.852  0.00  0.00    +0.000 A 
ATOM     24  C   UNL     1      45.771   4.371  13.058  0.00  0.00    +0.000 A 
ATOM     25  C   UNL     1      46.898   5.046  13.531  0.00  0.00    +0.000 A 
ATOM     26  C   UNL     1      47.457   6.132  12.828  0.00  0.00    +0.000 A 
ATOM     27  C   UNL     1      46.849   6.504  11.618  0.00  0.00    +0.000 A 
ATOM     28  C   UNL     1      45.731   5.823  11.129  0.00  0.00    +0.000 A 
BRANCH  23  30
ATOM     29  N   UNL     1      43.101   3.523  10.959  0.00  0.00    +0.000 NA
ATOM     30  C   UNL     1      44.036   4.073  11.357  0.00  0.00    +0.000 C 
ENDBRANCH  23  30
ENDBRANCH  17  26
ENDBRANCH   1  21
TORSDOF 5
ENDMDL
