MODEL 1
REMARK VINA RESULT:    -7.168      0.000      0.000
REMARK INTER + INTRA:         -10.432
REMARK INTER:                  -9.682
REMARK INTRA:                  -0.750
REMARK UNBOUND:                -0.750
REMARK  Name = 
REMARK  8 active torsions:
REMARK  status: ('A' for Active; 'I' for Inactive)
REMARK    1  A    between atoms: C_1  and  O_2
REMARK    2  A    between atoms: O_2  and  C_3
REMARK    3  A    between atoms: C_7  and  N_8
REMARK    4  A    between atoms: N_8  and  C_9
REMARK    5  A    between atoms: C_9  and  C_10
REMARK    6  A    between atoms: C_14  and  C_15
REMARK    7  A    between atoms: C_19  and  O_20
REMARK    8  A    between atoms: O_20  and  C_21
REMARK                            x       y       z     vdW  Elec       q    Type
REMARK                         _______ _______ _______ _____ _____    ______ ____
ROOT
ATOM      1  C   UNL     1      44.807   4.913  11.400  0.00  0.00    +0.000 A 
ATOM      2  C   UNL     1      45.186   4.027  12.405  0.00  0.00    +0.000 A 
ATOM      3  C   UNL     1      46.256   4.371  13.213  0.00  0.00    +0.000 A 
ATOM      4  N   UNL     1      46.957   5.519  13.088  0.00  0.00    +0.000 NA
ATOM      5  C   UNL     1      46.591   6.381  12.109  0.00  0.00    +0.000 A 
ATOM      6  C   UNL     1      45.541   6.091  11.238  0.00  0.00    +0.000 A 
ENDROOT
BRANCH   5   7
ATOM      7  C   UNL     1      47.350   7.639  12.031  0.00  0.00    +0.000 A 
ATOM      8  C   UNL     1      46.755   8.874  12.295  0.00  0.00    +0.000 A 
ATOM      9  N   UNL     1      47.399  10.066  12.266  0.00  0.00    +0.000 NA
ATOM     10  C   UNL     1      48.713  10.033  11.940  0.00  0.00    +0.000 A 
ATOM     11  C   UNL     1      49.414   8.875  11.635  0.00  0.00    +0.000 A 
ATOM     12  C   UNL     1      48.713   7.673  11.679  0.00  0.00    +0.000 A 
BRANCH  11  13
ATOM     13  O   UNL     1      50.735   9.026  11.319  0.00  0.00    +0.000 OA
ATOM     14  C   UNL     1      51.676   8.775  12.356  0.00  0.00    +0.000 C 
ENDBRANCH  11  13
ENDBRANCH   5   7
BRANCH   1  15
ATOM     15  C   UNL     1      43.629   4.628  10.508  0.00  0.00    +0.000 C 
BRANCH  15  16
ATOM     16  N   UNL     1      44.056   4.528   9.124  0.00  0.00    +0.000 N 
ATOM     17  H   UNL     1      43.318   4.692   8.443  0.00  0.00    +0.000 HD
BRANCH  16  22
ATOM     18  C   UNL     1      46.818   2.640   7.469  0.00  0.00    +0.000 A 
ATOM     19  C   UNL     1      46.458   1.370   7.892  0.00  0.00    +0.000 A 
ATOM     20  N   UNL     1      45.415   1.112   8.714  0.00  0.00    +0.000 NA
ATOM     21  C   UNL     1      44.685   2.185   9.107  0.00  0.00    +0.000 A 
ATOM     22  C   UNL     1      44.940   3.512   8.747  0.00  0.00    +0.000 A 
ATOM     23  C   UNL     1      46.023   3.710   7.884  0.00  0.00    +0.000 A 
BRANCH  18  25
ATOM     24  C   UNL     1      47.604   2.564   5.250  0.00  0.00    +0.000 C 
ATOM     25  O   UNL     1      47.893   2.744   6.635  0.00  0.00    +0.000 OA
ENDBRANCH  18  25
ENDBRANCH  16  22
ENDBRANCH  15  16
ENDBRANCH   1  15
TORSDOF 6
ENDMDL
MODEL 2
REMARK VINA RESULT:    -7.029      1.969      2.845
REMARK INTER + INTRA:         -10.245
REMARK INTER:                  -9.759
REMARK INTRA:                  -0.486
REMARK UNBOUND:                -0.750
REMARK  Name = 
REMARK  8 active torsions:
REMARK  status: ('A' for Active; 'I' for Inactive)
REMARK    1  A    between atoms: C_1  and  O_2
REMARK    2  A    between atoms: O_2  and  C_3
REMARK    3  A    between atoms: C_7  and  N_8
REMARK    4  A    between atoms: N_8  and  C_9
REMARK    5  A    between atoms: C_9  and  C_10
REMARK    6  A    between atoms: C_14  and  C_15
REMARK    7  A    between atoms: C_19  and  O_20
REMARK    8  A    between atoms: O_20  and  C_21
REMARK                            x       y       z     vdW  Elec       q    Type
REMARK                         _______ _______ _______ _____ _____    ______ ____
ROOT
ATOM      1  C   UNL     1      44.755   4.279  11.981  0.00  0.00    +0.000 A 
ATOM      2  C   UNL     1      45.584   3.593  12.866  0.00  0.00    +0.000 A 
ATOM      3  C   UNL     1      46.590   4.299  13.502  0.00  0.00    +0.000 A 
ATOM      4  N   UNL     1      46.819   5.617  13.318  0.00  0.00    +0.000 NA
ATOM      5  C   UNL     1      46.016   6.285  12.455  0.00  0.00    +0.000 A 
ATOM      6  C   UNL     1      44.998   5.636  11.756  0.00  0.00    +0.000 A 
ENDROOT
BRANCH   5   7
ATOM      7  C   UNL     1      46.268   7.728  12.314  0.00  0.00    +0.000 A 
ATOM      8  C   UNL     1      47.563   8.244  12.240  0.00  0.00    +0.000 A 
ATOM      9  N   UNL     1      47.865   9.556  12.085  0.00  0.00    +0.000 NA
ATOM     10  C   UNL     1      46.819  10.412  12.013  0.00  0.00    +0.000 A 
ATOM     11  C   UNL     1      45.488  10.028  12.095  0.00  0.00    +0.000 A 
ATOM     12  C   UNL     1      45.223   8.670  12.252  0.00  0.00    +0.000 A 
BRANCH  11  13
ATOM     13  O   UNL     1      44.558  11.025  12.011  0.00  0.00    +0.000 OA
ATOM     14  C   UNL     1      43.300  10.685  11.441  0.00  0.00    +0.000 C 
ENDBRANCH  11  13
ENDBRANCH   5   7
BRANCH   1  15
ATOM     15  C   UNL     1      43.615   3.589  11.283  0.00  0.00    +0.000 C 
BRANCH  15  16
ATOM     16  N   UNL     1      44.106   2.477  10.490  0.00  0.00    +0.000 N 
ATOM     17  H   UNL     1      44.484   1.705  11.035  0.00  0.00    +0.000 HD
BRANCH  16  22
ATOM     18  C   UNL     1      46.471   2.154   7.620  0.00  0.00    +0.000 A 
ATOM     19  C   UNL     1      46.367   3.451   7.144  0.00  0.00    +0.000 A 
ATOM     20  N   UNL     1      45.543   4.388   7.668  0.00  0.00    +0.000 NA
ATOM     21  C   UNL     1      44.808   4.003   8.740  0.00  0.00    +0.000 A 
ATOM     22  C   UNL     1      44.826   2.730   9.318  0.00  0.00    +0.000 A 
ATOM     23  C   UNL     1      45.710   1.813   8.740  0.00  0.00    +0.000 A 
BRANCH  18  25
ATOM     24  C   UNL     1      48.065   1.904   5.903  0.00  0.00    +0.000 C 
ATOM     25  O   UNL     1      47.352   1.321   6.992  0.00  0.00    +0.000 OA
ENDBRANCH  18  25
ENDBRANCH  16  22
ENDBRANCH  15  16
ENDBRANCH   1  15
TORSDOF 6
ENDMDL
MODEL 3
REMARK VINA RESULT:    -7.006      2.741      7.426
REMARK INTER + INTRA:         -10.213
REMARK INTER:                  -9.444
REMARK INTRA:                  -0.769
REMARK UNBOUND:                -0.750
REMARK  Name = 
REMARK  8 active torsions:
REMARK  status: ('A' for Active; 'I' for Inactive)
REMARK    1  A    between atoms: C_1  and  O_2
REMARK    2  A    between atoms: O_2  and  C_3
REMARK    3  A    between atoms: C_7  and  N_8
REMARK    4  A    between atoms: N_8  and  C_9
REMARK    5  A    between atoms: C_9  and  C_10
REMARK    6  A    between atoms: C_14  and  C_15
REMARK    7  A    between atoms: C_19  and  O_20
REMARK    8  A    between atoms: O_20  and  C_21
REMARK                            x       y       z     vdW  Elec       q    Type
REMARK                         _______ _______ _______ _____ _____    ______ ____
ROOT
ATOM      1  C   UNL     1      44.815   6.137  12.035  0.00  0.00    +0.000 A 
ATOM      2  C   UNL     1      43.442   6.048  12.253  0.00  0.00    +0.000 A 
ATOM      3  C   UNL     1      42.713   5.155  11.488  0.00  0.00    +0.000 A 
ATOM      4  N   UNL     1      43.253   4.358  10.539  0.00  0.00    +0.000 NA
ATOM      5  C   UNL     1      44.588   4.445  10.324  0.00  0.00    +0.000 A 
ATOM      6  C   UNL     1      45.384   5.343  11.036  0.00  0.00    +0.000 A 
ENDROOT
BRANCH   5   7
ATOM      7  C   UNL     1      45.146   3.532   9.314  0.00  0.00    +0.000 A 
ATOM      8  C   UNL     1      45.166   2.150   9.504  0.00  0.00    +0.000 A 
ATOM      9  N   UNL     1      45.641   1.252   8.607  0.00  0.00    +0.000 NA
ATOM     10  C   UNL     1      46.142   1.758   7.455  0.00  0.00    +0.000 A 
ATOM     11  C   UNL     1      46.200   3.111   7.155  0.00  0.00    +0.000 A 
ATOM     12  C   UNL     1      45.699   3.998   8.105  0.00  0.00    +0.000 A 
BRANCH  11  13
ATOM     13  O   UNL     1      46.746   3.447   5.949  0.00  0.00    +0.000 OA
ATOM     14  C   UNL     1      47.686   2.535   5.393  0.00  0.00    +0.000 C 
ENDBRANCH  11  13
ENDBRANCH   5   7
BRANCH   1  15
ATOM     15  C   UNL     1      45.680   7.056  12.854  0.00  0.00    +0.000 C 
BRANCH  15  16
ATOM     16  N   UNL     1      47.044   6.561  12.897  0.00  0.00    +0.000 N 
ATOM     17  H   UNL     1      47.341   6.072  12.056  0.00  0.00    +0.000 HD
BRANCH  16  22
ATOM     18  C   UNL     1      47.435   4.376  15.898  0.00  0.00    +0.000 A 
ATOM     19  C   UNL     1      48.442   5.095  16.524  0.00  0.00    +0.000 A 
ATOM     20  N   UNL     1      49.021   6.200  16.002  0.00  0.00    +0.000 NA
ATOM     21  C   UNL     1      48.544   6.614  14.802  0.00  0.00    +0.000 A 
ATOM     22  C   UNL     1      47.531   5.983  14.074  0.00  0.00    +0.000 A 
ATOM     23  C   UNL     1      46.963   4.855  14.674  0.00  0.00    +0.000 A 
BRANCH  18  25
ATOM     24  C   UNL     1      47.674   2.889  17.709  0.00  0.00    +0.000 C 
ATOM     25  O   UNL     1      46.942   3.283  16.551  0.00  0.00    +0.000 OA
ENDBRANCH  18  25
ENDBRANCH  16  22
ENDBRANCH  15  16
ENDBRANCH   1  15
TORSDOF 6
ENDMDL
MODEL 4
REMARK VINA RESULT:    -6.999      1.738      7.096
REMARK INTER + INTRA:         -10.204
REMARK INTER:                  -9.416
REMARK INTRA:                  -0.788
REMARK UNBOUND:                -0.750
REMARK  Name = 
REMARK  8 active torsions:
REMARK  status: ('A' for Active; 'I' for Inactive)
REMARK    1  A    between atoms: C_1  and  O_2
REMARK    2  A    between atoms: O_2  and  C_3
REMARK    3  A    between atoms: C_7  and  N_8
REMARK    4  A    between atoms: N_8  and  C_9
REMARK    5  A    between atoms: C_9  and  C_10
REMARK    6  A    between atoms: C_14  and  C_15
REMARK    7  A    between atoms: C_19  and  O_20
REMARK    8  A    between atoms: O_20  and  C_21
REMARK                            x       y       z     vdW  Elec       q    Type
REMARK                         _______ _______ _______ _____ _____    ______ ____
ROOT
ATOM      1  C   UNL     1      44.256   4.915  12.083  0.00  0.00    +0.000 A 
ATOM      2  C   UNL     1      43.381   3.913  12.496  0.00  0.00    +0.000 A 
ATOM      3  C   UNL     1      43.245   2.791  11.698  0.00  0.00    +0.000 A 
ATOM      4  N   UNL     1      43.912   2.605  10.538  0.00  0.00    +0.000 NA
ATOM      5  C   UNL     1      44.762   3.579  10.133  0.00  0.00    +0.000 A 
ATOM      6  C   UNL     1      44.931   4.751  10.871  0.00  0.00    +0.000 A 
ENDROOT
BRANCH   5   7
ATOM      7  C   UNL     1      45.502   3.322   8.888  0.00  0.00    +0.000 A 
ATOM      8  C   UNL     1      45.845   4.353   8.011  0.00  0.00    +0.000 A 
ATOM      9  N   UNL     1      46.545   4.191   6.862  0.00  0.00    +0.000 NA
ATOM     10  C   UNL     1      46.917   2.926   6.556  0.00  0.00    +0.000 A 
ATOM     11  C   UNL     1      46.620   1.814   7.332  0.00  0.00    +0.000 A 
ATOM     12  C   UNL     1      45.900   2.027   8.504  0.00  0.00    +0.000 A 
BRANCH  11  13
ATOM     13  O   UNL     1      47.066   0.609   6.868  0.00  0.00    +0.000 OA
ATOM     14  C   UNL     1      46.594  -0.552   7.541  0.00  0.00    +0.000 C 
ENDBRANCH  11  13
ENDBRANCH   5   7
BRANCH   1  15
ATOM     15  C   UNL     1      44.488   6.145  12.917  0.00  0.00    +0.000 C 
BRANCH  15  16
ATOM     16  N   UNL     1      44.333   7.340  12.109  0.00  0.00    +0.000 N 
ATOM     17  H   UNL     1      43.861   7.190  11.221  0.00  0.00    +0.000 HD
BRANCH  16  22
ATOM     18  C   UNL     1      47.733   8.880  12.165  0.00  0.00    +0.000 A 
ATOM     19  C   UNL     1      47.340  10.206  12.088  0.00  0.00    +0.000 A 
ATOM     20  N   UNL     1      46.055  10.611  11.969  0.00  0.00    +0.000 NA
ATOM     21  C   UNL     1      45.119   9.629  11.951  0.00  0.00    +0.000 A 
ATOM     22  C   UNL     1      45.384   8.259  12.027  0.00  0.00    +0.000 A 
ATOM     23  C   UNL     1      46.731   7.907  12.164  0.00  0.00    +0.000 A 
BRANCH  18  25
ATOM     24  C   UNL     1      49.409   7.250  12.454  0.00  0.00    +0.000 C 
ATOM     25  O   UNL     1      49.068   8.625  12.289  0.00  0.00    +0.000 OA
ENDBRANCH  18  25
ENDBRANCH  16  22
ENDBRANCH  15  16
ENDBRANCH   1  15
TORSDOF 6
ENDMDL
MODEL 5
REMARK VINA RESULT:    -6.942      2.774      3.490
REMARK INTER + INTRA:         -10.127
REMARK INTER:                  -9.416
REMARK INTRA:                  -0.710
REMARK UNBOUND:                -0.750
REMARK  Name = 
REMARK  8 active torsions:
REMARK  status: ('A' for Active; 'I' for Inactive)
REMARK    1  A    between atoms: C_1  and  O_2
REMARK    2  A    between atoms: O_2  and  C_3
REMARK    3  A    between atoms: C_7  and  N_8
REMARK    4  A    between atoms: N_8  and  C_9
REMARK    5  A    between atoms: C_9  and  C_10
REMARK    6  A    between atoms: C_14  and  C_15
REMARK    7  A    between atoms: C_19  and  O_20
REMARK    8  A    between atoms: O_20  and  C_21
REMARK                            x       y       z     vdW  Elec       q    Type
REMARK                         _______ _______ _______ _____ _____    ______ ____
ROOT
ATOM      1  C   UNL     1      44.611   4.774  10.897  0.00  0.00    +0.000 A 
ATOM      2  C   UNL     1      43.561   4.025  11.423  0.00  0.00    +0.000 A 
ATOM      3  C   UNL     1      43.618   3.662  12.757  0.00  0.00    +0.000 A 
ATOM      4  N   UNL     1      44.633   3.991  13.585  0.00  0.00    +0.000 NA
ATOM      5  C   UNL     1      45.657   4.717  13.075  0.00  0.00    +0.000 A 
ATOM      6  C   UNL     1      45.683   5.097  11.732  0.00  0.00    +0.000 A 
ENDROOT
BRANCH   5   7
ATOM      7  C   UNL     1      46.723   5.093  14.017  0.00  0.00    +0.000 A 
ATOM      8  C   UNL     1      47.616   6.129  13.740  0.00  0.00    +0.000 A 
ATOM      9  N   UNL     1      48.603   6.543  14.572  0.00  0.00    +0.000 NA
ATOM     10  C   UNL     1      48.722   5.878  15.745  0.00  0.00    +0.000 A 
ATOM     11  C   UNL     1      47.912   4.818  16.128  0.00  0.00    +0.000 A 
ATOM     12  C   UNL     1      46.909   4.428  15.244  0.00  0.00    +0.000 A 
BRANCH  11  13
ATOM     13  O   UNL     1      48.176   4.256  17.345  0.00  0.00    +0.000 OA
ATOM     14  C   UNL     1      49.431   3.601  17.491  0.00  0.00    +0.000 C 
ENDBRANCH  11  13
ENDBRANCH   5   7
BRANCH   1  15
ATOM     15  C   UNL     1      44.600   5.241   9.467  0.00  0.00    +0.000 C 
BRANCH  15  16
ATOM     16  N   UNL     1      44.266   4.142   8.579  0.00  0.00    +0.000 N 
ATOM     17  H   UNL     1      43.329   3.768   8.704  0.00  0.00    +0.000 HD
BRANCH  16  22
ATOM     18  C   UNL     1      47.209   2.312   7.191  0.00  0.00    +0.000 A 
ATOM     19  C   UNL     1      46.894   1.053   7.677  0.00  0.00    +0.000 A 
ATOM     20  N   UNL     1      45.824   0.789   8.461  0.00  0.00    +0.000 NA
ATOM     21  C   UNL     1      45.019   1.842   8.746  0.00  0.00    +0.000 A 
ATOM     22  C   UNL     1      45.222   3.155   8.313  0.00  0.00    +0.000 A 
ATOM     23  C   UNL     1      46.337   3.360   7.495  0.00  0.00    +0.000 A 
BRANCH  18  25
ATOM     24  C   UNL     1      48.075   2.394   5.002  0.00  0.00    +0.000 C 
ATOM     25  O   UNL     1      48.321   2.424   6.406  0.00  0.00    +0.000 OA
ENDBRANCH  18  25
ENDBRANCH  16  22
ENDBRANCH  15  16
ENDBRANCH   1  15
TORSDOF 6
ENDMDL
MODEL 6
REMARK VINA RESULT:    -6.881      2.587      3.829
REMARK INTER + INTRA:         -10.045
REMARK INTER:                  -9.241
REMARK INTRA:                  -0.804
REMARK UNBOUND:                -0.750
REMARK  Name = 
REMARK  8 active torsions:
REMARK  status: ('A' for Active; 'I' for Inactive)
REMARK    1  A    between atoms: C_1  and  O_2
REMARK    2  A    between atoms: O_2  and  C_3
REMARK    3  A    between atoms: C_7  and  N_8
REMARK    4  A    between atoms: N_8  and  C_9
REMARK    5  A    between atoms: C_9  and  C_10
REMARK    6  A    between atoms: C_14  and  C_15
REMARK    7  A    between atoms: C_19  and  O_20
REMARK    8  A    between atoms: O_20  and  C_21
REMARK                            x       y       z     vdW  Elec       q    Type
REMARK                         _______ _______ _______ _____ _____    ______ ____
ROOT
ATOM      1  C   UNL     1      44.695   5.487  11.823  0.00  0.00    +0.000 A 
ATOM      2  C   UNL     1      45.165   6.722  11.383  0.00  0.00    +0.000 A 
ATOM      3  C   UNL     1      46.241   7.288  12.043  0.00  0.00    +0.000 A 
ATOM      4  N   UNL     1      46.868   6.715  13.094  0.00  0.00    +0.000 NA
ATOM      5  C   UNL     1      46.411   5.515  13.526  0.00  0.00    +0.000 A 
ATOM      6  C   UNL     1      45.313   4.895  12.928  0.00  0.00    +0.000 A 
ENDROOT
BRANCH   5   7
ATOM      7  C   UNL     1      47.145   4.901  14.644  0.00  0.00    +0.000 A 
ATOM      8  C   UNL     1      47.192   3.517  14.820  0.00  0.00    +0.000 A 
ATOM      9  N   UNL     1      47.868   2.886  15.810  0.00  0.00    +0.000 NA
ATOM     10  C   UNL     1      48.526   3.677  16.690  0.00  0.00    +0.000 A 
ATOM     11  C   UNL     1      48.540   5.063  16.637  0.00  0.00    +0.000 A 
ATOM     12  C   UNL     1      47.833   5.670  15.601  0.00  0.00    +0.000 A 
BRANCH  11  13
ATOM     13  O   UNL     1      49.250   5.705  17.611  0.00  0.00    +0.000 OA
ATOM     14  C   UNL     1      50.004   6.844  17.212  0.00  0.00    +0.000 C 
ENDBRANCH  11  13
ENDBRANCH   5   7
BRANCH   1  15
ATOM     15  C   UNL     1      43.556   4.790  11.130  0.00  0.00    +0.000 C 
BRANCH  15  16
ATOM     16  N   UNL     1      43.782   4.757   9.697  0.00  0.00    +0.000 N 
ATOM     17  H   UNL     1      42.943   4.880   9.135  0.00  0.00    +0.000 HD
BRANCH  16  22
ATOM     18  C   UNL     1      46.429   3.136   7.623  0.00  0.00    +0.000 A 
ATOM     19  C   UNL     1      46.199   1.827   8.013  0.00  0.00    +0.000 A 
ATOM     20  N   UNL     1      45.280   1.461   8.937  0.00  0.00    +0.000 NA
ATOM     21  C   UNL     1      44.542   2.464   9.473  0.00  0.00    +0.000 A 
ATOM     22  C   UNL     1      44.672   3.820   9.161  0.00  0.00    +0.000 A 
ATOM     23  C   UNL     1      45.628   4.131   8.189  0.00  0.00    +0.000 A 
BRANCH  18  25
ATOM     24  C   UNL     1      47.894   2.176   6.048  0.00  0.00    +0.000 C 
ATOM     25  O   UNL     1      47.387   3.352   6.674  0.00  0.00    +0.000 OA
ENDBRANCH  18  25
ENDBRANCH  16  22
ENDBRANCH  15  16
ENDBRANCH   1  15
TORSDOF 6
ENDMDL
MODEL 7
REMARK VINA RESULT:    -6.863      3.301      4.664
REMARK INTER + INTRA:         -10.020
REMARK INTER:                  -9.237
REMARK INTRA:                  -0.783
REMARK UNBOUND:                -0.750
REMARK  Name = 
REMARK  8 active torsions:
REMARK  status: ('A' for Active; 'I' for Inactive)
REMARK    1  A    between atoms: C_1  and  O_2
REMARK    2  A    between atoms: O_2  and  C_3
REMARK    3  A    between atoms: C_7  and  N_8
REMARK    4  A    between atoms: N_8  and  C_9
REMARK    5  A    between atoms: C_9  and  C_10
REMARK    6  A    between atoms: C_14  and  C_15
REMARK    7  A    between atoms: C_19  and  O_20
REMARK    8  A    between atoms: O_20  and  C_21
REMARK                            x       y       z     vdW  Elec       q    Type
REMARK                         _______ _______ _______ _____ _____    ______ ____
ROOT
ATOM      1  C   UNL     1      46.563   6.629  12.153  0.00  0.00    +0.000 A 
ATOM      2  C   UNL     1      47.758   7.191  11.712  0.00  0.00    +0.000 A 
ATOM      3  C   UNL     1      48.880   7.059  12.512  0.00  0.00    +0.000 A 
ATOM      4  N   UNL     1      48.887   6.416  13.700  0.00  0.00    +0.000 NA
ATOM      5  C   UNL     1      47.724   5.871  14.132  0.00  0.00    +0.000 A 
ATOM      6  C   UNL     1      46.546   5.987  13.393  0.00  0.00    +0.000 A 
ENDROOT
BRANCH   5   7
ATOM      7  C   UNL     1      47.780   5.141  15.408  0.00  0.00    +0.000 A 
ATOM      8  C   UNL     1      46.993   4.013  15.645  0.00  0.00    +0.000 A 
ATOM      9  N   UNL     1      47.013   3.281  16.786  0.00  0.00    +0.000 NA
ATOM     10  C   UNL     1      47.855   3.702  17.758  0.00  0.00    +0.000 A 
ATOM     11  C   UNL     1      48.674   4.818  17.654  0.00  0.00    +0.000 A 
ATOM     12  C   UNL     1      48.622   5.539  16.464  0.00  0.00    +0.000 A 
BRANCH  11  13
ATOM     13  O   UNL     1      49.457   5.103  18.736  0.00  0.00    +0.000 OA
ATOM     14  C   UNL     1      48.880   4.895  20.020  0.00  0.00    +0.000 C 
ENDBRANCH  11  13
ENDBRANCH   5   7
BRANCH   1  15
ATOM     15  C   UNL     1      45.312   6.696  11.319  0.00  0.00    +0.000 C 
BRANCH  15  16
ATOM     16  N   UNL     1      44.620   5.421  11.343  0.00  0.00    +0.000 N 
ATOM     17  H   UNL     1      44.532   5.006  12.267  0.00  0.00    +0.000 HD
BRANCH  16  22
ATOM     18  C   UNL     1      45.639   3.833   8.121  0.00  0.00    +0.000 A 
ATOM     19  C   UNL     1      45.086   2.583   8.345  0.00  0.00    +0.000 A 
ATOM     20  N   UNL     1      44.458   2.224   9.488  0.00  0.00    +0.000 NA
ATOM     21  C   UNL     1      44.363   3.183  10.442  0.00  0.00    +0.000 A 
ATOM     22  C   UNL     1      44.872   4.481  10.338  0.00  0.00    +0.000 A 
ATOM     23  C   UNL     1      45.496   4.793   9.126  0.00  0.00    +0.000 A 
BRANCH  18  25
ATOM     24  C   UNL     1      46.736   2.883   6.266  0.00  0.00    +0.000 C 
ATOM     25  O   UNL     1      46.237   4.051   6.914  0.00  0.00    +0.000 OA
ENDBRANCH  18  25
ENDBRANCH  16  22
ENDBRANCH  15  16
ENDBRANCH   1  15
TORSDOF 6
ENDMDL
MODEL 8
REMARK VINA RESULT:    -6.813      3.086      4.687
REMARK INTER + INTRA:          -9.953
REMARK INTER:                  -9.326
REMARK INTRA:                  -0.627
REMARK UNBOUND:                -0.750
REMARK  Name = 
REMARK  8 active torsions:
REMARK  status: ('A' for Active; 'I' for Inactive)
REMARK    1  A    between atoms: C_1  and  O_2
REMARK    2  A    between atoms: O_2  and  C_3
REMARK    3  A    between atoms: C_7  and  N_8
REMARK    4  A    between atoms: N_8  and  C_9
REMARK    5  A    between atoms: C_9  and  C_10
REMARK    6  A    between atoms: C_14  and  C_15
REMARK    7  A    between atoms: C_19  and  O_20
REMARK    8  A    between atoms: O_20  and  C_21
REMARK                            x       y       z     vdW  Elec       q    Type
REMARK                         _______ _______ _______ _____ _____    ______ ____
ROOT
ATOM      1  C   UNL     1      44.953   5.727  12.241  0.00  0.00    +0.000 A 
ATOM      2  C   UNL     1      45.762   6.733  11.719  0.00  0.00    +0.000 A 
ATOM      3  C   UNL     1      46.992   6.961  12.313  0.00  0.00    +0.000 A 
ATOM      4  N   UNL     1      47.458   6.263  13.371  0.00  0.00    +0.000 NA
ATOM      5  C   UNL     1      46.672   5.285  13.882  0.00  0.00    +0.000 A 
ATOM      6  C   UNL     1      45.408   5.016  13.354  0.00  0.00    +0.000 A 
ENDROOT
BRANCH   5   7
ATOM      7  C   UNL     1      47.231   4.518  15.006  0.00  0.00    +0.000 A 
ATOM      8  C   UNL     1      47.680   3.206  14.849  0.00  0.00    +0.000 A 
ATOM      9  N   UNL     1      48.228   2.452  15.834  0.00  0.00    +0.000 NA
ATOM     10  C   UNL     1      48.322   3.031  17.054  0.00  0.00    +0.000 A 
ATOM     11  C   UNL     1      47.894   4.318  17.345  0.00  0.00    +0.000 A 
ATOM     12  C   UNL     1      47.339   5.057  16.302  0.00  0.00    +0.000 A 
BRANCH  11  13
ATOM     13  O   UNL     1      48.058   4.741  18.633  0.00  0.00    +0.000 OA
ATOM     14  C   UNL     1      47.329   5.897  19.028  0.00  0.00    +0.000 C 
ENDBRANCH  11  13
ENDBRANCH   5   7
BRANCH   1  15
ATOM     15  C   UNL     1      43.622   5.394  11.624  0.00  0.00    +0.000 C 
BRANCH  15  16
ATOM     16  N   UNL     1      43.596   4.007  11.197  0.00  0.00    +0.000 N 
ATOM     17  H   UNL     1      43.684   3.332  11.953  0.00  0.00    +0.000 HD
BRANCH  16  22
ATOM     18  C   UNL     1      45.542   2.049   8.685  0.00  0.00    +0.000 A 
ATOM     19  C   UNL     1      45.818   3.088   7.810  0.00  0.00    +0.000 A 
ATOM     20  N   UNL     1      45.366   4.353   7.968  0.00  0.00    +0.000 NA
ATOM     21  C   UNL     1      44.621   4.586   9.077  0.00  0.00    +0.000 A 
ATOM     22  C   UNL     1      44.279   3.629  10.037  0.00  0.00    +0.000 A 
ATOM     23  C   UNL     1      44.789   2.345   9.823  0.00  0.00    +0.000 A 
BRANCH  18  25
ATOM     24  C   UNL     1      47.059   0.820   7.367  0.00  0.00    +0.000 C 
ATOM     25  O   UNL     1      46.072   0.825   8.396  0.00  0.00    +0.000 OA
ENDBRANCH  18  25
ENDBRANCH  16  22
ENDBRANCH  15  16
ENDBRANCH   1  15
TORSDOF 6
ENDMDL
MODEL 9
REMARK VINA RESULT:    -6.503      3.560      7.579
REMARK INTER + INTRA:          -9.535
REMARK INTER:                  -8.881
REMARK INTRA:                  -0.654
REMARK UNBOUND:                -0.750
REMARK  Name = 
REMARK  8 active torsions:
REMARK  status: ('A' for Active; 'I' for Inactive)
REMARK    1  A    between atoms: C_1  and  O_2
REMARK    2  A    between atoms: O_2  and  C_3
REMARK    3  A    between atoms: C_7  and  N_8
REMARK    4  A    between atoms: N_8  and  C_9
REMARK    5  A    between atoms: C_9  and  C_10
REMARK    6  A    between atoms: C_14  and  C_15
REMARK    7  A    between atoms: C_19  and  O_20
REMARK    8  A    between atoms: O_20  and  C_21
REMARK                            x       y       z     vdW  Elec       q    Type
REMARK                         _______ _______ _______ _____ _____    ______ ____
ROOT
ATOM      1  C   UNL     1      47.520   7.314  13.501  0.00  0.00    +0.000 A 
ATOM      2  C   UNL     1      46.868   8.543  13.434  0.00  0.00    +0.000 A 
ATOM      3  C   UNL     1      45.783   8.665  12.584  0.00  0.00    +0.000 A 
ATOM      4  N   UNL     1      45.314   7.661  11.811  0.00  0.00    +0.000 NA
ATOM      5  C   UNL     1      45.948   6.465  11.872  0.00  0.00    +0.000 A 
ATOM      6  C   UNL     1      47.066   6.274  12.685  0.00  0.00    +0.000 A 
ENDROOT
BRANCH   5   7
ATOM      7  C   UNL     1      45.383   5.384  11.049  0.00  0.00    +0.000 A 
ATOM      8  C   UNL     1      44.535   4.417  11.590  0.00  0.00    +0.000 A 
ATOM      9  N   UNL     1      43.961   3.410  10.886  0.00  0.00    +0.000 NA
ATOM     10  C   UNL     1      44.258   3.352   9.567  0.00  0.00    +0.000 A 
ATOM     11  C   UNL     1      45.102   4.239   8.915  0.00  0.00    +0.000 A 
ATOM     12  C   UNL     1      45.669   5.258   9.677  0.00  0.00    +0.000 A 
BRANCH  11  13
ATOM     13  O   UNL     1      45.298   4.027   7.580  0.00  0.00    +0.000 OA
ATOM     14  C   UNL     1      46.623   3.715   7.167  0.00  0.00    +0.000 C 
ENDBRANCH  11  13
ENDBRANCH   5   7
BRANCH   1  15
ATOM     15  C   UNL     1      48.680   7.093  14.432  0.00  0.00    +0.000 C 
BRANCH  15  16
ATOM     16  N   UNL     1      48.205   6.797  15.771  0.00  0.00    +0.000 N 
ATOM     17  H   UNL     1      48.396   7.524  16.456  0.00  0.00    +0.000 HD
BRANCH  16  22
ATOM     18  C   UNL     1      49.585   3.760  17.446  0.00  0.00    +0.000 A 
ATOM     19  C   UNL     1      48.621   2.858  17.024  0.00  0.00    +0.000 A 
ATOM     20  N   UNL     1      47.542   3.194  16.281  0.00  0.00    +0.000 NA
ATOM     21  C   UNL     1      47.443   4.499  15.928  0.00  0.00    +0.000 A 
ATOM     22  C   UNL     1      48.349   5.504  16.283  0.00  0.00    +0.000 A 
ATOM     23  C   UNL     1      49.451   5.089  17.038  0.00  0.00    +0.000 A 
BRANCH  18  25
ATOM     24  C   UNL     1      51.907   3.783  17.837  0.00  0.00    +0.000 C 
ATOM     25  O   UNL     1      50.623   3.272  18.186  0.00  0.00    +0.000 OA
ENDBRANCH  18  25
ENDBRANCH  16  22
ENDBRANCH  15  16
ENDBRANCH   1  15
TORSDOF 6
ENDMDL
