MODEL 1
REMARK VINA RESULT:    -7.332      0.000      0.000
REMARK INTER + INTRA:         -10.784
REMARK INTER:                  -9.904
REMARK INTRA:                  -0.880
REMARK UNBOUND:                -0.880
REMARK  Name = 
REMARK  6 active torsions:
REMARK  status: ('A' for Active; 'I' for Inactive)
REMARK    1  A    between atoms: C_2  and  C_3
REMARK    2  A    between atoms: N_10  and  C_11
REMARK    3  A    between atoms: C_11  and  C_12
REMARK    4  A    between atoms: C_15  and  C_16
REMARK    5  A    between atoms: C_16  and  N_17
REMARK    6  A    between atoms: C_18  and  C_20
REMARK                            x       y       z     vdW  Elec       q    Type
REMARK                         _______ _______ _______ _____ _____    ______ ____
ROOT
ATOM      1  C   UNL     1      51.460   3.233  17.846  0.00  0.00    +0.000 A 
ATOM      2  C   UNL     1      50.868   2.119  17.237  0.00  0.00    +0.000 A 
ATOM      3  C   UNL     1      49.510   2.127  16.898  0.00  0.00    +0.000 A 
ATOM      4  C   UNL     1      48.718   3.258  17.138  0.00  0.00    +0.000 A 
ATOM      5  C   UNL     1      49.304   4.364  17.765  0.00  0.00    +0.000 A 
ATOM      6  C   UNL     1      50.662   4.356  18.107  0.00  0.00    +0.000 A 
ENDROOT
BRANCH   1   7
ATOM      7  C   UNL     1      52.914   3.215  18.234  0.00  0.00    +0.000 C 
BRANCH   7  15
ATOM      8  C   UNL     1      55.211  -0.562  18.142  0.00  0.00    +0.000 A 
ATOM      9  C   UNL     1      55.636  -1.725  17.522  0.00  0.00    +0.000 A 
ATOM     10  C   UNL     1      55.697  -1.477  16.133  0.00  0.00    +0.000 A 
ATOM     11  C   UNL     1      55.342  -0.162  15.948  0.00  0.00    +0.000 A 
ATOM     12  N   UNL     1      54.998   0.401  17.168  0.00  0.00    +0.000 N 
ATOM     13  C   UNL     1      54.604   1.744  17.326  0.00  0.00    +0.000 C 
ATOM     14  O   UNL     1      55.152   2.610  16.662  0.00  0.00    +0.000 OA
ATOM     15  N   UNL     1      53.513   1.898  18.154  0.00  0.00    +0.000 N 
ATOM     16  H   UNL     1      52.929   1.100  18.380  0.00  0.00    +0.000 HD
BRANCH   8  18
ATOM     17  N   UNL     1      55.074  -0.152  20.688  0.00  0.00    +0.000 NA
ATOM     18  C   UNL     1      55.132  -0.338  19.544  0.00  0.00    +0.000 C 
ENDBRANCH   8  18
ENDBRANCH   7  15
ENDBRANCH   1   7
BRANCH   4  19
ATOM     19  C   UNL     1      47.262   3.281  16.745  0.00  0.00    +0.000 C 
BRANCH  19  20
ATOM     20  N   UNL     1      46.957   4.385  15.872  0.00  0.00    +0.000 N 
ATOM     21  C   UNL     1      46.894   4.203  14.514  0.00  0.00    +0.000 C 
ATOM     22  O   UNL     1      47.244   3.152  13.980  0.00  0.00    +0.000 OA
ATOM     23  H   UNL     1      46.489   5.184  16.290  0.00  0.00    +0.000 HD
BRANCH  21  24
ATOM     24  C   UNL     1      46.397   5.330  13.714  0.00  0.00    +0.000 A 
ATOM     25  C   UNL     1      47.211   6.431  13.487  0.00  0.00    +0.000 A 
ATOM     26  S   UNL     1      46.506   7.601  12.464  0.00  0.00    +0.000 S 
ATOM     27  C   UNL     1      45.125   6.635  12.226  0.00  0.00    +0.000 A 
ATOM     28  N   UNL     1      44.161   6.995  11.336  0.00  0.00    +0.000 NA
ATOM     29  C   UNL     1      43.181   6.159  11.245  0.00  0.00    +0.000 A 
ATOM     30  N   UNL     1      43.053   5.021  11.999  0.00  0.00    +0.000 N 
ATOM     31  C   UNL     1      43.979   4.642  12.942  0.00  0.00    +0.000 A 
ATOM     32  O   UNL     1      43.792   3.670  13.666  0.00  0.00    +0.000 OA
ATOM     33  C   UNL     1      45.147   5.498  13.014  0.00  0.00    +0.000 A 
ATOM     34  H   UNL     1      42.232   4.441  11.923  0.00  0.00    +0.000 HD
ENDBRANCH  21  24
ENDBRANCH  19  20
ENDBRANCH   4  19
TORSDOF 6
ENDMDL
MODEL 2
REMARK VINA RESULT:    -7.329      2.788      4.266
REMARK INTER + INTRA:         -10.780
REMARK INTER:                  -9.937
REMARK INTRA:                  -0.843
REMARK UNBOUND:                -0.880
REMARK  Name = 
REMARK  6 active torsions:
REMARK  status: ('A' for Active; 'I' for Inactive)
REMARK    1  A    between atoms: C_2  and  C_3
REMARK    2  A    between atoms: N_10  and  C_11
REMARK    3  A    between atoms: C_11  and  C_12
REMARK    4  A    between atoms: C_15  and  C_16
REMARK    5  A    between atoms: C_16  and  N_17
REMARK    6  A    between atoms: C_18  and  C_20
REMARK                            x       y       z     vdW  Elec       q    Type
REMARK                         _______ _______ _______ _____ _____    ______ ____
ROOT
ATOM      1  C   UNL     1      50.370   6.559  16.235  0.00  0.00    +0.000 A 
ATOM      2  C   UNL     1      49.038   6.158  16.064  0.00  0.00    +0.000 A 
ATOM      3  C   UNL     1      48.303   6.579  14.950  0.00  0.00    +0.000 A 
ATOM      4  C   UNL     1      48.889   7.392  13.970  0.00  0.00    +0.000 A 
ATOM      5  C   UNL     1      50.214   7.809  14.150  0.00  0.00    +0.000 A 
ATOM      6  C   UNL     1      50.949   7.390  15.265  0.00  0.00    +0.000 A 
ENDROOT
BRANCH   1   7
ATOM      7  C   UNL     1      51.153   6.127  17.446  0.00  0.00    +0.000 C 
BRANCH   7  15
ATOM      8  C   UNL     1      52.101   1.813  17.634  0.00  0.00    +0.000 A 
ATOM      9  C   UNL     1      52.983   0.755  17.782  0.00  0.00    +0.000 A 
ATOM     10  C   UNL     1      54.022   1.176  18.642  0.00  0.00    +0.000 A 
ATOM     11  C   UNL     1      53.727   2.464  19.021  0.00  0.00    +0.000 A 
ATOM     12  N   UNL     1      52.573   2.885  18.375  0.00  0.00    +0.000 N 
ATOM     13  C   UNL     1      51.992   4.154  18.562  0.00  0.00    +0.000 C 
ATOM     14  O   UNL     1      51.995   4.656  19.675  0.00  0.00    +0.000 OA
ATOM     15  N   UNL     1      51.590   4.748  17.385  0.00  0.00    +0.000 N 
ATOM     16  H   UNL     1      51.937   4.402  16.497  0.00  0.00    +0.000 HD
BRANCH   8  18
ATOM     17  N   UNL     1      49.834   1.756  16.399  0.00  0.00    +0.000 NA
ATOM     18  C   UNL     1      50.853   1.777  16.954  0.00  0.00    +0.000 C 
ENDBRANCH   8  18
ENDBRANCH   7  15
ENDBRANCH   1   7
BRANCH   4  19
ATOM     19  C   UNL     1      48.108   7.821  12.753  0.00  0.00    +0.000 C 
BRANCH  19  20
ATOM     20  N   UNL     1      47.372   6.727  12.171  0.00  0.00    +0.000 N 
ATOM     21  C   UNL     1      46.135   6.938  11.617  0.00  0.00    +0.000 C 
ATOM     22  O   UNL     1      45.543   8.009  11.730  0.00  0.00    +0.000 OA
ATOM     23  H   UNL     1      47.906   5.907  11.901  0.00  0.00    +0.000 HD
BRANCH  21  24
ATOM     24  C   UNL     1      45.535   5.815  10.884  0.00  0.00    +0.000 A 
ATOM     25  C   UNL     1      45.850   5.612   9.547  0.00  0.00    +0.000 A 
ATOM     26  S   UNL     1      45.135   4.213   8.882  0.00  0.00    +0.000 S 
ATOM     27  C   UNL     1      44.450   3.788  10.381  0.00  0.00    +0.000 A 
ATOM     28  N   UNL     1      43.803   2.604  10.547  0.00  0.00    +0.000 NA
ATOM     29  C   UNL     1      43.350   2.407  11.740  0.00  0.00    +0.000 A 
ATOM     30  N   UNL     1      43.443   3.308  12.769  0.00  0.00    +0.000 N 
ATOM     31  C   UNL     1      44.048   4.535  12.635  0.00  0.00    +0.000 A 
ATOM     32  O   UNL     1      44.035   5.357  13.545  0.00  0.00    +0.000 OA
ATOM     33  C   UNL     1      44.658   4.764  11.339  0.00  0.00    +0.000 A 
ATOM     34  H   UNL     1      43.015   3.118  13.663  0.00  0.00    +0.000 HD
ENDBRANCH  21  24
ENDBRANCH  19  20
ENDBRANCH   4  19
TORSDOF 6
ENDMDL
MODEL 3
REMARK VINA RESULT:    -7.161      2.220      3.413
REMARK INTER + INTRA:         -10.553
REMARK INTER:                  -9.517
REMARK INTRA:                  -1.035
REMARK UNBOUND:                -0.880
REMARK  Name = 
REMARK  6 active torsions:
REMARK  status: ('A' for Active; 'I' for Inactive)
REMARK    1  A    between atoms: C_2  and  C_3
REMARK    2  A    between atoms: N_10  and  C_11
REMARK    3  A    between atoms: C_11  and  C_12
REMARK    4  A    between atoms: C_15  and  C_16
REMARK    5  A    between atoms: C_16  and  N_17
REMARK    6  A    between atoms: C_18  and  C_20
REMARK                            x       y       z     vdW  Elec       q    Type
REMARK                         _______ _______ _______ _____ _____    ______ ____
ROOT
ATOM      1  C   UNL     1      49.625   4.850  17.581  0.00  0.00    +0.000 A 
ATOM      2  C   UNL     1      48.372   4.650  16.987  0.00  0.00    +0.000 A 
ATOM      3  C   UNL     1      47.948   5.457  15.925  0.00  0.00    +0.000 A 
ATOM      4  C   UNL     1      48.777   6.466  15.416  0.00  0.00    +0.000 A 
ATOM      5  C   UNL     1      50.021   6.678  16.021  0.00  0.00    +0.000 A 
ATOM      6  C   UNL     1      50.444   5.874  17.086  0.00  0.00    +0.000 A 
ENDROOT
BRANCH   1   7
ATOM      7  C   UNL     1      50.070   4.000  18.741  0.00  0.00    +0.000 C 
BRANCH   7  15
ATOM      8  C   UNL     1      54.108   2.508  17.734  0.00  0.00    +0.000 A 
ATOM      9  C   UNL     1      55.103   1.545  17.761  0.00  0.00    +0.000 A 
ATOM     10  C   UNL     1      54.478   0.279  17.793  0.00  0.00    +0.000 A 
ATOM     11  C   UNL     1      53.123   0.503  17.749  0.00  0.00    +0.000 A 
ATOM     12  N   UNL     1      52.878   1.870  17.757  0.00  0.00    +0.000 N 
ATOM     13  C   UNL     1      51.589   2.433  17.701  0.00  0.00    +0.000 C 
ATOM     14  O   UNL     1      50.738   1.911  16.998  0.00  0.00    +0.000 OA
ATOM     15  N   UNL     1      51.411   3.475  18.586  0.00  0.00    +0.000 N 
ATOM     16  H   UNL     1      52.060   3.606  19.354  0.00  0.00    +0.000 HD
BRANCH   8  18
ATOM     17  N   UNL     1      54.461   5.049  17.442  0.00  0.00    +0.000 NA
ATOM     18  C   UNL     1      54.298   3.908  17.573  0.00  0.00    +0.000 C 
ENDBRANCH   8  18
ENDBRANCH   7  15
ENDBRANCH   1   7
BRANCH   4  19
ATOM     19  C   UNL     1      48.335   7.315  14.250  0.00  0.00    +0.000 C 
BRANCH  19  20
ATOM     20  N   UNL     1      47.010   6.970  13.803  0.00  0.00    +0.000 N 
ATOM     21  C   UNL     1      46.750   6.789  12.468  0.00  0.00    +0.000 C 
ATOM     22  O   UNL     1      47.577   7.061  11.600  0.00  0.00    +0.000 OA
ATOM     23  H   UNL     1      46.385   6.563  14.492  0.00  0.00    +0.000 HD
BRANCH  21  24
ATOM     24  C   UNL     1      45.427   6.260  12.114  0.00  0.00    +0.000 A 
ATOM     25  C   UNL     1      44.479   7.094  11.535  0.00  0.00    +0.000 A 
ATOM     26  S   UNL     1      43.035   6.292  11.107  0.00  0.00    +0.000 S 
ATOM     27  C   UNL     1      43.661   4.790  11.607  0.00  0.00    +0.000 A 
ATOM     28  N   UNL     1      42.973   3.636  11.393  0.00  0.00    +0.000 NA
ATOM     29  C   UNL     1      43.576   2.572  11.807  0.00  0.00    +0.000 A 
ATOM     30  N   UNL     1      44.782   2.561  12.459  0.00  0.00    +0.000 N 
ATOM     31  C   UNL     1      45.490   3.706  12.736  0.00  0.00    +0.000 A 
ATOM     32  O   UNL     1      46.520   3.675  13.402  0.00  0.00    +0.000 OA
ATOM     33  C   UNL     1      44.901   4.920  12.206  0.00  0.00    +0.000 A 
ATOM     34  H   UNL     1      45.171   1.700  12.810  0.00  0.00    +0.000 HD
ENDBRANCH  21  24
ENDBRANCH  19  20
ENDBRANCH   4  19
TORSDOF 6
ENDMDL
MODEL 4
REMARK VINA RESULT:    -7.029      3.354     10.179
REMARK INTER + INTRA:         -10.375
REMARK INTER:                  -9.337
REMARK INTRA:                  -1.037
REMARK UNBOUND:                -0.880
REMARK  Name = 
REMARK  6 active torsions:
REMARK  status: ('A' for Active; 'I' for Inactive)
REMARK    1  A    between atoms: C_2  and  C_3
REMARK    2  A    between atoms: N_10  and  C_11
REMARK    3  A    between atoms: C_11  and  C_12
REMARK    4  A    between atoms: C_15  and  C_16
REMARK    5  A    between atoms: C_16  and  N_17
REMARK    6  A    between atoms: C_18  and  C_20
REMARK                            x       y       z     vdW  Elec       q    Type
REMARK                         _______ _______ _______ _____ _____    ______ ____
ROOT
ATOM      1  C   UNL     1      47.589   7.412  13.136  0.00  0.00    +0.000 A 
ATOM      2  C   UNL     1      47.931   8.586  13.821  0.00  0.00    +0.000 A 
ATOM      3  C   UNL     1      48.444   8.529  15.122  0.00  0.00    +0.000 A 
ATOM      4  C   UNL     1      48.649   7.298  15.759  0.00  0.00    +0.000 A 
ATOM      5  C   UNL     1      48.289   6.126  15.082  0.00  0.00    +0.000 A 
ATOM      6  C   UNL     1      47.773   6.182  13.782  0.00  0.00    +0.000 A 
ENDROOT
BRANCH   1   7
ATOM      7  C   UNL     1      47.013   7.474  11.747  0.00  0.00    +0.000 C 
BRANCH   7  15
ATOM      8  C   UNL     1      44.804   3.992  10.151  0.00  0.00    +0.000 A 
ATOM      9  C   UNL     1      44.098   2.811  10.305  0.00  0.00    +0.000 A 
ATOM     10  C   UNL     1      43.404   2.880  11.534  0.00  0.00    +0.000 A 
ATOM     11  C   UNL     1      43.679   4.112  12.077  0.00  0.00    +0.000 A 
ATOM     12  N   UNL     1      44.573   4.790  11.260  0.00  0.00    +0.000 N 
ATOM     13  C   UNL     1      45.043   6.090  11.526  0.00  0.00    +0.000 C 
ATOM     14  O   UNL     1      44.280   6.917  12.003  0.00  0.00    +0.000 OA
ATOM     15  N   UNL     1      46.399   6.232  11.324  0.00  0.00    +0.000 N 
ATOM     16  H   UNL     1      46.991   5.412  11.258  0.00  0.00    +0.000 HD
BRANCH   8  18
ATOM     17  N   UNL     1      46.128   4.709   8.053  0.00  0.00    +0.000 NA
ATOM     18  C   UNL     1      45.536   4.389   8.998  0.00  0.00    +0.000 C 
ENDBRANCH   8  18
ENDBRANCH   7  15
ENDBRANCH   1   7
BRANCH   4  19
ATOM     19  C   UNL     1      49.232   7.234  17.148  0.00  0.00    +0.000 C 
BRANCH  19  20
ATOM     20  N   UNL     1      50.342   6.319  17.226  0.00  0.00    +0.000 N 
ATOM     21  C   UNL     1      50.863   5.958  18.442  0.00  0.00    +0.000 C 
ATOM     22  O   UNL     1      50.522   6.508  19.488  0.00  0.00    +0.000 OA
ATOM     23  H   UNL     1      50.503   5.724  16.418  0.00  0.00    +0.000 HD
BRANCH  21  24
ATOM     24  C   UNL     1      51.866   4.884  18.444  0.00  0.00    +0.000 A 
ATOM     25  C   UNL     1      53.129   5.116  18.970  0.00  0.00    +0.000 A 
ATOM     26  S   UNL     1      54.131   3.735  18.973  0.00  0.00    +0.000 S 
ATOM     27  C   UNL     1      52.881   2.764  18.348  0.00  0.00    +0.000 A 
ATOM     28  N   UNL     1      53.031   1.418  18.226  0.00  0.00    +0.000 NA
ATOM     29  C   UNL     1      51.996   0.806  17.755  0.00  0.00    +0.000 A 
ATOM     30  N   UNL     1      50.841   1.425  17.350  0.00  0.00    +0.000 N 
ATOM     31  C   UNL     1      50.662   2.785  17.413  0.00  0.00    +0.000 A 
ATOM     32  O   UNL     1      49.656   3.320  16.958  0.00  0.00    +0.000 OA
ATOM     33  C   UNL     1      51.761   3.508  18.025  0.00  0.00    +0.000 A 
ATOM     34  H   UNL     1      50.090   0.895  16.934  0.00  0.00    +0.000 HD
ENDBRANCH  21  24
ENDBRANCH  19  20
ENDBRANCH   4  19
TORSDOF 6
ENDMDL
MODEL 5
REMARK VINA RESULT:    -7.006      6.924      8.072
REMARK INTER + INTRA:         -10.343
REMARK INTER:                  -9.338
REMARK INTRA:                  -1.005
REMARK UNBOUND:                -0.880
REMARK  Name = 
REMARK  6 active torsions:
REMARK  status: ('A' for Active; 'I' for Inactive)
REMARK    1  A    between atoms: C_2  and  C_3
REMARK    2  A    between atoms: N_10  and  C_11
REMARK    3  A    between atoms: C_11  and  C_12
REMARK    4  A    between atoms: C_15  and  C_16
REMARK    5  A    between atoms: C_16  and  N_17
REMARK    6  A    between atoms: C_18  and  C_20
REMARK                            x       y       z     vdW  Elec       q    Type
REMARK                         _______ _______ _______ _____ _____    ______ ____
ROOT
ATOM      1  C   UNL     1      50.212   8.941  11.553  0.00  0.00    +0.000 A 
ATOM      2  C   UNL     1      49.355  10.034  11.738  0.00  0.00    +0.000 A 
ATOM      3  C   UNL     1      48.033   9.843  12.155  0.00  0.00    +0.000 A 
ATOM      4  C   UNL     1      47.543   8.557  12.418  0.00  0.00    +0.000 A 
ATOM      5  C   UNL     1      48.392   7.462  12.214  0.00  0.00    +0.000 A 
ATOM      6  C   UNL     1      49.714   7.652  11.794  0.00  0.00    +0.000 A 
ENDROOT
BRANCH   1   7
ATOM      7  C   UNL     1      51.626   9.144  11.080  0.00  0.00    +0.000 C 
BRANCH   7  15
ATOM      8  C   UNL     1      53.803   5.875   9.049  0.00  0.00    +0.000 A 
ATOM      9  C   UNL     1      53.926   4.909   8.065  0.00  0.00    +0.000 A 
ATOM     10  C   UNL     1      53.242   5.371   6.918  0.00  0.00    +0.000 A 
ATOM     11  C   UNL     1      52.751   6.618   7.223  0.00  0.00    +0.000 A 
ATOM     12  N   UNL     1      53.049   6.924   8.543  0.00  0.00    +0.000 N 
ATOM     13  C   UNL     1      52.701   8.139   9.162  0.00  0.00    +0.000 C 
ATOM     14  O   UNL     1      52.763   9.177   8.521  0.00  0.00    +0.000 OA
ATOM     15  N   UNL     1      52.188   7.977  10.431  0.00  0.00    +0.000 N 
ATOM     16  H   UNL     1      51.864   7.067  10.736  0.00  0.00    +0.000 HD
BRANCH   8  18
ATOM     17  N   UNL     1      54.964   5.869  11.355  0.00  0.00    +0.000 NA
ATOM     18  C   UNL     1      54.445   5.869  10.317  0.00  0.00    +0.000 C 
ENDBRANCH   8  18
ENDBRANCH   7  15
ENDBRANCH   1   7
BRANCH   4  19
ATOM     19  C   UNL     1      46.128   8.351  12.897  0.00  0.00    +0.000 C 
BRANCH  19  20
ATOM     20  N   UNL     1      45.694   6.988  12.728  0.00  0.00    +0.000 N 
ATOM     21  C   UNL     1      44.677   6.684  11.859  0.00  0.00    +0.000 C 
ATOM     22  O   UNL     1      43.998   7.555  11.318  0.00  0.00    +0.000 OA
ATOM     23  H   UNL     1      46.347   6.261  13.005  0.00  0.00    +0.000 HD
BRANCH  21  24
ATOM     24  C   UNL     1      44.421   5.260  11.607  0.00  0.00    +0.000 A 
ATOM     25  C   UNL     1      43.704   4.510  12.529  0.00  0.00    +0.000 A 
ATOM     26  S   UNL     1      43.424   2.902  12.031  0.00  0.00    +0.000 S 
ATOM     27  C   UNL     1      44.181   3.180  10.533  0.00  0.00    +0.000 A 
ATOM     28  N   UNL     1      44.174   2.233   9.556  0.00  0.00    +0.000 NA
ATOM     29  C   UNL     1      44.770   2.587   8.467  0.00  0.00    +0.000 A 
ATOM     30  N   UNL     1      45.413   3.784   8.282  0.00  0.00    +0.000 N 
ATOM     31  C   UNL     1      45.484   4.751   9.256  0.00  0.00    +0.000 A 
ATOM     32  O   UNL     1      46.145   5.772   9.096  0.00  0.00    +0.000 OA
ATOM     33  C   UNL     1      44.748   4.440  10.466  0.00  0.00    +0.000 A 
ATOM     34  H   UNL     1      45.912   3.976   7.426  0.00  0.00    +0.000 HD
ENDBRANCH  21  24
ENDBRANCH  19  20
ENDBRANCH   4  19
TORSDOF 6
ENDMDL
MODEL 6
REMARK VINA RESULT:    -6.227      3.446     10.062
REMARK INTER + INTRA:          -9.292
REMARK INTER:                  -8.632
REMARK INTRA:                  -0.660
REMARK UNBOUND:                -0.880
REMARK  Name = 
REMARK  6 active torsions:
REMARK  status: ('A' for Active; 'I' for Inactive)
REMARK    1  A    between atoms: C_2  and  C_3
REMARK    2  A    between atoms: N_10  and  C_11
REMARK    3  A    between atoms: C_11  and  C_12
REMARK    4  A    between atoms: C_15  and  C_16
REMARK    5  A    between atoms: C_16  and  N_17
REMARK    6  A    between atoms: C_18  and  C_20
REMARK                            x       y       z     vdW  Elec       q    Type
REMARK                         _______ _______ _______ _____ _____    ______ ____
ROOT
ATOM      1  C   UNL     1      47.649   5.779  14.599  0.00  0.00    +0.000 A 
ATOM      2  C   UNL     1      48.518   6.461  15.460  0.00  0.00    +0.000 A 
ATOM      3  C   UNL     1      48.878   5.909  16.696  0.00  0.00    +0.000 A 
ATOM      4  C   UNL     1      48.395   4.653  17.088  0.00  0.00    +0.000 A 
ATOM      5  C   UNL     1      47.511   3.980  16.236  0.00  0.00    +0.000 A 
ATOM      6  C   UNL     1      47.148   4.533  15.002  0.00  0.00    +0.000 A 
ENDROOT
BRANCH   1   7
ATOM      7  C   UNL     1      47.242   6.383  13.282  0.00  0.00    +0.000 C 
BRANCH   7  15
ATOM      8  C   UNL     1      44.755   4.000  10.510  0.00  0.00    +0.000 A 
ATOM      9  C   UNL     1      43.950   2.914  10.209  0.00  0.00    +0.000 A 
ATOM     10  C   UNL     1      43.257   2.550  11.384  0.00  0.00    +0.000 A 
ATOM     11  C   UNL     1      43.631   3.444  12.360  0.00  0.00    +0.000 A 
ATOM     12  N   UNL     1      44.585   4.313  11.850  0.00  0.00    +0.000 N 
ATOM     13  C   UNL     1      45.163   5.362  12.591  0.00  0.00    +0.000 C 
ATOM     14  O   UNL     1      44.469   5.994  13.374  0.00  0.00    +0.000 OA
ATOM     15  N   UNL     1      46.527   5.461  12.423  0.00  0.00    +0.000 N 
ATOM     16  H   UNL     1      47.048   4.688  12.025  0.00  0.00    +0.000 HD
BRANCH   8  18
ATOM     17  N   UNL     1      46.150   5.372   8.826  0.00  0.00    +0.000 NA
ATOM     18  C   UNL     1      45.525   4.757   9.586  0.00  0.00    +0.000 C 
ENDBRANCH   8  18
ENDBRANCH   7  15
ENDBRANCH   1   7
BRANCH   4  19
ATOM     19  C   UNL     1      48.807   4.043  18.404  0.00  0.00    +0.000 C 
BRANCH  19  20
ATOM     20  N   UNL     1      50.238   3.939  18.527  0.00  0.00    +0.000 N 
ATOM     21  C   UNL     1      50.926   2.958  17.858  0.00  0.00    +0.000 C 
ATOM     22  O   UNL     1      50.351   2.047  17.266  0.00  0.00    +0.000 OA
ATOM     23  H   UNL     1      50.733   4.770  18.840  0.00  0.00    +0.000 HD
BRANCH  21  24
ATOM     24  C   UNL     1      52.392   3.035  17.888  0.00  0.00    +0.000 A 
ATOM     25  C   UNL     1      53.139   1.911  18.213  0.00  0.00    +0.000 A 
ATOM     26  S   UNL     1      54.824   2.159  18.110  0.00  0.00    +0.000 S 
ATOM     27  C   UNL     1      54.608   3.750  17.547  0.00  0.00    +0.000 A 
ATOM     28  N   UNL     1      55.665   4.499  17.134  0.00  0.00    +0.000 NA
ATOM     29  C   UNL     1      55.351   5.680  16.717  0.00  0.00    +0.000 A 
ATOM     30  N   UNL     1      54.082   6.197  16.720  0.00  0.00    +0.000 N 
ATOM     31  C   UNL     1      52.990   5.494  17.170  0.00  0.00    +0.000 A 
ATOM     32  O   UNL     1      51.882   6.014  17.248  0.00  0.00    +0.000 OA
ATOM     33  C   UNL     1      53.277   4.126  17.560  0.00  0.00    +0.000 A 
ATOM     34  H   UNL     1      53.911   7.150  16.436  0.00  0.00    +0.000 HD
ENDBRANCH  21  24
ENDBRANCH  19  20
ENDBRANCH   4  19
TORSDOF 6
ENDMDL
MODEL 7
REMARK VINA RESULT:    -6.080      3.431     10.658
REMARK INTER + INTRA:          -9.092
REMARK INTER:                  -8.202
REMARK INTRA:                  -0.891
REMARK UNBOUND:                -0.880
REMARK  Name = 
REMARK  6 active torsions:
REMARK  status: ('A' for Active; 'I' for Inactive)
REMARK    1  A    between atoms: C_2  and  C_3
REMARK    2  A    between atoms: N_10  and  C_11
REMARK    3  A    between atoms: C_11  and  C_12
REMARK    4  A    between atoms: C_15  and  C_16
REMARK    5  A    between atoms: C_16  and  N_17
REMARK    6  A    between atoms: C_18  and  C_20
REMARK                            x       y       z     vdW  Elec       q    Type
REMARK                         _______ _______ _______ _____ _____    ______ ____
ROOT
ATOM      1  C   UNL     1      48.199   6.678  14.834  0.00  0.00    +0.000 A 
ATOM      2  C   UNL     1      48.804   6.729  16.097  0.00  0.00    +0.000 A 
ATOM      3  C   UNL     1      48.726   5.638  16.971  0.00  0.00    +0.000 A 
ATOM      4  C   UNL     1      48.064   4.463  16.593  0.00  0.00    +0.000 A 
ATOM      5  C   UNL     1      47.443   4.418  15.339  0.00  0.00    +0.000 A 
ATOM      6  C   UNL     1      47.517   5.510  14.466  0.00  0.00    +0.000 A 
ENDROOT
BRANCH   1   7
ATOM      7  C   UNL     1      48.260   7.860  13.905  0.00  0.00    +0.000 C 
BRANCH   7  15
ATOM      8  C   UNL     1      44.658   8.620  11.457  0.00  0.00    +0.000 A 
ATOM      9  C   UNL     1      43.587   9.403  11.060  0.00  0.00    +0.000 A 
ATOM     10  C   UNL     1      43.968  10.757  11.192  0.00  0.00    +0.000 A 
ATOM     11  C   UNL     1      45.270  10.762  11.632  0.00  0.00    +0.000 A 
ATOM     12  N   UNL     1      45.694   9.457  11.842  0.00  0.00    +0.000 N 
ATOM     13  C   UNL     1      46.989   9.116  12.277  0.00  0.00    +0.000 C 
ATOM     14  O   UNL     1      47.946   9.752  11.864  0.00  0.00    +0.000 OA
ATOM     15  N   UNL     1      46.997   8.147  13.257  0.00  0.00    +0.000 N 
ATOM     16  H   UNL     1      46.147   7.932  13.766  0.00  0.00    +0.000 HD
BRANCH   8  18
ATOM     17  N   UNL     1      44.813   6.048  11.294  0.00  0.00    +0.000 NA
ATOM     18  C   UNL     1      44.744   7.204  11.363  0.00  0.00    +0.000 C 
ENDBRANCH   8  18
ENDBRANCH   7  15
ENDBRANCH   1   7
BRANCH   4  19
ATOM     19  C   UNL     1      48.006   3.275  17.521  0.00  0.00    +0.000 C 
BRANCH  19  20
ATOM     20  N   UNL     1      49.318   2.864  17.953  0.00  0.00    +0.000 N 
ATOM     21  C   UNL     1      50.145   2.172  17.106  0.00  0.00    +0.000 C 
ATOM     22  O   UNL     1      49.757   1.741  16.022  0.00  0.00    +0.000 OA
ATOM     23  H   UNL     1      49.717   3.363  18.743  0.00  0.00    +0.000 HD
BRANCH  21  24
ATOM     24  C   UNL     1      51.526   1.955  17.557  0.00  0.00    +0.000 A 
ATOM     25  C   UNL     1      52.018   0.663  17.686  0.00  0.00    +0.000 A 
ATOM     26  S   UNL     1      53.665   0.601  18.131  0.00  0.00    +0.000 S 
ATOM     27  C   UNL     1      53.794   2.297  18.083  0.00  0.00    +0.000 A 
ATOM     28  N   UNL     1      54.995   2.915  18.241  0.00  0.00    +0.000 NA
ATOM     29  C   UNL     1      54.947   4.203  18.164  0.00  0.00    +0.000 A 
ATOM     30  N   UNL     1      53.799   4.932  17.991  0.00  0.00    +0.000 N 
ATOM     31  C   UNL     1      52.558   4.353  17.873  0.00  0.00    +0.000 A 
ATOM     32  O   UNL     1      51.538   5.032  17.813  0.00  0.00    +0.000 OA
ATOM     33  C   UNL     1      52.571   2.903  17.857  0.00  0.00    +0.000 A 
ATOM     34  H   UNL     1      53.821   5.940  17.999  0.00  0.00    +0.000 HD
ENDBRANCH  21  24
ENDBRANCH  19  20
ENDBRANCH   4  19
TORSDOF 6
ENDMDL
MODEL 8
REMARK VINA RESULT:    -5.758      4.666      7.034
REMARK INTER + INTRA:          -8.658
REMARK INTER:                  -7.753
REMARK INTRA:                  -0.905
REMARK UNBOUND:                -0.880
REMARK  Name = 
REMARK  6 active torsions:
REMARK  status: ('A' for Active; 'I' for Inactive)
REMARK    1  A    between atoms: C_2  and  C_3
REMARK    2  A    between atoms: N_10  and  C_11
REMARK    3  A    between atoms: C_11  and  C_12
REMARK    4  A    between atoms: C_15  and  C_16
REMARK    5  A    between atoms: C_16  and  N_17
REMARK    6  A    between atoms: C_18  and  C_20
REMARK                            x       y       z     vdW  Elec       q    Type
REMARK                         _______ _______ _______ _____ _____    ______ ____
ROOT
ATOM      1  C   UNL     1      47.601   6.792  13.881  0.00  0.00    +0.000 A 
ATOM      2  C   UNL     1      47.149   5.479  14.064  0.00  0.00    +0.000 A 
ATOM      3  C   UNL     1      46.273   4.890  13.145  0.00  0.00    +0.000 A 
ATOM      4  C   UNL     1      45.846   5.592  12.011  0.00  0.00    +0.000 A 
ATOM      5  C   UNL     1      46.281   6.912  11.838  0.00  0.00    +0.000 A 
ATOM      6  C   UNL     1      47.155   7.503  12.758  0.00  0.00    +0.000 A 
ENDROOT
BRANCH   1   7
ATOM      7  C   UNL     1      48.523   7.435  14.883  0.00  0.00    +0.000 C 
BRANCH   7  15
ATOM      8  C   UNL     1      50.772   4.668  17.497  0.00  0.00    +0.000 A 
ATOM      9  C   UNL     1      51.948   4.147  18.009  0.00  0.00    +0.000 A 
ATOM     10  C   UNL     1      52.910   5.182  18.022  0.00  0.00    +0.000 A 
ATOM     11  C   UNL     1      52.284   6.312  17.551  0.00  0.00    +0.000 A 
ATOM     12  N   UNL     1      50.982   6.001  17.182  0.00  0.00    +0.000 N 
ATOM     13  C   UNL     1      50.068   6.944  16.676  0.00  0.00    +0.000 C 
ATOM     14  O   UNL     1      50.060   8.077  17.134  0.00  0.00    +0.000 OA
ATOM     15  N   UNL     1      49.353   6.483  15.592  0.00  0.00    +0.000 N 
ATOM     16  H   UNL     1      49.670   5.665  15.085  0.00  0.00    +0.000 HD
BRANCH   8  18
ATOM     17  N   UNL     1      48.499   3.449  17.368  0.00  0.00    +0.000 NA
ATOM     18  C   UNL     1      49.519   4.000  17.426  0.00  0.00    +0.000 C 
ENDBRANCH   8  18
ENDBRANCH   7  15
ENDBRANCH   1   7
BRANCH   4  19
ATOM     19  C   UNL     1      44.927   4.948  11.003  0.00  0.00    +0.000 C 
BRANCH  19  20
ATOM     20  N   UNL     1      45.616   3.985  10.182  0.00  0.00    +0.000 N 
ATOM     21  C   UNL     1      44.934   2.940   9.614  0.00  0.00    +0.000 C 
ATOM     22  O   UNL     1      43.765   2.690   9.901  0.00  0.00    +0.000 OA
ATOM     23  H   UNL     1      46.507   4.274   9.787  0.00  0.00    +0.000 HD
BRANCH  21  24
ATOM     24  C   UNL     1      45.669   2.114   8.646  0.00  0.00    +0.000 A 
ATOM     25  C   UNL     1      45.610   0.730   8.730  0.00  0.00    +0.000 A 
ATOM     26  S   UNL     1      46.447  -0.066   7.474  0.00  0.00    +0.000 S 
ATOM     27  C   UNL     1      46.845   1.414   6.732  0.00  0.00    +0.000 A 
ATOM     28  N   UNL     1      47.459   1.448   5.520  0.00  0.00    +0.000 NA
ATOM     29  C   UNL     1      47.684   2.638   5.070  0.00  0.00    +0.000 A 
ATOM     30  N   UNL     1      47.393   3.795   5.745  0.00  0.00    +0.000 N 
ATOM     31  C   UNL     1      46.814   3.807   6.991  0.00  0.00    +0.000 A 
ATOM     32  O   UNL     1      46.651   4.853   7.611  0.00  0.00    +0.000 OA
ATOM     33  C   UNL     1      46.454   2.497   7.499  0.00  0.00    +0.000 A 
ATOM     34  H   UNL     1      47.649   4.694   5.364  0.00  0.00    +0.000 HD
ENDBRANCH  21  24
ENDBRANCH  19  20
ENDBRANCH   4  19
TORSDOF 6
ENDMDL
MODEL 9
REMARK VINA RESULT:    -5.527      4.272      9.238
REMARK INTER + INTRA:          -8.345
REMARK INTER:                  -7.394
REMARK INTRA:                  -0.951
REMARK UNBOUND:                -0.880
REMARK  Name = 
REMARK  6 active torsions:
REMARK  status: ('A' for Active; 'I' for Inactive)
REMARK    1  A    between atoms: C_2  and  C_3
REMARK    2  A    between atoms: N_10  and  C_11
REMARK    3  A    between atoms: C_11  and  C_12
REMARK    4  A    between atoms: C_15  and  C_16
REMARK    5  A    between atoms: C_16  and  N_17
REMARK    6  A    between atoms: C_18  and  C_20
REMARK                            x       y       z     vdW  Elec       q    Type
REMARK                         _______ _______ _______ _____ _____    ______ ____
ROOT
ATOM      1  C   UNL     1      47.895   6.268  14.691  0.00  0.00    +0.000 A 
ATOM      2  C   UNL     1      48.628   6.447  15.872  0.00  0.00    +0.000 A 
ATOM      3  C   UNL     1      48.651   5.453  16.857  0.00  0.00    +0.000 A 
ATOM      4  C   UNL     1      47.961   4.247  16.674  0.00  0.00    +0.000 A 
ATOM      5  C   UNL     1      47.212   4.075  15.503  0.00  0.00    +0.000 A 
ATOM      6  C   UNL     1      47.186   5.070  14.519  0.00  0.00    +0.000 A 
ENDROOT
BRANCH   1   7
ATOM      7  C   UNL     1      47.850   7.347  13.644  0.00  0.00    +0.000 C 
BRANCH   7  15
ATOM      8  C   UNL     1      51.591   9.128  12.100  0.00  0.00    +0.000 A 
ATOM      9  C   UNL     1      52.828   9.042  11.484  0.00  0.00    +0.000 A 
ATOM     10  C   UNL     1      52.779   7.971  10.564  0.00  0.00    +0.000 A 
ATOM     11  C   UNL     1      51.505   7.457  10.619  0.00  0.00    +0.000 A 
ATOM     12  N   UNL     1      50.776   8.129  11.590  0.00  0.00    +0.000 N 
ATOM     13  C   UNL     1      49.427   7.854  11.883  0.00  0.00    +0.000 C 
ATOM     14  O   UNL     1      48.661   7.578  10.973  0.00  0.00    +0.000 OA
ATOM     15  N   UNL     1      49.162   7.806  13.235  0.00  0.00    +0.000 N 
ATOM     16  H   UNL     1      49.922   7.712  13.899  0.00  0.00    +0.000 HD
BRANCH   8  18
ATOM     17  N   UNL     1      50.826  10.977  13.732  0.00  0.00    +0.000 NA
ATOM     18  C   UNL     1      51.170  10.143  13.002  0.00  0.00    +0.000 C 
ENDBRANCH   8  18
ENDBRANCH   7  15
ENDBRANCH   1   7
BRANCH   4  19
ATOM     19  C   UNL     1      48.010   3.162  17.720  0.00  0.00    +0.000 C 
BRANCH  19  20
ATOM     20  N   UNL     1      49.362   2.817  18.077  0.00  0.00    +0.000 N 
ATOM     21  C   UNL     1      50.173   2.162  17.185  0.00  0.00    +0.000 C 
ATOM     22  O   UNL     1      49.745   1.708  16.126  0.00  0.00    +0.000 OA
ATOM     23  H   UNL     1      49.781   3.338  18.843  0.00  0.00    +0.000 HD
BRANCH  21  24
ATOM     24  C   UNL     1      51.586   2.014  17.556  0.00  0.00    +0.000 A 
ATOM     25  C   UNL     1      52.139   0.748  17.690  0.00  0.00    +0.000 A 
ATOM     26  S   UNL     1      53.810   0.766  18.035  0.00  0.00    +0.000 S 
ATOM     27  C   UNL     1      53.865   2.464  17.934  0.00  0.00    +0.000 A 
ATOM     28  N   UNL     1      55.046   3.134  18.002  0.00  0.00    +0.000 NA
ATOM     29  C   UNL     1      54.939   4.416  17.894  0.00  0.00    +0.000 A 
ATOM     30  N   UNL     1      53.753   5.093  17.772  0.00  0.00    +0.000 N 
ATOM     31  C   UNL     1      52.533   4.461  17.745  0.00  0.00    +0.000 A 
ATOM     32  O   UNL     1      51.484   5.096  17.729  0.00  0.00    +0.000 OA
ATOM     33  C   UNL     1      52.606   3.012  17.767  0.00  0.00    +0.000 A 
ATOM     34  H   UNL     1      53.733   6.101  17.752  0.00  0.00    +0.000 HD
ENDBRANCH  21  24
ENDBRANCH  19  20
ENDBRANCH   4  19
TORSDOF 6
ENDMDL
