MODEL 1
REMARK VINA RESULT:    -7.881      0.000      0.000
REMARK INTER + INTRA:         -11.556
REMARK INTER:                 -10.645
REMARK INTRA:                  -0.911
REMARK UNBOUND:                -0.911
REMARK  Name = 
REMARK  6 active torsions:
REMARK  status: ('A' for Active; 'I' for Inactive)
REMARK    1  A    between atoms: C_2  and  C_3
REMARK    2  A    between atoms: C_7  and  C_8
REMARK    3  A    between atoms: C_8  and  C_9
REMARK    4  A    between atoms: C_12  and  C_13
REMARK    5  A    between atoms: C_13  and  N_14
REMARK    6  A    between atoms: C_15  and  C_17
REMARK                            x       y       z     vdW  Elec       q    Type
REMARK                         _______ _______ _______ _____ _____    ______ ____
ROOT
ATOM      1  C   UNL     1      47.505   7.908  13.633  0.00  0.00    +0.000 C 
ENDROOT
BRANCH   1   5
ATOM      2  C   UNL     1      45.204   5.057  11.325  0.00  0.00    +0.000 A 
ATOM      3  C   UNL     1      45.043   6.433  11.121  0.00  0.00    +0.000 A 
ATOM      4  C   UNL     1      45.765   7.357  11.883  0.00  0.00    +0.000 A 
ATOM      5  C   UNL     1      46.675   6.922  12.854  0.00  0.00    +0.000 A 
ATOM      6  C   UNL     1      46.794   5.548  13.098  0.00  0.00    +0.000 A 
ATOM      7  C   UNL     1      46.073   4.624  12.336  0.00  0.00    +0.000 A 
BRANCH   2   8
ATOM      8  C   UNL     1      44.475   4.059  10.455  0.00  0.00    +0.000 C 
BRANCH   8  13
ATOM      9  C   UNL     1      46.253   1.769   7.960  0.00  0.00    +0.000 A 
ATOM     10  C   UNL     1      46.708   2.689   7.010  0.00  0.00    +0.000 A 
ATOM     11  C   UNL     1      46.464   4.051   7.188  0.00  0.00    +0.000 A 
ATOM     12  C   UNL     1      45.754   4.495   8.309  0.00  0.00    +0.000 A 
ATOM     13  C   UNL     1      45.272   3.583   9.259  0.00  0.00    +0.000 A 
ATOM     14  C   UNL     1      45.541   2.216   9.080  0.00  0.00    +0.000 A 
BRANCH   9  16
ATOM     15  N   UNL     1      46.719  -0.765   7.647  0.00  0.00    +0.000 NA
ATOM     16  C   UNL     1      46.508   0.371   7.785  0.00  0.00    +0.000 C 
ENDBRANCH   9  16
ENDBRANCH   8  13
ENDBRANCH   2   8
ENDBRANCH   1   5
BRANCH   1  17
ATOM     17  N   UNL     1      47.882   7.382  14.918  0.00  0.00    +0.000 N 
ATOM     18  C   UNL     1      49.172   6.996  15.176  0.00  0.00    +0.000 C 
ATOM     19  O   UNL     1      50.069   7.118  14.345  0.00  0.00    +0.000 OA
ATOM     20  H   UNL     1      47.132   7.053  15.518  0.00  0.00    +0.000 HD
BRANCH  18  21
ATOM     21  C   UNL     1      49.443   6.494  16.527  0.00  0.00    +0.000 A 
ATOM     22  C   UNL     1      50.235   7.236  17.393  0.00  0.00    +0.000 A 
ATOM     23  S   UNL     1      50.374   6.548  18.948  0.00  0.00    +0.000 S 
ATOM     24  C   UNL     1      49.430   5.205  18.499  0.00  0.00    +0.000 A 
ATOM     25  N   UNL     1      49.167   4.207  19.383  0.00  0.00    +0.000 NA
ATOM     26  C   UNL     1      48.471   3.233  18.898  0.00  0.00    +0.000 A 
ATOM     27  N   UNL     1      48.013   3.169  17.607  0.00  0.00    +0.000 N 
ATOM     28  C   UNL     1      48.225   4.167  16.688  0.00  0.00    +0.000 A 
ATOM     29  O   UNL     1      47.767   4.099  15.553  0.00  0.00    +0.000 OA
ATOM     30  C   UNL     1      49.009   5.284  17.184  0.00  0.00    +0.000 A 
ATOM     31  H   UNL     1      47.473   2.379  17.288  0.00  0.00    +0.000 HD
ENDBRANCH  18  21
ENDBRANCH   1  17
TORSDOF 6
ENDMDL
MODEL 2
REMARK VINA RESULT:    -7.856      1.810      2.244
REMARK INTER + INTRA:         -11.523
REMARK INTER:                 -10.485
REMARK INTRA:                  -1.037
REMARK UNBOUND:                -0.911
REMARK  Name = 
REMARK  6 active torsions:
REMARK  status: ('A' for Active; 'I' for Inactive)
REMARK    1  A    between atoms: C_2  and  C_3
REMARK    2  A    between atoms: C_7  and  C_8
REMARK    3  A    between atoms: C_8  and  C_9
REMARK    4  A    between atoms: C_12  and  C_13
REMARK    5  A    between atoms: C_13  and  N_14
REMARK    6  A    between atoms: C_15  and  C_17
REMARK                            x       y       z     vdW  Elec       q    Type
REMARK                         _______ _______ _______ _____ _____    ______ ____
ROOT
ATOM      1  C   UNL     1      47.965   7.207  13.814  0.00  0.00    +0.000 C 
ENDROOT
BRANCH   1   5
ATOM      2  C   UNL     1      45.399   4.910  11.189  0.00  0.00    +0.000 A 
ATOM      3  C   UNL     1      45.676   6.255  10.915  0.00  0.00    +0.000 A 
ATOM      4  C   UNL     1      46.483   7.007  11.775  0.00  0.00    +0.000 A 
ATOM      5  C   UNL     1      47.042   6.424  12.918  0.00  0.00    +0.000 A 
ATOM      6  C   UNL     1      46.718   5.096  13.223  0.00  0.00    +0.000 A 
ATOM      7  C   UNL     1      45.912   4.343  12.364  0.00  0.00    +0.000 A 
BRANCH   2   8
ATOM      8  C   UNL     1      44.583   4.080  10.225  0.00  0.00    +0.000 C 
BRANCH   8  13
ATOM      9  C   UNL     1      46.339   1.674   7.825  0.00  0.00    +0.000 A 
ATOM     10  C   UNL     1      46.792   2.548   6.834  0.00  0.00    +0.000 A 
ATOM     11  C   UNL     1      46.554   3.918   6.952  0.00  0.00    +0.000 A 
ATOM     12  C   UNL     1      45.852   4.415   8.055  0.00  0.00    +0.000 A 
ATOM     13  C   UNL     1      45.372   3.548   9.048  0.00  0.00    +0.000 A 
ATOM     14  C   UNL     1      45.635   2.173   8.928  0.00  0.00    +0.000 A 
BRANCH   9  16
ATOM     15  N   UNL     1      46.787  -0.875   7.624  0.00  0.00    +0.000 NA
ATOM     16  C   UNL     1      46.588   0.268   7.712  0.00  0.00    +0.000 C 
ENDBRANCH   9  16
ENDBRANCH   8  13
ENDBRANCH   2   8
ENDBRANCH   1   5
BRANCH   1  17
ATOM     17  N   UNL     1      47.870   6.771  15.182  0.00  0.00    +0.000 N 
ATOM     18  C   UNL     1      48.993   6.490  15.916  0.00  0.00    +0.000 C 
ATOM     19  O   UNL     1      50.125   6.636  15.460  0.00  0.00    +0.000 OA
ATOM     20  H   UNL     1      46.969   6.419  15.489  0.00  0.00    +0.000 HD
BRANCH  18  21
ATOM     21  C   UNL     1      48.773   6.075  17.305  0.00  0.00    +0.000 A 
ATOM     22  C   UNL     1      49.030   4.764  17.683  0.00  0.00    +0.000 A 
ATOM     23  S   UNL     1      48.804   4.478  19.350  0.00  0.00    +0.000 S 
ATOM     24  C   UNL     1      48.298   6.081  19.613  0.00  0.00    +0.000 A 
ATOM     25  N   UNL     1      47.935   6.507  20.852  0.00  0.00    +0.000 NA
ATOM     26  C   UNL     1      47.537   7.734  20.900  0.00  0.00    +0.000 A 
ATOM     27  N   UNL     1      47.470   8.575  19.819  0.00  0.00    +0.000 N 
ATOM     28  C   UNL     1      47.856   8.201  18.555  0.00  0.00    +0.000 A 
ATOM     29  O   UNL     1      47.823   8.990  17.617  0.00  0.00    +0.000 OA
ATOM     30  C   UNL     1      48.307   6.825  18.447  0.00  0.00    +0.000 A 
ATOM     31  H   UNL     1      47.149   9.527  19.922  0.00  0.00    +0.000 HD
ENDBRANCH  18  21
ENDBRANCH   1  17
TORSDOF 6
ENDMDL
MODEL 3
REMARK VINA RESULT:    -7.800      1.219      1.895
REMARK INTER + INTRA:         -11.447
REMARK INTER:                 -10.265
REMARK INTRA:                  -1.182
REMARK UNBOUND:                -0.911
REMARK  Name = 
REMARK  6 active torsions:
REMARK  status: ('A' for Active; 'I' for Inactive)
REMARK    1  A    between atoms: C_2  and  C_3
REMARK    2  A    between atoms: C_7  and  C_8
REMARK    3  A    between atoms: C_8  and  C_9
REMARK    4  A    between atoms: C_12  and  C_13
REMARK    5  A    between atoms: C_13  and  N_14
REMARK    6  A    between atoms: C_15  and  C_17
REMARK                            x       y       z     vdW  Elec       q    Type
REMARK                         _______ _______ _______ _____ _____    ______ ____
ROOT
ATOM      1  C   UNL     1      47.516   8.329  13.674  0.00  0.00    +0.000 C 
ENDROOT
BRANCH   1   5
ATOM      2  C   UNL     1      44.765   6.160  11.128  0.00  0.00    +0.000 A 
ATOM      3  C   UNL     1      45.941   5.552  11.586  0.00  0.00    +0.000 A 
ATOM      4  C   UNL     1      46.844   6.258  12.386  0.00  0.00    +0.000 A 
ATOM      5  C   UNL     1      46.581   7.582  12.758  0.00  0.00    +0.000 A 
ATOM      6  C   UNL     1      45.435   8.209  12.252  0.00  0.00    +0.000 A 
ATOM      7  C   UNL     1      44.531   7.503  11.453  0.00  0.00    +0.000 A 
BRANCH   2   8
ATOM      8  C   UNL     1      43.757   5.375  10.320  0.00  0.00    +0.000 C 
BRANCH   8  13
ATOM      9  C   UNL     1      45.617   3.129   7.844  0.00  0.00    +0.000 A 
ATOM     10  C   UNL     1      45.436   1.869   8.419  0.00  0.00    +0.000 A 
ATOM     11  C   UNL     1      44.691   1.739   9.592  0.00  0.00    +0.000 A 
ATOM     12  C   UNL     1      44.137   2.871  10.198  0.00  0.00    +0.000 A 
ATOM     13  C   UNL     1      44.328   4.146   9.646  0.00  0.00    +0.000 A 
ATOM     14  C   UNL     1      45.063   4.262   8.454  0.00  0.00    +0.000 A 
BRANCH   9  16
ATOM     15  N   UNL     1      46.988   3.373   5.653  0.00  0.00    +0.000 NA
ATOM     16  C   UNL     1      46.375   3.266   6.636  0.00  0.00    +0.000 C 
ENDBRANCH   9  16
ENDBRANCH   8  13
ENDBRANCH   2   8
ENDBRANCH   1   5
BRANCH   1  17
ATOM     17  N   UNL     1      47.837   7.556  14.844  0.00  0.00    +0.000 N 
ATOM     18  C   UNL     1      49.062   6.956  14.984  0.00  0.00    +0.000 C 
ATOM     19  O   UNL     1      49.951   7.082  14.144  0.00  0.00    +0.000 OA
ATOM     20  H   UNL     1      47.059   7.245  15.417  0.00  0.00    +0.000 HD
BRANCH  18  21
ATOM     21  C   UNL     1      49.284   6.213  16.228  0.00  0.00    +0.000 A 
ATOM     22  C   UNL     1      50.299   6.598  17.093  0.00  0.00    +0.000 A 
ATOM     23  S   UNL     1      50.359   5.680  18.529  0.00  0.00    +0.000 S 
ATOM     24  C   UNL     1      49.068   4.696  18.018  0.00  0.00    +0.000 A 
ATOM     25  N   UNL     1      48.613   3.677  18.795  0.00  0.00    +0.000 NA
ATOM     26  C   UNL     1      47.656   2.989  18.268  0.00  0.00    +0.000 A 
ATOM     27  N   UNL     1      47.110   3.230  17.033  0.00  0.00    +0.000 N 
ATOM     28  C   UNL     1      47.513   4.266  16.227  0.00  0.00    +0.000 A 
ATOM     29  O   UNL     1      46.977   4.479  15.145  0.00  0.00    +0.000 OA
ATOM     30  C   UNL     1      48.594   5.067  16.773  0.00  0.00    +0.000 A 
ATOM     31  H   UNL     1      46.361   2.655  16.677  0.00  0.00    +0.000 HD
ENDBRANCH  18  21
ENDBRANCH   1  17
TORSDOF 6
ENDMDL
MODEL 4
REMARK VINA RESULT:    -7.452      2.415      4.057
REMARK INTER + INTRA:         -10.977
REMARK INTER:                  -9.664
REMARK INTRA:                  -1.313
REMARK UNBOUND:                -0.911
REMARK  Name = 
REMARK  6 active torsions:
REMARK  status: ('A' for Active; 'I' for Inactive)
REMARK    1  A    between atoms: C_2  and  C_3
REMARK    2  A    between atoms: C_7  and  C_8
REMARK    3  A    between atoms: C_8  and  C_9
REMARK    4  A    between atoms: C_12  and  C_13
REMARK    5  A    between atoms: C_13  and  N_14
REMARK    6  A    between atoms: C_15  and  C_17
REMARK                            x       y       z     vdW  Elec       q    Type
REMARK                         _______ _______ _______ _____ _____    ______ ____
ROOT
ATOM      1  C   UNL     1      46.961   5.363  14.442  0.00  0.00    +0.000 C 
ENDROOT
BRANCH   1   5
ATOM      2  C   UNL     1      45.079   4.533  10.632  0.00  0.00    +0.000 A 
ATOM      3  C   UNL     1      45.659   5.783  10.882  0.00  0.00    +0.000 A 
ATOM      4  C   UNL     1      46.245   6.064  12.120  0.00  0.00    +0.000 A 
ATOM      5  C   UNL     1      46.275   5.093  13.129  0.00  0.00    +0.000 A 
ATOM      6  C   UNL     1      45.644   3.863  12.900  0.00  0.00    +0.000 A 
ATOM      7  C   UNL     1      45.060   3.582  11.661  0.00  0.00    +0.000 A 
BRANCH   2   8
ATOM      8  C   UNL     1      44.508   4.208   9.271  0.00  0.00    +0.000 C 
BRANCH   8  13
ATOM      9  C   UNL     1      46.541   1.489   7.508  0.00  0.00    +0.000 A 
ATOM     10  C   UNL     1      47.258   2.239   6.572  0.00  0.00    +0.000 A 
ATOM     11  C   UNL     1      47.106   3.625   6.526  0.00  0.00    +0.000 A 
ATOM     12  C   UNL     1      46.228   4.263   7.408  0.00  0.00    +0.000 A 
ATOM     13  C   UNL     1      45.484   3.523   8.339  0.00  0.00    +0.000 A 
ATOM     14  C   UNL     1      45.661   2.130   8.389  0.00  0.00    +0.000 A 
BRANCH   9  16
ATOM     15  N   UNL     1      46.833  -1.088   7.612  0.00  0.00    +0.000 NA
ATOM     16  C   UNL     1      46.700   0.067   7.564  0.00  0.00    +0.000 C 
ENDBRANCH   9  16
ENDBRANCH   8  13
ENDBRANCH   2   8
ENDBRANCH   1   5
BRANCH   1  17
ATOM     17  N   UNL     1      47.638   6.634  14.433  0.00  0.00    +0.000 N 
ATOM     18  C   UNL     1      48.826   6.809  15.094  0.00  0.00    +0.000 C 
ATOM     19  O   UNL     1      49.387   5.888  15.685  0.00  0.00    +0.000 OA
ATOM     20  H   UNL     1      47.089   7.444  14.167  0.00  0.00    +0.000 HD
BRANCH  18  21
ATOM     21  C   UNL     1      49.434   8.140  14.997  0.00  0.00    +0.000 A 
ATOM     22  C   UNL     1      49.617   8.901  16.143  0.00  0.00    +0.000 A 
ATOM     23  S   UNL     1      50.415  10.382  15.858  0.00  0.00    +0.000 S 
ATOM     24  C   UNL     1      50.488  10.084  14.184  0.00  0.00    +0.000 A 
ATOM     25  N   UNL     1      51.051  10.985  13.336  0.00  0.00    +0.000 NA
ATOM     26  C   UNL     1      51.005  10.647  12.091  0.00  0.00    +0.000 A 
ATOM     27  N   UNL     1      50.447   9.488  11.617  0.00  0.00    +0.000 N 
ATOM     28  C   UNL     1      49.897   8.533  12.436  0.00  0.00    +0.000 A 
ATOM     29  O   UNL     1      49.443   7.488  11.984  0.00  0.00    +0.000 OA
ATOM     30  C   UNL     1      49.919   8.869  13.849  0.00  0.00    +0.000 A 
ATOM     31  H   UNL     1      50.443   9.281  10.629  0.00  0.00    +0.000 HD
ENDBRANCH  18  21
ENDBRANCH   1  17
TORSDOF 6
ENDMDL
MODEL 5
REMARK VINA RESULT:    -7.431      2.471      3.237
REMARK INTER + INTRA:         -10.949
REMARK INTER:                  -9.777
REMARK INTRA:                  -1.172
REMARK UNBOUND:                -0.911
REMARK  Name = 
REMARK  6 active torsions:
REMARK  status: ('A' for Active; 'I' for Inactive)
REMARK    1  A    between atoms: C_2  and  C_3
REMARK    2  A    between atoms: C_7  and  C_8
REMARK    3  A    between atoms: C_8  and  C_9
REMARK    4  A    between atoms: C_12  and  C_13
REMARK    5  A    between atoms: C_13  and  N_14
REMARK    6  A    between atoms: C_15  and  C_17
REMARK                            x       y       z     vdW  Elec       q    Type
REMARK                         _______ _______ _______ _____ _____    ______ ____
ROOT
ATOM      1  C   UNL     1      47.890   4.939  15.192  0.00  0.00    +0.000 C 
ENDROOT
BRANCH   1   5
ATOM      2  C   UNL     1      45.289   4.358  11.779  0.00  0.00    +0.000 A 
ATOM      3  C   UNL     1      45.636   5.648  12.197  0.00  0.00    +0.000 A 
ATOM      4  C   UNL     1      46.455   5.840  13.315  0.00  0.00    +0.000 A 
ATOM      5  C   UNL     1      46.955   4.744  14.027  0.00  0.00    +0.000 A 
ATOM      6  C   UNL     1      46.561   3.455  13.644  0.00  0.00    +0.000 A 
ATOM      7  C   UNL     1      45.744   3.263  12.526  0.00  0.00    +0.000 A 
BRANCH   2   8
ATOM      8  C   UNL     1      44.461   4.150  10.531  0.00  0.00    +0.000 C 
BRANCH   8  13
ATOM      9  C   UNL     1      46.247   1.916   7.991  0.00  0.00    +0.000 A 
ATOM     10  C   UNL     1      46.701   2.856   7.062  0.00  0.00    +0.000 A 
ATOM     11  C   UNL     1      46.454   4.214   7.268  0.00  0.00    +0.000 A 
ATOM     12  C   UNL     1      45.742   4.633   8.397  0.00  0.00    +0.000 A 
ATOM     13  C   UNL     1      45.260   3.700   9.327  0.00  0.00    +0.000 A 
ATOM     14  C   UNL     1      45.533   2.338   9.119  0.00  0.00    +0.000 A 
BRANCH   9  16
ATOM     15  N   UNL     1      46.716  -0.609   7.617  0.00  0.00    +0.000 NA
ATOM     16  C   UNL     1      46.505   0.522   7.787  0.00  0.00    +0.000 C 
ENDBRANCH   9  16
ENDBRANCH   8  13
ENDBRANCH   2   8
ENDBRANCH   1   5
BRANCH   1  17
ATOM     17  N   UNL     1      47.874   6.300  15.659  0.00  0.00    +0.000 N 
ATOM     18  C   UNL     1      49.034   7.019  15.788  0.00  0.00    +0.000 C 
ATOM     19  O   UNL     1      50.128   6.556  15.474  0.00  0.00    +0.000 OA
ATOM     20  H   UNL     1      47.036   6.609  16.142  0.00  0.00    +0.000 HD
BRANCH  18  21
ATOM     21  C   UNL     1      48.892   8.403  16.254  0.00  0.00    +0.000 A 
ATOM     22  C   UNL     1      49.385   9.445  15.481  0.00  0.00    +0.000 A 
ATOM     23  S   UNL     1      49.058  10.989  16.129  0.00  0.00    +0.000 S 
ATOM     24  C   UNL     1      48.300  10.315  17.496  0.00  0.00    +0.000 A 
ATOM     25  N   UNL     1      47.792  11.107  18.477  0.00  0.00    +0.000 NA
ATOM     26  C   UNL     1      47.280  10.462  19.472  0.00  0.00    +0.000 A 
ATOM     27  N   UNL     1      47.229   9.095  19.573  0.00  0.00    +0.000 N 
ATOM     28  C   UNL     1      47.699   8.255  18.594  0.00  0.00    +0.000 A 
ATOM     29  O   UNL     1      47.601   7.037  18.696  0.00  0.00    +0.000 OA
ATOM     30  C   UNL     1      48.291   8.932  17.454  0.00  0.00    +0.000 A 
ATOM     31  H   UNL     1      46.813   8.651  20.378  0.00  0.00    +0.000 HD
ENDBRANCH  18  21
ENDBRANCH   1  17
TORSDOF 6
ENDMDL
MODEL 6
REMARK VINA RESULT:    -7.163      3.049      8.612
REMARK INTER + INTRA:         -10.586
REMARK INTER:                  -9.321
REMARK INTRA:                  -1.265
REMARK UNBOUND:                -0.911
REMARK  Name = 
REMARK  6 active torsions:
REMARK  status: ('A' for Active; 'I' for Inactive)
REMARK    1  A    between atoms: C_2  and  C_3
REMARK    2  A    between atoms: C_7  and  C_8
REMARK    3  A    between atoms: C_8  and  C_9
REMARK    4  A    between atoms: C_12  and  C_13
REMARK    5  A    between atoms: C_13  and  N_14
REMARK    6  A    between atoms: C_15  and  C_17
REMARK                            x       y       z     vdW  Elec       q    Type
REMARK                         _______ _______ _______ _____ _____    ______ ____
ROOT
ATOM      1  C   UNL     1      47.716   7.904  11.951  0.00  0.00    +0.000 C 
ENDROOT
BRANCH   1   5
ATOM      2  C   UNL     1      49.430   8.077  15.924  0.00  0.00    +0.000 A 
ATOM      3  C   UNL     1      48.245   8.764  15.630  0.00  0.00    +0.000 A 
ATOM      4  C   UNL     1      47.703   8.731  14.341  0.00  0.00    +0.000 A 
ATOM      5  C   UNL     1      48.328   7.998  13.325  0.00  0.00    +0.000 A 
ATOM      6  C   UNL     1      49.543   7.360  13.604  0.00  0.00    +0.000 A 
ATOM      7  C   UNL     1      50.084   7.391  14.893  0.00  0.00    +0.000 A 
BRANCH   2   8
ATOM      8  C   UNL     1      49.977   8.056  17.333  0.00  0.00    +0.000 C 
BRANCH   8  13
ATOM      9  C   UNL     1      48.294   4.773  18.341  0.00  0.00    +0.000 A 
ATOM     10  C   UNL     1      48.821   4.568  19.618  0.00  0.00    +0.000 A 
ATOM     11  C   UNL     1      49.701   5.502  20.166  0.00  0.00    +0.000 A 
ATOM     12  C   UNL     1      50.063   6.637  19.433  0.00  0.00    +0.000 A 
ATOM     13  C   UNL     1      49.560   6.846  18.141  0.00  0.00    +0.000 A 
ATOM     14  C   UNL     1      48.659   5.909  17.608  0.00  0.00    +0.000 A 
BRANCH   9  16
ATOM     15  N   UNL     1      46.645   3.045  17.325  0.00  0.00    +0.000 NA
ATOM     16  C   UNL     1      47.385   3.820  17.777  0.00  0.00    +0.000 C 
ENDBRANCH   9  16
ENDBRANCH   8  13
ENDBRANCH   2   8
ENDBRANCH   1   5
BRANCH   1  17
ATOM     17  N   UNL     1      47.018   6.659  11.768  0.00  0.00    +0.000 N 
ATOM     18  C   UNL     1      45.663   6.572  11.956  0.00  0.00    +0.000 C 
ATOM     19  O   UNL     1      44.979   7.551  12.246  0.00  0.00    +0.000 OA
ATOM     20  H   UNL     1      47.580   5.813  11.770  0.00  0.00    +0.000 HD
BRANCH  18  21
ATOM     21  C   UNL     1      45.058   5.257  11.720  0.00  0.00    +0.000 A 
ATOM     22  C   UNL     1      44.387   4.610  12.749  0.00  0.00    +0.000 A 
ATOM     23  S   UNL     1      43.672   3.136  12.277  0.00  0.00    +0.000 S 
ATOM     24  C   UNL     1      44.285   3.281  10.696  0.00  0.00    +0.000 A 
ATOM     25  N   UNL     1      44.046   2.324   9.760  0.00  0.00    +0.000 NA
ATOM     26  C   UNL     1      44.602   2.544   8.616  0.00  0.00    +0.000 A 
ATOM     27  N   UNL     1      45.377   3.637   8.323  0.00  0.00    +0.000 N 
ATOM     28  C   UNL     1      45.620   4.645   9.223  0.00  0.00    +0.000 A 
ATOM     29  O   UNL     1      46.283   5.630   8.916  0.00  0.00    +0.000 OA
ATOM     30  C   UNL     1      45.019   4.442  10.529  0.00  0.00    +0.000 A 
ATOM     31  H   UNL     1      45.784   3.752   7.407  0.00  0.00    +0.000 HD
ENDBRANCH  18  21
ENDBRANCH   1  17
TORSDOF 6
ENDMDL
MODEL 7
REMARK VINA RESULT:    -7.108      4.998      7.713
REMARK INTER + INTRA:         -10.512
REMARK INTER:                  -9.446
REMARK INTRA:                  -1.065
REMARK UNBOUND:                -0.911
REMARK  Name = 
REMARK  6 active torsions:
REMARK  status: ('A' for Active; 'I' for Inactive)
REMARK    1  A    between atoms: C_2  and  C_3
REMARK    2  A    between atoms: C_7  and  C_8
REMARK    3  A    between atoms: C_8  and  C_9
REMARK    4  A    between atoms: C_12  and  C_13
REMARK    5  A    between atoms: C_13  and  N_14
REMARK    6  A    between atoms: C_15  and  C_17
REMARK                            x       y       z     vdW  Elec       q    Type
REMARK                         _______ _______ _______ _____ _____    ______ ____
ROOT
ATOM      1  C   UNL     1      46.573   8.086  13.093  0.00  0.00    +0.000 C 
ENDROOT
BRANCH   1   5
ATOM      2  C   UNL     1      50.370   9.009  11.229  0.00  0.00    +0.000 A 
ATOM      3  C   UNL     1      49.406  10.008  11.411  0.00  0.00    +0.000 A 
ATOM      4  C   UNL     1      48.168   9.708  11.989  0.00  0.00    +0.000 A 
ATOM      5  C   UNL     1      47.877   8.405  12.410  0.00  0.00    +0.000 A 
ATOM      6  C   UNL     1      48.819   7.395  12.176  0.00  0.00    +0.000 A 
ATOM      7  C   UNL     1      50.057   7.695  11.599  0.00  0.00    +0.000 A 
BRANCH   2   8
ATOM      8  C   UNL     1      51.732   9.348  10.668  0.00  0.00    +0.000 C 
BRANCH   8  13
ATOM      9  C   UNL     1      53.234   6.367   8.801  0.00  0.00    +0.000 A 
ATOM     10  C   UNL     1      54.202   5.927   9.707  0.00  0.00    +0.000 A 
ATOM     11  C   UNL     1      54.354   6.576  10.933  0.00  0.00    +0.000 A 
ATOM     12  C   UNL     1      53.545   7.674  11.249  0.00  0.00    +0.000 A 
ATOM     13  C   UNL     1      52.584   8.141  10.341  0.00  0.00    +0.000 A 
ATOM     14  C   UNL     1      52.427   7.466   9.119  0.00  0.00    +0.000 A 
BRANCH   9  16
ATOM     15  N   UNL     1      52.932   5.153   6.526  0.00  0.00    +0.000 NA
ATOM     16  C   UNL     1      53.070   5.698   7.544  0.00  0.00    +0.000 C 
ENDBRANCH   9  16
ENDBRANCH   8  13
ENDBRANCH   2   8
ENDBRANCH   1   5
BRANCH   1  17
ATOM     17  N   UNL     1      46.095   6.776  12.734  0.00  0.00    +0.000 N 
ATOM     18  C   UNL     1      45.031   6.618  11.885  0.00  0.00    +0.000 C 
ATOM     19  O   UNL     1      44.465   7.575  11.360  0.00  0.00    +0.000 OA
ATOM     20  H   UNL     1      46.380   6.005  13.329  0.00  0.00    +0.000 HD
BRANCH  18  21
ATOM     21  C   UNL     1      44.647   5.237  11.574  0.00  0.00    +0.000 A 
ATOM     22  C   UNL     1      43.927   4.495  12.501  0.00  0.00    +0.000 A 
ATOM     23  S   UNL     1      43.491   2.944  11.942  0.00  0.00    +0.000 S 
ATOM     24  C   UNL     1      44.302   3.187  10.466  0.00  0.00    +0.000 A 
ATOM     25  N   UNL     1      44.329   2.217   9.513  0.00  0.00    +0.000 NA
ATOM     26  C   UNL     1      45.011   2.523   8.460  0.00  0.00    +0.000 A 
ATOM     27  N   UNL     1      45.667   3.712   8.273  0.00  0.00    +0.000 N 
ATOM     28  C   UNL     1      45.641   4.733   9.190  0.00  0.00    +0.000 A 
ATOM     29  O   UNL     1      46.204   5.801   8.975  0.00  0.00    +0.000 OA
ATOM     30  C   UNL     1      44.890   4.437  10.398  0.00  0.00    +0.000 A 
ATOM     31  H   UNL     1      46.184   3.891   7.424  0.00  0.00    +0.000 HD
ENDBRANCH  18  21
ENDBRANCH   1  17
TORSDOF 6
ENDMDL
MODEL 8
REMARK VINA RESULT:    -7.092      3.939      8.842
REMARK INTER + INTRA:         -10.491
REMARK INTER:                  -9.304
REMARK INTRA:                  -1.187
REMARK UNBOUND:                -0.911
REMARK  Name = 
REMARK  6 active torsions:
REMARK  status: ('A' for Active; 'I' for Inactive)
REMARK    1  A    between atoms: C_2  and  C_3
REMARK    2  A    between atoms: C_7  and  C_8
REMARK    3  A    between atoms: C_8  and  C_9
REMARK    4  A    between atoms: C_12  and  C_13
REMARK    5  A    between atoms: C_13  and  N_14
REMARK    6  A    between atoms: C_15  and  C_17
REMARK                            x       y       z     vdW  Elec       q    Type
REMARK                         _______ _______ _______ _____ _____    ______ ____
ROOT
ATOM      1  C   UNL     1      47.151   3.342  16.909  0.00  0.00    +0.000 C 
ENDROOT
BRANCH   1   5
ATOM      2  C   UNL     1      51.230   3.918  18.243  0.00  0.00    +0.000 A 
ATOM      3  C   UNL     1      50.880   2.790  17.490  0.00  0.00    +0.000 A 
ATOM      4  C   UNL     1      49.558   2.588  17.081  0.00  0.00    +0.000 A 
ATOM      5  C   UNL     1      48.564   3.518  17.402  0.00  0.00    +0.000 A 
ATOM      6  C   UNL     1      48.901   4.616  18.204  0.00  0.00    +0.000 A 
ATOM      7  C   UNL     1      50.223   4.819  18.613  0.00  0.00    +0.000 A 
BRANCH   2   8
ATOM      8  C   UNL     1      52.670   4.171  18.626  0.00  0.00    +0.000 C 
BRANCH   8  13
ATOM      9  C   UNL     1      53.726   6.527  15.804  0.00  0.00    +0.000 A 
ATOM     10  C   UNL     1      55.034   6.102  15.559  0.00  0.00    +0.000 A 
ATOM     11  C   UNL     1      55.568   5.038  16.287  0.00  0.00    +0.000 A 
ATOM     12  C   UNL     1      54.799   4.404  17.268  0.00  0.00    +0.000 A 
ATOM     13  C   UNL     1      53.492   4.833  17.541  0.00  0.00    +0.000 A 
ATOM     14  C   UNL     1      52.958   5.893  16.789  0.00  0.00    +0.000 A 
BRANCH   9  16
ATOM     15  N   UNL     1      52.716   8.495  14.446  0.00  0.00    +0.000 NA
ATOM     16  C   UNL     1      53.171   7.614  15.055  0.00  0.00    +0.000 C 
ENDBRANCH   9  16
ENDBRANCH   8  13
ENDBRANCH   2   8
ENDBRANCH   1   5
BRANCH   1  17
ATOM     17  N   UNL     1      46.791   4.362  15.961  0.00  0.00    +0.000 N 
ATOM     18  C   UNL     1      46.933   4.159  14.613  0.00  0.00    +0.000 C 
ATOM     19  O   UNL     1      47.331   3.091  14.151  0.00  0.00    +0.000 OA
ATOM     20  H   UNL     1      46.697   5.308  16.317  0.00  0.00    +0.000 HD
BRANCH  18  21
ATOM     21  C   UNL     1      46.515   5.262  13.741  0.00  0.00    +0.000 A 
ATOM     22  C   UNL     1      47.359   6.346  13.545  0.00  0.00    +0.000 A 
ATOM     23  S   UNL     1      46.751   7.492  12.436  0.00  0.00    +0.000 S 
ATOM     24  C   UNL     1      45.313   6.608  12.227  0.00  0.00    +0.000 A 
ATOM     25  N   UNL     1      44.332   7.052  11.396  0.00  0.00    +0.000 NA
ATOM     26  C   UNL     1      43.281   6.302  11.361  0.00  0.00    +0.000 A 
ATOM     27  N   UNL     1      43.123   5.146  12.082  0.00  0.00    +0.000 N 
ATOM     28  C   UNL     1      44.097   4.641  12.907  0.00  0.00    +0.000 A 
ATOM     29  O   UNL     1      43.941   3.582  13.507  0.00  0.00    +0.000 OA
ATOM     30  C   UNL     1      45.299   5.451  12.986  0.00  0.00    +0.000 A 
ATOM     31  H   UNL     1      42.276   4.603  12.010  0.00  0.00    +0.000 HD
ENDBRANCH  18  21
ENDBRANCH   1  17
TORSDOF 6
ENDMDL
MODEL 9
REMARK VINA RESULT:    -7.009      3.816      8.706
REMARK INTER + INTRA:         -10.379
REMARK INTER:                  -9.186
REMARK INTRA:                  -1.193
REMARK UNBOUND:                -0.911
REMARK  Name = 
REMARK  6 active torsions:
REMARK  status: ('A' for Active; 'I' for Inactive)
REMARK    1  A    between atoms: C_2  and  C_3
REMARK    2  A    between atoms: C_7  and  C_8
REMARK    3  A    between atoms: C_8  and  C_9
REMARK    4  A    between atoms: C_12  and  C_13
REMARK    5  A    between atoms: C_13  and  N_14
REMARK    6  A    between atoms: C_15  and  C_17
REMARK                            x       y       z     vdW  Elec       q    Type
REMARK                         _______ _______ _______ _____ _____    ______ ____
ROOT
ATOM      1  C   UNL     1      48.297   7.212  13.269  0.00  0.00    +0.000 C 
ENDROOT
BRANCH   1   5
ATOM      2  C   UNL     1      49.518   5.493  17.052  0.00  0.00    +0.000 A 
ATOM      3  C   UNL     1      48.301   5.126  16.463  0.00  0.00    +0.000 A 
ATOM      4  C   UNL     1      47.892   5.698  15.255  0.00  0.00    +0.000 A 
ATOM      5  C   UNL     1      48.699   6.639  14.604  0.00  0.00    +0.000 A 
ATOM      6  C   UNL     1      49.887   7.050  15.221  0.00  0.00    +0.000 A 
ATOM      7  C   UNL     1      50.298   6.477  16.428  0.00  0.00    +0.000 A 
BRANCH   2   8
ATOM      8  C   UNL     1      49.991   4.824  18.322  0.00  0.00    +0.000 C 
BRANCH   8  13
ATOM      9  C   UNL     1      53.156   2.676  18.302  0.00  0.00    +0.000 A 
ATOM     10  C   UNL     1      52.690   1.495  17.720  0.00  0.00    +0.000 A 
ATOM     11  C   UNL     1      51.360   1.400  17.309  0.00  0.00    +0.000 A 
ATOM     12  C   UNL     1      50.491   2.481  17.491  0.00  0.00    +0.000 A 
ATOM     13  C   UNL     1      50.938   3.666  18.094  0.00  0.00    +0.000 A 
ATOM     14  C   UNL     1      52.285   3.757  18.485  0.00  0.00    +0.000 A 
BRANCH   9  16
ATOM     15  N   UNL     1      55.633   2.861  19.057  0.00  0.00    +0.000 NA
ATOM     16  C   UNL     1      54.523   2.781  18.718  0.00  0.00    +0.000 C 
ENDBRANCH   9  16
ENDBRANCH   8  13
ENDBRANCH   2   8
ENDBRANCH   1   5
BRANCH   1  17
ATOM     17  N   UNL     1      47.519   6.273  12.505  0.00  0.00    +0.000 N 
ATOM     18  C   UNL     1      46.410   6.675  11.805  0.00  0.00    +0.000 C 
ATOM     19  O   UNL     1      46.054   7.851  11.764  0.00  0.00    +0.000 OA
ATOM     20  H   UNL     1      47.647   5.289  12.718  0.00  0.00    +0.000 HD
BRANCH  18  21
ATOM     21  C   UNL     1      45.709   5.635  11.046  0.00  0.00    +0.000 A 
ATOM     22  C   UNL     1      45.754   5.644   9.658  0.00  0.00    +0.000 A 
ATOM     23  S   UNL     1      44.958   4.316   8.941  0.00  0.00    +0.000 S 
ATOM     24  C   UNL     1      44.474   3.716  10.459  0.00  0.00    +0.000 A 
ATOM     25  N   UNL     1      43.732   2.581  10.559  0.00  0.00    +0.000 NA
ATOM     26  C   UNL     1      43.405   2.263  11.767  0.00  0.00    +0.000 A 
ATOM     27  N   UNL     1      43.754   2.977  12.884  0.00  0.00    +0.000 N 
ATOM     28  C   UNL     1      44.529   4.110  12.836  0.00  0.00    +0.000 A 
ATOM     29  O   UNL     1      44.858   4.703  13.858  0.00  0.00    +0.000 OA
ATOM     30  C   UNL     1      44.920   4.514  11.497  0.00  0.00    +0.000 A 
ATOM     31  H   UNL     1      43.466   2.675  13.803  0.00  0.00    +0.000 HD
ENDBRANCH  18  21
ENDBRANCH   1  17
TORSDOF 6
ENDMDL
