MODEL 1
REMARK VINA RESULT:    -7.161      0.000      0.000
REMARK INTER + INTRA:         -11.753
REMARK INTER:                 -10.510
REMARK INTRA:                  -1.243
REMARK UNBOUND:                -1.243
REMARK  Name = 
REMARK  10 active torsions:
REMARK  status: ('A' for Active; 'I' for Inactive)
REMARK    1  A    between atoms: C_1  and  O_2
REMARK    2  A    between atoms: O_2  and  C_3
REMARK    3  A    between atoms: C_5  and  C_6
REMARK    4  A    between atoms: C_6  and  N_7
REMARK    5  A    between atoms: N_7  and  C_8
REMARK    6  A    between atoms: C_8  and  C_9
REMARK    7  A    between atoms: C_12  and  C_13
REMARK    8  A    between atoms: C_13  and  N_14
REMARK    9  A    between atoms: C_15  and  C_17
REMARK   10  A    between atoms: N_29  and  C_30
REMARK                            x       y       z     vdW  Elec       q    Type
REMARK                         _______ _______ _______ _____ _____    ______ ____
ROOT
ATOM      1  C   UNL     1      49.101   7.827  16.000  0.00  0.00    +0.000 A 
ATOM      2  C   UNL     1      48.288   8.902  15.613  0.00  0.00    +0.000 A 
ATOM      3  C   UNL     1      47.677   8.923  14.356  0.00  0.00    +0.000 A 
ATOM      4  C   UNL     1      47.872   7.871  13.453  0.00  0.00    +0.000 A 
ATOM      5  C   UNL     1      48.736   6.827  13.812  0.00  0.00    +0.000 A 
ATOM      6  C   UNL     1      49.337   6.801  15.074  0.00  0.00    +0.000 A 
ENDROOT
BRANCH   1   7
ATOM      7  C   UNL     1      49.717   7.778  17.381  0.00  0.00    +0.000 C 
BRANCH   7   8
ATOM      8  N   UNL     1      50.399   6.502  17.616  0.00  0.00    +0.000 NA
ATOM      9  H   UNL     1      50.630   6.083  16.716  0.00  0.00    +0.000 HD
BRANCH   8  10
ATOM     10  C   UNL     1      49.550   5.577  18.354  0.00  0.00    +0.000 C 
BRANCH  10  13
ATOM     11  C   UNL     1      50.319   2.187  17.157  0.00  0.00    +0.000 A 
ATOM     12  C   UNL     1      50.717   3.292  17.919  0.00  0.00    +0.000 A 
ATOM     13  C   UNL     1      49.680   4.202  17.802  0.00  0.00    +0.000 A 
ATOM     14  N   UNL     1      48.747   3.578  17.005  0.00  0.00    +0.000 N 
ATOM     15  C   UNL     1      47.450   4.046  16.578  0.00  0.00    +0.000 C 
ATOM     16  N   UNL     1      49.125   2.350  16.595  0.00  0.00    +0.000 NA
BRANCH  11  18
ATOM     17  C   UNL     1      52.352   1.107  17.485  0.00  0.00    +0.000 C 
ATOM     18  O   UNL     1      51.028   1.052  16.964  0.00  0.00    +0.000 OA
ENDBRANCH  11  18
ENDBRANCH  10  13
ENDBRANCH   8  10
ENDBRANCH   7   8
ENDBRANCH   1   7
BRANCH   4  19
ATOM     19  C   UNL     1      47.206   7.877  12.102  0.00  0.00    +0.000 C 
BRANCH  19  20
ATOM     20  N   UNL     1      46.594   6.604  11.829  0.00  0.00    +0.000 N 
ATOM     21  C   UNL     1      45.239   6.473  11.687  0.00  0.00    +0.000 C 
ATOM     22  O   UNL     1      44.479   7.439  11.736  0.00  0.00    +0.000 OA
ATOM     23  H   UNL     1      47.156   5.783  12.020  0.00  0.00    +0.000 HD
BRANCH  21  24
ATOM     24  C   UNL     1      44.744   5.119  11.408  0.00  0.00    +0.000 A 
ATOM     25  C   UNL     1      44.023   4.435  12.376  0.00  0.00    +0.000 A 
ATOM     26  S   UNL     1      43.458   2.911  11.857  0.00  0.00    +0.000 S 
ATOM     27  C   UNL     1      44.206   3.088  10.339  0.00  0.00    +0.000 A 
ATOM     28  N   UNL     1      44.123   2.108   9.399  0.00  0.00    +0.000 NA
ATOM     29  C   UNL     1      44.762   2.362   8.305  0.00  0.00    +0.000 A 
ATOM     30  N   UNL     1      45.476   3.507   8.067  0.00  0.00    +0.000 N 
ATOM     31  C   UNL     1      45.572   4.531   8.979  0.00  0.00    +0.000 A 
ATOM     32  O   UNL     1      46.201   5.553   8.722  0.00  0.00    +0.000 OA
ATOM     33  C   UNL     1      44.870   4.296  10.226  0.00  0.00    +0.000 A 
ATOM     34  H   UNL     1      45.955   3.645   7.190  0.00  0.00    +0.000 HD
ENDBRANCH  21  24
ENDBRANCH  19  20
ENDBRANCH   4  19
TORSDOF 8
ENDMDL
MODEL 2
REMARK VINA RESULT:    -6.983      3.204      9.140
REMARK INTER + INTRA:         -11.492
REMARK INTER:                 -10.318
REMARK INTRA:                  -1.174
REMARK UNBOUND:                -1.243
REMARK  Name = 
REMARK  10 active torsions:
REMARK  status: ('A' for Active; 'I' for Inactive)
REMARK    1  A    between atoms: C_1  and  O_2
REMARK    2  A    between atoms: O_2  and  C_3
REMARK    3  A    between atoms: C_5  and  C_6
REMARK    4  A    between atoms: C_6  and  N_7
REMARK    5  A    between atoms: N_7  and  C_8
REMARK    6  A    between atoms: C_8  and  C_9
REMARK    7  A    between atoms: C_12  and  C_13
REMARK    8  A    between atoms: C_13  and  N_14
REMARK    9  A    between atoms: C_15  and  C_17
REMARK   10  A    between atoms: N_29  and  C_30
REMARK                            x       y       z     vdW  Elec       q    Type
REMARK                         _______ _______ _______ _____ _____    ______ ____
ROOT
ATOM      1  C   UNL     1      47.213   5.106  14.279  0.00  0.00    +0.000 A 
ATOM      2  C   UNL     1      47.980   6.280  14.270  0.00  0.00    +0.000 A 
ATOM      3  C   UNL     1      48.695   6.679  15.404  0.00  0.00    +0.000 A 
ATOM      4  C   UNL     1      48.653   5.914  16.576  0.00  0.00    +0.000 A 
ATOM      5  C   UNL     1      47.838   4.775  16.608  0.00  0.00    +0.000 A 
ATOM      6  C   UNL     1      47.132   4.371  15.471  0.00  0.00    +0.000 A 
ENDROOT
BRANCH   1   7
ATOM      7  C   UNL     1      46.485   4.645  13.036  0.00  0.00    +0.000 C 
BRANCH   7   8
ATOM      8  N   UNL     1      46.028   5.783  12.233  0.00  0.00    +0.000 NA
ATOM      9  H   UNL     1      46.011   6.613  12.822  0.00  0.00    +0.000 HD
BRANCH   8  10
ATOM     10  C   UNL     1      44.687   5.557  11.711  0.00  0.00    +0.000 C 
BRANCH  10  13
ATOM     11  C   UNL     1      45.003   3.594   8.620  0.00  0.00    +0.000 A 
ATOM     12  C   UNL     1      45.322   4.766   9.315  0.00  0.00    +0.000 A 
ATOM     13  C   UNL     1      44.731   4.619  10.559  0.00  0.00    +0.000 A 
ATOM     14  N   UNL     1      44.126   3.382  10.522  0.00  0.00    +0.000 N 
ATOM     15  C   UNL     1      43.391   2.693  11.555  0.00  0.00    +0.000 C 
ATOM     16  N   UNL     1      44.275   2.747   9.342  0.00  0.00    +0.000 NA
BRANCH  11  18
ATOM     17  C   UNL     1      46.755   3.107   7.170  0.00  0.00    +0.000 C 
ATOM     18  O   UNL     1      45.355   3.298   7.349  0.00  0.00    +0.000 OA
ENDBRANCH  11  18
ENDBRANCH  10  13
ENDBRANCH   8  10
ENDBRANCH   7   8
ENDBRANCH   1   7
BRANCH   4  19
ATOM     19  C   UNL     1      49.432   6.327  17.797  0.00  0.00    +0.000 C 
BRANCH  19  20
ATOM     20  N   UNL     1      50.434   5.346  18.119  0.00  0.00    +0.000 N 
ATOM     21  C   UNL     1      51.646   5.319  17.482  0.00  0.00    +0.000 C 
ATOM     22  O   UNL     1      51.960   6.156  16.638  0.00  0.00    +0.000 OA
ATOM     23  H   UNL     1      50.117   4.524  18.620  0.00  0.00    +0.000 HD
BRANCH  21  24
ATOM     24  C   UNL     1      52.579   4.268  17.907  0.00  0.00    +0.000 A 
ATOM     25  C   UNL     1      53.827   4.614  18.404  0.00  0.00    +0.000 A 
ATOM     26  S   UNL     1      54.749   3.276  18.925  0.00  0.00    +0.000 S 
ATOM     27  C   UNL     1      53.535   2.183  18.449  0.00  0.00    +0.000 A 
ATOM     28  N   UNL     1      53.700   0.841  18.607  0.00  0.00    +0.000 NA
ATOM     29  C   UNL     1      52.713   0.128  18.177  0.00  0.00    +0.000 A 
ATOM     30  N   UNL     1      51.576   0.635  17.603  0.00  0.00    +0.000 N 
ATOM     31  C   UNL     1      51.358   1.982  17.441  0.00  0.00    +0.000 A 
ATOM     32  O   UNL     1      50.317   2.402  16.944  0.00  0.00    +0.000 OA
ATOM     33  C   UNL     1      52.438   2.830  17.910  0.00  0.00    +0.000 A 
ATOM     34  H   UNL     1      50.839   0.023  17.285  0.00  0.00    +0.000 HD
ENDBRANCH  21  24
ENDBRANCH  19  20
ENDBRANCH   4  19
TORSDOF 8
ENDMDL
MODEL 3
REMARK VINA RESULT:    -6.892      1.272      2.019
REMARK INTER + INTRA:         -11.359
REMARK INTER:                  -9.833
REMARK INTRA:                  -1.526
REMARK UNBOUND:                -1.243
REMARK  Name = 
REMARK  10 active torsions:
REMARK  status: ('A' for Active; 'I' for Inactive)
REMARK    1  A    between atoms: C_1  and  O_2
REMARK    2  A    between atoms: O_2  and  C_3
REMARK    3  A    between atoms: C_5  and  C_6
REMARK    4  A    between atoms: C_6  and  N_7
REMARK    5  A    between atoms: N_7  and  C_8
REMARK    6  A    between atoms: C_8  and  C_9
REMARK    7  A    between atoms: C_12  and  C_13
REMARK    8  A    between atoms: C_13  and  N_14
REMARK    9  A    between atoms: C_15  and  C_17
REMARK   10  A    between atoms: N_29  and  C_30
REMARK                            x       y       z     vdW  Elec       q    Type
REMARK                         _______ _______ _______ _____ _____    ______ ____
ROOT
ATOM      1  C   UNL     1      49.610   8.152  15.376  0.00  0.00    +0.000 A 
ATOM      2  C   UNL     1      48.464   8.960  15.335  0.00  0.00    +0.000 A 
ATOM      3  C   UNL     1      47.628   8.961  14.213  0.00  0.00    +0.000 A 
ATOM      4  C   UNL     1      47.923   8.158  13.105  0.00  0.00    +0.000 A 
ATOM      5  C   UNL     1      49.102   7.400  13.118  0.00  0.00    +0.000 A 
ATOM      6  C   UNL     1      49.931   7.390  14.244  0.00  0.00    +0.000 A 
ENDROOT
BRANCH   1   7
ATOM      7  C   UNL     1      50.484   8.108  16.610  0.00  0.00    +0.000 C 
BRANCH   7   8
ATOM      8  N   UNL     1      49.686   7.897  17.822  0.00  0.00    +0.000 NA
ATOM      9  H   UNL     1      49.922   8.620  18.499  0.00  0.00    +0.000 HD
BRANCH   8  10
ATOM     10  C   UNL     1      49.962   6.596  18.416  0.00  0.00    +0.000 C 
BRANCH  10  13
ATOM     11  C   UNL     1      47.996   4.201  16.439  0.00  0.00    +0.000 A 
ATOM     12  C   UNL     1      48.086   5.481  17.000  0.00  0.00    +0.000 A 
ATOM     13  C   UNL     1      49.325   5.516  17.617  0.00  0.00    +0.000 A 
ATOM     14  N   UNL     1      49.882   4.281  17.370  0.00  0.00    +0.000 N 
ATOM     15  C   UNL     1      51.179   3.772  17.747  0.00  0.00    +0.000 C 
ATOM     16  N   UNL     1      49.081   3.463  16.660  0.00  0.00    +0.000 NA
BRANCH  11  18
ATOM     17  C   UNL     1      46.863   4.181  14.408  0.00  0.00    +0.000 C 
ATOM     18  O   UNL     1      46.947   3.704  15.747  0.00  0.00    +0.000 OA
ENDBRANCH  11  18
ENDBRANCH  10  13
ENDBRANCH   8  10
ENDBRANCH   7   8
ENDBRANCH   1   7
BRANCH   4  19
ATOM     19  C   UNL     1      47.021   8.142  11.899  0.00  0.00    +0.000 C 
BRANCH  19  20
ATOM     20  N   UNL     1      46.449   6.836  11.708  0.00  0.00    +0.000 N 
ATOM     21  C   UNL     1      45.108   6.662  11.491  0.00  0.00    +0.000 C 
ATOM     22  O   UNL     1      44.332   7.611  11.399  0.00  0.00    +0.000 OA
ATOM     23  H   UNL     1      47.009   6.048  12.013  0.00  0.00    +0.000 HD
BRANCH  21  24
ATOM     24  C   UNL     1      44.654   5.277  11.310  0.00  0.00    +0.000 A 
ATOM     25  C   UNL     1      43.887   4.668  12.292  0.00  0.00    +0.000 A 
ATOM     26  S   UNL     1      43.381   3.091  11.884  0.00  0.00    +0.000 S 
ATOM     27  C   UNL     1      44.219   3.145  10.404  0.00  0.00    +0.000 A 
ATOM     28  N   UNL     1      44.211   2.081   9.555  0.00  0.00    +0.000 NA
ATOM     29  C   UNL     1      44.911   2.248   8.483  0.00  0.00    +0.000 A 
ATOM     30  N   UNL     1      45.620   3.383   8.183  0.00  0.00    +0.000 N 
ATOM     31  C   UNL     1      45.641   4.488   9.000  0.00  0.00    +0.000 A 
ATOM     32  O   UNL     1      46.268   5.496   8.688  0.00  0.00    +0.000 OA
ATOM     33  C   UNL     1      44.868   4.353  10.219  0.00  0.00    +0.000 A 
ATOM     34  H   UNL     1      46.150   3.451   7.327  0.00  0.00    +0.000 HD
ENDBRANCH  21  24
ENDBRANCH  19  20
ENDBRANCH   4  19
TORSDOF 8
ENDMDL
MODEL 4
REMARK VINA RESULT:    -6.882      3.089      9.076
REMARK INTER + INTRA:         -11.343
REMARK INTER:                 -10.308
REMARK INTRA:                  -1.036
REMARK UNBOUND:                -1.243
REMARK  Name = 
REMARK  10 active torsions:
REMARK  status: ('A' for Active; 'I' for Inactive)
REMARK    1  A    between atoms: C_1  and  O_2
REMARK    2  A    between atoms: O_2  and  C_3
REMARK    3  A    between atoms: C_5  and  C_6
REMARK    4  A    between atoms: C_6  and  N_7
REMARK    5  A    between atoms: N_7  and  C_8
REMARK    6  A    between atoms: C_8  and  C_9
REMARK    7  A    between atoms: C_12  and  C_13
REMARK    8  A    between atoms: C_13  and  N_14
REMARK    9  A    between atoms: C_15  and  C_17
REMARK   10  A    between atoms: N_29  and  C_30
REMARK                            x       y       z     vdW  Elec       q    Type
REMARK                         _______ _______ _______ _____ _____    ______ ____
ROOT
ATOM      1  C   UNL     1      47.630   6.059  14.352  0.00  0.00    +0.000 A 
ATOM      2  C   UNL     1      47.054   4.786  14.223  0.00  0.00    +0.000 A 
ATOM      3  C   UNL     1      47.171   3.840  15.246  0.00  0.00    +0.000 A 
ATOM      4  C   UNL     1      47.873   4.144  16.419  0.00  0.00    +0.000 A 
ATOM      5  C   UNL     1      48.504   5.390  16.522  0.00  0.00    +0.000 A 
ATOM      6  C   UNL     1      48.378   6.340  15.504  0.00  0.00    +0.000 A 
ENDROOT
BRANCH   1   7
ATOM      7  C   UNL     1      47.457   7.101  13.269  0.00  0.00    +0.000 C 
BRANCH   7   8
ATOM      8  N   UNL     1      47.099   6.486  11.988  0.00  0.00    +0.000 NA
ATOM      9  H   UNL     1      47.688   6.883  11.258  0.00  0.00    +0.000 HD
BRANCH   8  10
ATOM     10  C   UNL     1      45.706   6.741  11.650  0.00  0.00    +0.000 C 
BRANCH  10  13
ATOM     11  C   UNL     1      44.430   3.841   9.786  0.00  0.00    +0.000 A 
ATOM     12  C   UNL     1      45.341   4.903   9.846  0.00  0.00    +0.000 A 
ATOM     13  C   UNL     1      45.087   5.527  11.055  0.00  0.00    +0.000 A 
ATOM     14  N   UNL     1      44.072   4.794  11.628  0.00  0.00    +0.000 N 
ATOM     15  C   UNL     1      43.429   4.968  12.909  0.00  0.00    +0.000 C 
ATOM     16  N   UNL     1      43.653   3.766  10.863  0.00  0.00    +0.000 NA
BRANCH  11  18
ATOM     17  C   UNL     1      45.148   1.821   8.884  0.00  0.00    +0.000 C 
ATOM     18  O   UNL     1      44.297   2.958   8.772  0.00  0.00    +0.000 OA
ENDBRANCH  11  18
ENDBRANCH  10  13
ENDBRANCH   8  10
ENDBRANCH   7   8
ENDBRANCH   1   7
BRANCH   4  19
ATOM     19  C   UNL     1      47.991   3.136  17.532  0.00  0.00    +0.000 C 
BRANCH  19  20
ATOM     20  N   UNL     1      49.371   2.894  17.857  0.00  0.00    +0.000 N 
ATOM     21  C   UNL     1      50.171   2.115  17.064  0.00  0.00    +0.000 C 
ATOM     22  O   UNL     1      49.769   1.624  16.012  0.00  0.00    +0.000 OA
ATOM     23  H   UNL     1      49.649   3.080  18.814  0.00  0.00    +0.000 HD
BRANCH  21  24
ATOM     24  C   UNL     1      51.561   1.950  17.509  0.00  0.00    +0.000 A 
ATOM     25  C   UNL     1      52.064   0.678  17.741  0.00  0.00    +0.000 A 
ATOM     26  S   UNL     1      53.715   0.666  18.173  0.00  0.00    +0.000 S 
ATOM     27  C   UNL     1      53.799   2.364  18.121  0.00  0.00    +0.000 A 
ATOM     28  N   UNL     1      54.957   3.017  18.411  0.00  0.00    +0.000 NA
ATOM     29  C   UNL     1      54.871   4.305  18.362  0.00  0.00    +0.000 A 
ATOM     30  N   UNL     1      53.731   4.999  18.049  0.00  0.00    +0.000 N 
ATOM     31  C   UNL     1      52.545   4.382  17.730  0.00  0.00    +0.000 A 
ATOM     32  O   UNL     1      51.550   5.035  17.432  0.00  0.00    +0.000 OA
ATOM     33  C   UNL     1      52.588   2.933  17.770  0.00  0.00    +0.000 A 
ATOM     34  H   UNL     1      53.728   6.008  18.028  0.00  0.00    +0.000 HD
ENDBRANCH  21  24
ENDBRANCH  19  20
ENDBRANCH   4  19
TORSDOF 8
ENDMDL
MODEL 5
REMARK VINA RESULT:    -6.811      3.004      8.548
REMARK INTER + INTRA:         -11.239
REMARK INTER:                 -10.365
REMARK INTRA:                  -0.875
REMARK UNBOUND:                -1.243
REMARK  Name = 
REMARK  10 active torsions:
REMARK  status: ('A' for Active; 'I' for Inactive)
REMARK    1  A    between atoms: C_1  and  O_2
REMARK    2  A    between atoms: O_2  and  C_3
REMARK    3  A    between atoms: C_5  and  C_6
REMARK    4  A    between atoms: C_6  and  N_7
REMARK    5  A    between atoms: N_7  and  C_8
REMARK    6  A    between atoms: C_8  and  C_9
REMARK    7  A    between atoms: C_12  and  C_13
REMARK    8  A    between atoms: C_13  and  N_14
REMARK    9  A    between atoms: C_15  and  C_17
REMARK   10  A    between atoms: N_29  and  C_30
REMARK                            x       y       z     vdW  Elec       q    Type
REMARK                         _______ _______ _______ _____ _____    ______ ____
ROOT
ATOM      1  C   UNL     1      44.118   6.175  11.977  0.00  0.00    +0.000 A 
ATOM      2  C   UNL     1      44.276   7.539  11.692  0.00  0.00    +0.000 A 
ATOM      3  C   UNL     1      45.364   8.257  12.200  0.00  0.00    +0.000 A 
ATOM      4  C   UNL     1      46.315   7.626  13.011  0.00  0.00    +0.000 A 
ATOM      5  C   UNL     1      46.125   6.280  13.350  0.00  0.00    +0.000 A 
ATOM      6  C   UNL     1      45.043   5.560  12.833  0.00  0.00    +0.000 A 
ENDROOT
BRANCH   1   7
ATOM      7  C   UNL     1      42.972   5.386  11.383  0.00  0.00    +0.000 C 
BRANCH   7   8
ATOM      8  N   UNL     1      43.261   4.983  10.003  0.00  0.00    +0.000 NA
ATOM      9  H   UNL     1      42.380   4.821   9.518  0.00  0.00    +0.000 HD
BRANCH   8  10
ATOM     10  C   UNL     1      44.045   3.757   9.964  0.00  0.00    +0.000 C 
BRANCH  10  13
ATOM     11  C   UNL     1      46.077   3.337   6.929  0.00  0.00    +0.000 A 
ATOM     12  C   UNL     1      45.006   2.883   7.710  0.00  0.00    +0.000 A 
ATOM     13  C   UNL     1      44.947   3.757   8.782  0.00  0.00    +0.000 A 
ATOM     14  N   UNL     1      45.959   4.664   8.559  0.00  0.00    +0.000 N 
ATOM     15  C   UNL     1      46.340   5.818   9.338  0.00  0.00    +0.000 C 
ATOM     16  N   UNL     1      46.664   4.417   7.437  0.00  0.00    +0.000 NA
BRANCH  11  18
ATOM     17  C   UNL     1      47.808   2.178   5.897  0.00  0.00    +0.000 C 
ATOM     18  O   UNL     1      46.522   2.779   5.782  0.00  0.00    +0.000 OA
ENDBRANCH  11  18
ENDBRANCH  10  13
ENDBRANCH   8  10
ENDBRANCH   7   8
ENDBRANCH   1   7
BRANCH   4  19
ATOM     19  C   UNL     1      47.498   8.387  13.550  0.00  0.00    +0.000 C 
BRANCH  19  20
ATOM     20  N   UNL     1      47.852   7.916  14.863  0.00  0.00    +0.000 N 
ATOM     21  C   UNL     1      48.968   7.152  15.077  0.00  0.00    +0.000 C 
ATOM     22  O   UNL     1      49.750   6.869  14.172  0.00  0.00    +0.000 OA
ATOM     23  H   UNL     1      47.117   7.930  15.561  0.00  0.00    +0.000 HD
BRANCH  21  24
ATOM     24  C   UNL     1      49.215   6.740  16.465  0.00  0.00    +0.000 A 
ATOM     25  C   UNL     1      49.893   7.591  17.326  0.00  0.00    +0.000 A 
ATOM     26  S   UNL     1      50.022   6.990  18.917  0.00  0.00    +0.000 S 
ATOM     27  C   UNL     1      49.227   5.545  18.496  0.00  0.00    +0.000 A 
ATOM     28  N   UNL     1      49.019   4.566  19.418  0.00  0.00    +0.000 NA
ATOM     29  C   UNL     1      48.432   3.513  18.955  0.00  0.00    +0.000 A 
ATOM     30  N   UNL     1      48.034   3.351  17.653  0.00  0.00    +0.000 N 
ATOM     31  C   UNL     1      48.204   4.320  16.694  0.00  0.00    +0.000 A 
ATOM     32  O   UNL     1      47.814   4.150  15.543  0.00  0.00    +0.000 OA
ATOM     33  C   UNL     1      48.860   5.526  17.163  0.00  0.00    +0.000 A 
ATOM     34  H   UNL     1      47.578   2.502  17.353  0.00  0.00    +0.000 HD
ENDBRANCH  21  24
ENDBRANCH  19  20
ENDBRANCH   4  19
TORSDOF 8
ENDMDL
MODEL 6
REMARK VINA RESULT:    -6.725      2.981      8.078
REMARK INTER + INTRA:         -11.112
REMARK INTER:                  -9.740
REMARK INTRA:                  -1.372
REMARK UNBOUND:                -1.243
REMARK  Name = 
REMARK  10 active torsions:
REMARK  status: ('A' for Active; 'I' for Inactive)
REMARK    1  A    between atoms: C_1  and  O_2
REMARK    2  A    between atoms: O_2  and  C_3
REMARK    3  A    between atoms: C_5  and  C_6
REMARK    4  A    between atoms: C_6  and  N_7
REMARK    5  A    between atoms: N_7  and  C_8
REMARK    6  A    between atoms: C_8  and  C_9
REMARK    7  A    between atoms: C_12  and  C_13
REMARK    8  A    between atoms: C_13  and  N_14
REMARK    9  A    between atoms: C_15  and  C_17
REMARK   10  A    between atoms: N_29  and  C_30
REMARK                            x       y       z     vdW  Elec       q    Type
REMARK                         _______ _______ _______ _____ _____    ______ ____
ROOT
ATOM      1  C   UNL     1      45.800   7.616  11.966  0.00  0.00    +0.000 A 
ATOM      2  C   UNL     1      46.855   6.746  11.654  0.00  0.00    +0.000 A 
ATOM      3  C   UNL     1      48.101   6.878  12.275  0.00  0.00    +0.000 A 
ATOM      4  C   UNL     1      48.321   7.889  13.219  0.00  0.00    +0.000 A 
ATOM      5  C   UNL     1      47.289   8.799  13.484  0.00  0.00    +0.000 A 
ATOM      6  C   UNL     1      46.040   8.659  12.871  0.00  0.00    +0.000 A 
ENDROOT
BRANCH   1   7
ATOM      7  C   UNL     1      44.436   7.439  11.335  0.00  0.00    +0.000 C 
BRANCH   7   8
ATOM      8  N   UNL     1      43.678   6.373  11.994  0.00  0.00    +0.000 NA
ATOM      9  H   UNL     1      44.332   5.742  12.455  0.00  0.00    +0.000 HD
BRANCH   8  10
ATOM     10  C   UNL     1      42.895   5.608  11.033  0.00  0.00    +0.000 C 
BRANCH  10  13
ATOM     11  C   UNL     1      44.919   3.184   9.151  0.00  0.00    +0.000 A 
ATOM     12  C   UNL     1      44.307   4.443   9.184  0.00  0.00    +0.000 A 
ATOM     13  C   UNL     1      43.722   4.526  10.436  0.00  0.00    +0.000 A 
ATOM     14  N   UNL     1      44.037   3.337  11.056  0.00  0.00    +0.000 N 
ATOM     15  C   UNL     1      43.718   2.890  12.391  0.00  0.00    +0.000 C 
ATOM     16  N   UNL     1      44.760   2.503  10.283  0.00  0.00    +0.000 NA
BRANCH  11  18
ATOM     17  C   UNL     1      46.333   3.616   7.356  0.00  0.00    +0.000 C 
ATOM     18  O   UNL     1      45.603   2.655   8.112  0.00  0.00    +0.000 OA
ENDBRANCH  11  18
ENDBRANCH  10  13
ENDBRANCH   8  10
ENDBRANCH   7   8
ENDBRANCH   1   7
BRANCH   4  19
ATOM     19  C   UNL     1      49.655   8.029  13.905  0.00  0.00    +0.000 C 
BRANCH  19  20
ATOM     20  N   UNL     1      49.710   7.210  15.086  0.00  0.00    +0.000 N 
ATOM     21  C   UNL     1      49.378   7.703  16.320  0.00  0.00    +0.000 C 
ATOM     22  O   UNL     1      48.971   8.853  16.477  0.00  0.00    +0.000 OA
ATOM     23  H   UNL     1      50.258   6.359  15.021  0.00  0.00    +0.000 HD
BRANCH  21  24
ATOM     24  C   UNL     1      49.475   6.762  17.442  0.00  0.00    +0.000 A 
ATOM     25  C   UNL     1      50.180   7.119  18.583  0.00  0.00    +0.000 A 
ATOM     26  S   UNL     1      50.123   5.941  19.817  0.00  0.00    +0.000 S 
ATOM     27  C   UNL     1      49.204   4.888  18.847  0.00  0.00    +0.000 A 
ATOM     28  N   UNL     1      48.820   3.667  19.308  0.00  0.00    +0.000 NA
ATOM     29  C   UNL     1      48.153   2.960  18.457  0.00  0.00    +0.000 A 
ATOM     30  N   UNL     1      47.835   3.365  17.187  0.00  0.00    +0.000 N 
ATOM     31  C   UNL     1      48.184   4.595  16.686  0.00  0.00    +0.000 A 
ATOM     32  O   UNL     1      47.862   4.933  15.551  0.00  0.00    +0.000 OA
ATOM     33  C   UNL     1      48.936   5.431  17.603  0.00  0.00    +0.000 A 
ATOM     34  H   UNL     1      47.310   2.764  16.568  0.00  0.00    +0.000 HD
ENDBRANCH  21  24
ENDBRANCH  19  20
ENDBRANCH   4  19
TORSDOF 8
ENDMDL
MODEL 7
REMARK VINA RESULT:    -6.553      4.608      6.436
REMARK INTER + INTRA:         -10.861
REMARK INTER:                  -9.814
REMARK INTRA:                  -1.047
REMARK UNBOUND:                -1.243
REMARK  Name = 
REMARK  10 active torsions:
REMARK  status: ('A' for Active; 'I' for Inactive)
REMARK    1  A    between atoms: C_1  and  O_2
REMARK    2  A    between atoms: O_2  and  C_3
REMARK    3  A    between atoms: C_5  and  C_6
REMARK    4  A    between atoms: C_6  and  N_7
REMARK    5  A    between atoms: N_7  and  C_8
REMARK    6  A    between atoms: C_8  and  C_9
REMARK    7  A    between atoms: C_12  and  C_13
REMARK    8  A    between atoms: C_13  and  N_14
REMARK    9  A    between atoms: C_15  and  C_17
REMARK   10  A    between atoms: N_29  and  C_30
REMARK                            x       y       z     vdW  Elec       q    Type
REMARK                         _______ _______ _______ _____ _____    ______ ____
ROOT
ATOM      1  C   UNL     1      50.587   8.967  11.409  0.00  0.00    +0.000 A 
ATOM      2  C   UNL     1      50.068   7.676  11.584  0.00  0.00    +0.000 A 
ATOM      3  C   UNL     1      48.729   7.483  11.939  0.00  0.00    +0.000 A 
ATOM      4  C   UNL     1      47.880   8.579  12.134  0.00  0.00    +0.000 A 
ATOM      5  C   UNL     1      48.412   9.871  12.023  0.00  0.00    +0.000 A 
ATOM      6  C   UNL     1      49.748  10.063  11.657  0.00  0.00    +0.000 A 
ENDROOT
BRANCH   1   7
ATOM      7  C   UNL     1      52.020   9.174  10.970  0.00  0.00    +0.000 C 
BRANCH   7   8
ATOM      8  N   UNL     1      52.757   7.908  10.942  0.00  0.00    +0.000 NA
ATOM      9  H   UNL     1      53.137   7.729  11.870  0.00  0.00    +0.000 HD
BRANCH   8  10
ATOM     10  C   UNL     1      53.860   7.960   9.991  0.00  0.00    +0.000 C 
BRANCH  10  13
ATOM     11  C   UNL     1      53.117   5.740   7.157  0.00  0.00    +0.000 A 
ATOM     12  C   UNL     1      53.454   5.859   8.511  0.00  0.00    +0.000 A 
ATOM     13  C   UNL     1      53.508   7.222   8.749  0.00  0.00    +0.000 A 
ATOM     14  N   UNL     1      53.188   7.807   7.545  0.00  0.00    +0.000 N 
ATOM     15  C   UNL     1      53.057   9.207   7.214  0.00  0.00    +0.000 C 
ATOM     16  N   UNL     1      52.955   6.917   6.559  0.00  0.00    +0.000 NA
BRANCH  11  18
ATOM     17  C   UNL     1      54.107   3.733   6.524  0.00  0.00    +0.000 C 
ATOM     18  O   UNL     1      52.968   4.586   6.470  0.00  0.00    +0.000 OA
ENDBRANCH  11  18
ENDBRANCH  10  13
ENDBRANCH   8  10
ENDBRANCH   7   8
ENDBRANCH   1   7
BRANCH   4  19
ATOM     19  C   UNL     1      46.433   8.381  12.501  0.00  0.00    +0.000 C 
BRANCH  19  20
ATOM     20  N   UNL     1      46.026   7.022  12.259  0.00  0.00    +0.000 N 
ATOM     21  C   UNL     1      44.852   6.725  11.620  0.00  0.00    +0.000 C 
ATOM     22  O   UNL     1      44.109   7.600  11.179  0.00  0.00    +0.000 OA
ATOM     23  H   UNL     1      46.487   6.307  12.811  0.00  0.00    +0.000 HD
BRANCH  21  24
ATOM     24  C   UNL     1      44.557   5.299  11.434  0.00  0.00    +0.000 A 
ATOM     25  C   UNL     1      43.885   4.599  12.426  0.00  0.00    +0.000 A 
ATOM     26  S   UNL     1      43.556   2.977  12.012  0.00  0.00    +0.000 S 
ATOM     27  C   UNL     1      44.351   3.138  10.516  0.00  0.00    +0.000 A 
ATOM     28  N   UNL     1      44.449   2.086   9.658  0.00  0.00    +0.000 NA
ATOM     29  C   UNL     1      45.104   2.341   8.575  0.00  0.00    +0.000 A 
ATOM     30  N   UNL     1      45.671   3.551   8.272  0.00  0.00    +0.000 N 
ATOM     31  C   UNL     1      45.581   4.645   9.098  0.00  0.00    +0.000 A 
ATOM     32  O   UNL     1      46.081   5.721   8.784  0.00  0.00    +0.000 OA
ATOM     33  C   UNL     1      44.853   4.413  10.331  0.00  0.00    +0.000 A 
ATOM     34  H   UNL     1      46.172   3.687   7.406  0.00  0.00    +0.000 HD
ENDBRANCH  21  24
ENDBRANCH  19  20
ENDBRANCH   4  19
TORSDOF 8
ENDMDL
MODEL 8
REMARK VINA RESULT:    -6.394      5.679      7.400
REMARK INTER + INTRA:         -10.628
REMARK INTER:                  -9.384
REMARK INTRA:                  -1.244
REMARK UNBOUND:                -1.243
REMARK  Name = 
REMARK  10 active torsions:
REMARK  status: ('A' for Active; 'I' for Inactive)
REMARK    1  A    between atoms: C_1  and  O_2
REMARK    2  A    between atoms: O_2  and  C_3
REMARK    3  A    between atoms: C_5  and  C_6
REMARK    4  A    between atoms: C_6  and  N_7
REMARK    5  A    between atoms: N_7  and  C_8
REMARK    6  A    between atoms: C_8  and  C_9
REMARK    7  A    between atoms: C_12  and  C_13
REMARK    8  A    between atoms: C_13  and  N_14
REMARK    9  A    between atoms: C_15  and  C_17
REMARK   10  A    between atoms: N_29  and  C_30
REMARK                            x       y       z     vdW  Elec       q    Type
REMARK                         _______ _______ _______ _____ _____    ______ ____
ROOT
ATOM      1  C   UNL     1      47.060   8.400  12.058  0.00  0.00    +0.000 A 
ATOM      2  C   UNL     1      47.696   9.645  12.171  0.00  0.00    +0.000 A 
ATOM      3  C   UNL     1      49.079   9.762  11.999  0.00  0.00    +0.000 A 
ATOM      4  C   UNL     1      49.858   8.634  11.716  0.00  0.00    +0.000 A 
ATOM      5  C   UNL     1      49.234   7.380  11.667  0.00  0.00    +0.000 A 
ATOM      6  C   UNL     1      47.850   7.265  11.828  0.00  0.00    +0.000 A 
ENDROOT
BRANCH   1   7
ATOM      7  C   UNL     1      45.558   8.282  12.189  0.00  0.00    +0.000 C 
BRANCH   7   8
ATOM      8  N   UNL     1      45.065   7.041  11.585  0.00  0.00    +0.000 NA
ATOM      9  H   UNL     1      44.432   7.276  10.823  0.00  0.00    +0.000 HD
BRANCH   8  10
ATOM     10  C   UNL     1      44.342   6.230  12.555  0.00  0.00    +0.000 C 
BRANCH  10  13
ATOM     11  C   UNL     1      46.618   3.667  13.883  0.00  0.00    +0.000 A 
ATOM     12  C   UNL     1      46.141   4.982  13.959  0.00  0.00    +0.000 A 
ATOM     13  C   UNL     1      45.168   5.069  12.978  0.00  0.00    +0.000 A 
ATOM     14  N   UNL     1      45.123   3.816  12.408  0.00  0.00    +0.000 N 
ATOM     15  C   UNL     1      44.267   3.321  11.357  0.00  0.00    +0.000 C 
ATOM     16  N   UNL     1      46.008   2.951  12.942  0.00  0.00    +0.000 NA
BRANCH  11  18
ATOM     17  C   UNL     1      47.617   3.612  15.982  0.00  0.00    +0.000 C 
ATOM     18  O   UNL     1      47.595   3.126  14.644  0.00  0.00    +0.000 OA
ENDBRANCH  11  18
ENDBRANCH  10  13
ENDBRANCH   8  10
ENDBRANCH   7   8
ENDBRANCH   1   7
BRANCH   4  19
ATOM     19  C   UNL     1      51.346   8.753  11.514  0.00  0.00    +0.000 C 
BRANCH  19  20
ATOM     20  N   UNL     1      51.725   8.265  10.215  0.00  0.00    +0.000 N 
ATOM     21  C   UNL     1      52.819   8.756   9.553  0.00  0.00    +0.000 C 
ATOM     22  O   UNL     1      53.561   9.600  10.052  0.00  0.00    +0.000 OA
ATOM     23  H   UNL     1      51.014   7.762   9.696  0.00  0.00    +0.000 HD
BRANCH  21  24
ATOM     24  C   UNL     1      53.096   8.170   8.235  0.00  0.00    +0.000 A 
ATOM     25  C   UNL     1      53.052   8.970   7.102  0.00  0.00    +0.000 A 
ATOM     26  S   UNL     1      53.476   8.148   5.669  0.00  0.00    +0.000 S 
ATOM     27  C   UNL     1      53.678   6.679   6.505  0.00  0.00    +0.000 A 
ATOM     28  N   UNL     1      54.033   5.542   5.847  0.00  0.00    +0.000 NA
ATOM     29  C   UNL     1      54.121   4.496   6.599  0.00  0.00    +0.000 A 
ATOM     30  N   UNL     1      53.887   4.484   7.950  0.00  0.00    +0.000 N 
ATOM     31  C   UNL     1      53.546   5.611   8.658  0.00  0.00    +0.000 A 
ATOM     32  O   UNL     1      53.367   5.568   9.872  0.00  0.00    +0.000 OA
ATOM     33  C   UNL     1      53.434   6.816   7.860  0.00  0.00    +0.000 A 
ATOM     34  H   UNL     1      53.972   3.631   8.483  0.00  0.00    +0.000 HD
ENDBRANCH  21  24
ENDBRANCH  19  20
ENDBRANCH   4  19
TORSDOF 8
ENDMDL
MODEL 9
REMARK VINA RESULT:    -5.349      4.012      8.571
REMARK INTER + INTRA:          -9.094
REMARK INTER:                  -8.457
REMARK INTRA:                  -0.637
REMARK UNBOUND:                -1.243
REMARK  Name = 
REMARK  10 active torsions:
REMARK  status: ('A' for Active; 'I' for Inactive)
REMARK    1  A    between atoms: C_1  and  O_2
REMARK    2  A    between atoms: O_2  and  C_3
REMARK    3  A    between atoms: C_5  and  C_6
REMARK    4  A    between atoms: C_6  and  N_7
REMARK    5  A    between atoms: N_7  and  C_8
REMARK    6  A    between atoms: C_8  and  C_9
REMARK    7  A    between atoms: C_12  and  C_13
REMARK    8  A    between atoms: C_13  and  N_14
REMARK    9  A    between atoms: C_15  and  C_17
REMARK   10  A    between atoms: N_29  and  C_30
REMARK                            x       y       z     vdW  Elec       q    Type
REMARK                         _______ _______ _______ _____ _____    ______ ____
ROOT
ATOM      1  C   UNL     1      44.346   4.178  12.105  0.00  0.00    +0.000 A 
ATOM      2  C   UNL     1      45.595   4.385  12.709  0.00  0.00    +0.000 A 
ATOM      3  C   UNL     1      46.098   5.677  12.892  0.00  0.00    +0.000 A 
ATOM      4  C   UNL     1      45.365   6.792  12.468  0.00  0.00    +0.000 A 
ATOM      5  C   UNL     1      44.148   6.585  11.805  0.00  0.00    +0.000 A 
ATOM      6  C   UNL     1      43.640   5.293  11.632  0.00  0.00    +0.000 A 
ENDROOT
BRANCH   1   7
ATOM      7  C   UNL     1      43.777   2.784  11.957  0.00  0.00    +0.000 C 
BRANCH   7   8
ATOM      8  N   UNL     1      44.266   2.135  10.737  0.00  0.00    +0.000 NA
ATOM      9  H   UNL     1      45.254   1.917  10.856  0.00  0.00    +0.000 HD
BRANCH   8  10
ATOM     10  C   UNL     1      44.119   3.005   9.579  0.00  0.00    +0.000 C 
BRANCH  10  13
ATOM     11  C   UNL     1      46.987   2.244   7.410  0.00  0.00    +0.000 A 
ATOM     12  C   UNL     1      45.858   1.771   8.089  0.00  0.00    +0.000 A 
ATOM     13  C   UNL     1      45.305   2.889   8.690  0.00  0.00    +0.000 A 
ATOM     14  N   UNL     1      46.120   3.934   8.317  0.00  0.00    +0.000 N 
ATOM     15  C   UNL     1      46.003   5.339   8.625  0.00  0.00    +0.000 C 
ATOM     16  N   UNL     1      47.157   3.557   7.543  0.00  0.00    +0.000 NA
BRANCH  11  18
ATOM     17  C   UNL     1      48.087   2.002   5.375  0.00  0.00    +0.000 C 
ATOM     18  O   UNL     1      47.855   1.501   6.688  0.00  0.00    +0.000 OA
ENDBRANCH  11  18
ENDBRANCH  10  13
ENDBRANCH   8  10
ENDBRANCH   7   8
ENDBRANCH   1   7
BRANCH   4  19
ATOM     19  C   UNL     1      45.892   8.188  12.674  0.00  0.00    +0.000 C 
BRANCH  19  20
ATOM     20  N   UNL     1      47.300   8.250  12.385  0.00  0.00    +0.000 N 
ATOM     21  C   UNL     1      48.194   8.789  13.271  0.00  0.00    +0.000 C 
ATOM     22  O   UNL     1      47.850   9.203  14.376  0.00  0.00    +0.000 OA
ATOM     23  H   UNL     1      47.567   8.142  11.413  0.00  0.00    +0.000 HD
BRANCH  21  24
ATOM     24  C   UNL     1      49.602   8.789  12.854  0.00  0.00    +0.000 A 
ATOM     25  C   UNL     1      49.947   9.250  11.592  0.00  0.00    +0.000 A 
ATOM     26  S   UNL     1      51.628   9.254  11.303  0.00  0.00    +0.000 S 
ATOM     27  C   UNL     1      51.950   8.584  12.834  0.00  0.00    +0.000 A 
ATOM     28  N   UNL     1      53.224   8.312  13.226  0.00  0.00    +0.000 NA
ATOM     29  C   UNL     1      53.320   7.779  14.398  0.00  0.00    +0.000 A 
ATOM     30  N   UNL     1      52.256   7.493  15.214  0.00  0.00    +0.000 N 
ATOM     31  C   UNL     1      50.955   7.768  14.868  0.00  0.00    +0.000 A 
ATOM     32  O   UNL     1      50.029   7.519  15.634  0.00  0.00    +0.000 OA
ATOM     33  C   UNL     1      50.791   8.369  13.559  0.00  0.00    +0.000 A 
ATOM     34  H   UNL     1      52.398   7.075  16.121  0.00  0.00    +0.000 HD
ENDBRANCH  21  24
ENDBRANCH  19  20
ENDBRANCH   4  19
TORSDOF 8
ENDMDL
