MODEL 1
REMARK VINA RESULT:    -6.785      0.000      0.000
REMARK INTER + INTRA:          -9.924
REMARK INTER:                  -9.164
REMARK INTRA:                  -0.760
REMARK UNBOUND:                -0.760
REMARK  Name = 
REMARK  8 active torsions:
REMARK  status: ('A' for Active; 'I' for Inactive)
REMARK    1  A    between atoms: C_1  and  C_2
REMARK    2  A    between atoms: C_2  and  C_3
REMARK    3  A    between atoms: C_5  and  O_6
REMARK    4  A    between atoms: O_6  and  C_7
REMARK    5  A    between atoms: C_11  and  C_12
REMARK    6  A    between atoms: C_13  and  N_14
REMARK    7  A    between atoms: N_14  and  C_15
REMARK    8  A    between atoms: C_18  and  C_19
REMARK                            x       y       z     vdW  Elec       q    Type
REMARK                         _______ _______ _______ _____ _____    ______ ____
ROOT
ATOM      1  C   UNL     1      48.504   7.032  14.690  0.00  0.00    +0.000 A 
ATOM      2  C   UNL     1      48.169   8.381  14.759  0.00  0.00    +0.000 A 
ATOM      3  C   UNL     1      47.294   8.926  13.818  0.00  0.00    +0.000 A 
ATOM      4  C   UNL     1      46.727   8.117  12.826  0.00  0.00    +0.000 A 
ATOM      5  C   UNL     1      47.023   6.749  12.764  0.00  0.00    +0.000 A 
ATOM      6  C   UNL     1      47.941   6.223  13.692  0.00  0.00    +0.000 A 
ENDROOT
BRANCH   5   7
ATOM      7  C   UNL     1      46.356   5.929  11.730  0.00  0.00    +0.000 C 
ATOM      8  C   UNL     1      45.181   6.260  11.175  0.00  0.00    +0.000 C 
BRANCH   8   9
ATOM      9  N   UNL     1      44.474   5.585  10.210  0.00  0.00    +0.000 N 
ATOM     10  H   UNL     1      43.578   5.977   9.939  0.00  0.00    +0.000 HD
BRANCH   9  11
ATOM     11  C   UNL     1      44.913   4.462   9.483  0.00  0.00    +0.000 A 
ATOM     12  C   UNL     1      44.600   3.150   9.875  0.00  0.00    +0.000 A 
ATOM     13  C   UNL     1      45.135   2.043   9.204  0.00  0.00    +0.000 A 
ATOM     14  C   UNL     1      46.012   2.233   8.136  0.00  0.00    +0.000 A 
ATOM     15  C   UNL     1      46.330   3.530   7.732  0.00  0.00    +0.000 A 
ATOM     16  C   UNL     1      45.785   4.633   8.403  0.00  0.00    +0.000 A 
BRANCH  14  17
ATOM     17  C   UNL     1      46.583   1.098   7.464  0.00  0.00    +0.000 C 
ATOM     18  N   UNL     1      47.041   0.181   6.915  0.00  0.00    +0.000 NA
ENDBRANCH  14  17
ENDBRANCH   9  11
ENDBRANCH   8   9
ENDBRANCH   5   7
BRANCH   1  19
ATOM     19  O   UNL     1      49.290   6.422  15.639  0.00  0.00    +0.000 OA
BRANCH  19  24
ATOM     20  C   UNL     1      48.790   3.430  18.075  0.00  0.00    +0.000 C 
ATOM     21  C   UNL     1      49.397   4.718  17.569  0.00  0.00    +0.000 C 
ATOM     22  C   UNL     1      50.904   4.707  17.500  0.00  0.00    +0.000 C 
ATOM     23  C   UNL     1      48.714   5.997  17.989  0.00  0.00    +0.000 C 
ATOM     24  C   UNL     1      48.597   5.540  16.557  0.00  0.00    +0.000 C 
ENDBRANCH  19  24
ENDBRANCH   1  19
TORSDOF 6
ENDMDL
MODEL 2
REMARK VINA RESULT:    -6.715      3.828      8.634
REMARK INTER + INTRA:          -9.830
REMARK INTER:                  -9.137
REMARK INTRA:                  -0.693
REMARK UNBOUND:                -0.760
REMARK  Name = 
REMARK  8 active torsions:
REMARK  status: ('A' for Active; 'I' for Inactive)
REMARK    1  A    between atoms: C_1  and  C_2
REMARK    2  A    between atoms: C_2  and  C_3
REMARK    3  A    between atoms: C_5  and  O_6
REMARK    4  A    between atoms: O_6  and  C_7
REMARK    5  A    between atoms: C_11  and  C_12
REMARK    6  A    between atoms: C_13  and  N_14
REMARK    7  A    between atoms: N_14  and  C_15
REMARK    8  A    between atoms: C_18  and  C_19
REMARK                            x       y       z     vdW  Elec       q    Type
REMARK                         _______ _______ _______ _____ _____    ______ ____
ROOT
ATOM      1  C   UNL     1      45.482   4.918  11.337  0.00  0.00    +0.000 A 
ATOM      2  C   UNL     1      45.962   6.198  11.081  0.00  0.00    +0.000 A 
ATOM      3  C   UNL     1      46.665   6.885  12.073  0.00  0.00    +0.000 A 
ATOM      4  C   UNL     1      46.918   6.279  13.309  0.00  0.00    +0.000 A 
ATOM      5  C   UNL     1      46.476   4.976  13.571  0.00  0.00    +0.000 A 
ATOM      6  C   UNL     1      45.730   4.314  12.577  0.00  0.00    +0.000 A 
ENDROOT
BRANCH   5   7
ATOM      7  C   UNL     1      46.816   4.363  14.872  0.00  0.00    +0.000 C 
ATOM      8  C   UNL     1      47.660   4.924  15.751  0.00  0.00    +0.000 C 
BRANCH   8   9
ATOM      9  N   UNL     1      48.044   4.454  16.983  0.00  0.00    +0.000 N 
ATOM     10  H   UNL     1      47.358   4.507  17.728  0.00  0.00    +0.000 HD
BRANCH   9  11
ATOM     11  C   UNL     1      49.257   3.811  17.293  0.00  0.00    +0.000 A 
ATOM     12  C   UNL     1      50.370   4.513  17.783  0.00  0.00    +0.000 A 
ATOM     13  C   UNL     1      51.603   3.877  17.982  0.00  0.00    +0.000 A 
ATOM     14  C   UNL     1      51.746   2.524  17.673  0.00  0.00    +0.000 A 
ATOM     15  C   UNL     1      50.648   1.812  17.188  0.00  0.00    +0.000 A 
ATOM     16  C   UNL     1      49.416   2.454  16.999  0.00  0.00    +0.000 A 
BRANCH  14  17
ATOM     17  C   UNL     1      53.016   1.877  17.851  0.00  0.00    +0.000 C 
ATOM     18  N   UNL     1      54.046   1.355  17.990  0.00  0.00    +0.000 NA
ENDBRANCH  14  17
ENDBRANCH   9  11
ENDBRANCH   8   9
ENDBRANCH   5   7
BRANCH   1  19
ATOM     19  O   UNL     1      44.860   4.161  10.371  0.00  0.00    +0.000 OA
BRANCH  19  24
ATOM     20  C   UNL     1      46.661   3.387   7.009  0.00  0.00    +0.000 C 
ATOM     21  C   UNL     1      45.669   3.178   8.130  0.00  0.00    +0.000 C 
ATOM     22  C   UNL     1      45.692   1.792   8.726  0.00  0.00    +0.000 C 
ATOM     23  C   UNL     1      44.335   3.869   7.989  0.00  0.00    +0.000 C 
ATOM     24  C   UNL     1      45.318   4.378   9.013  0.00  0.00    +0.000 C 
ENDBRANCH  19  24
ENDBRANCH   1  19
TORSDOF 6
ENDMDL
MODEL 3
REMARK VINA RESULT:    -6.412      1.880      3.687
REMARK INTER + INTRA:          -9.421
REMARK INTER:                  -8.577
REMARK INTRA:                  -0.844
REMARK UNBOUND:                -0.760
REMARK  Name = 
REMARK  8 active torsions:
REMARK  status: ('A' for Active; 'I' for Inactive)
REMARK    1  A    between atoms: C_1  and  C_2
REMARK    2  A    between atoms: C_2  and  C_3
REMARK    3  A    between atoms: C_5  and  O_6
REMARK    4  A    between atoms: O_6  and  C_7
REMARK    5  A    between atoms: C_11  and  C_12
REMARK    6  A    between atoms: C_13  and  N_14
REMARK    7  A    between atoms: N_14  and  C_15
REMARK    8  A    between atoms: C_18  and  C_19
REMARK                            x       y       z     vdW  Elec       q    Type
REMARK                         _______ _______ _______ _____ _____    ______ ____
ROOT
ATOM      1  C   UNL     1      48.394   6.586  15.166  0.00  0.00    +0.000 A 
ATOM      2  C   UNL     1      48.603   5.947  16.384  0.00  0.00    +0.000 A 
ATOM      3  C   UNL     1      48.002   4.711  16.629  0.00  0.00    +0.000 A 
ATOM      4  C   UNL     1      47.220   4.096  15.645  0.00  0.00    +0.000 A 
ATOM      5  C   UNL     1      47.029   4.707  14.398  0.00  0.00    +0.000 A 
ATOM      6  C   UNL     1      47.604   5.974  14.183  0.00  0.00    +0.000 A 
ENDROOT
BRANCH   5   7
ATOM      7  C   UNL     1      46.238   3.991  13.375  0.00  0.00    +0.000 C 
ATOM      8  C   UNL     1      45.371   4.603  12.556  0.00  0.00    +0.000 C 
BRANCH   8   9
ATOM      9  N   UNL     1      44.591   4.046  11.571  0.00  0.00    +0.000 N 
ATOM     10  H   UNL     1      43.621   3.862  11.803  0.00  0.00    +0.000 HD
BRANCH   9  11
ATOM     11  C   UNL     1      44.973   3.802  10.238  0.00  0.00    +0.000 A 
ATOM     12  C   UNL     1      44.955   2.513   9.682  0.00  0.00    +0.000 A 
ATOM     13  C   UNL     1      45.442   2.270   8.391  0.00  0.00    +0.000 A 
ATOM     14  C   UNL     1      45.976   3.318   7.639  0.00  0.00    +0.000 A 
ATOM     15  C   UNL     1      45.998   4.606   8.178  0.00  0.00    +0.000 A 
ATOM     16  C   UNL     1      45.501   4.841   9.467  0.00  0.00    +0.000 A 
BRANCH  14  17
ATOM     17  C   UNL     1      46.500   3.067   6.326  0.00  0.00    +0.000 C 
ATOM     18  N   UNL     1      46.922   2.857   5.263  0.00  0.00    +0.000 NA
ENDBRANCH  14  17
ENDBRANCH   9  11
ENDBRANCH   8   9
ENDBRANCH   5   7
BRANCH   1  19
ATOM     19  O   UNL     1      49.027   7.762  14.836  0.00  0.00    +0.000 OA
BRANCH  19  24
ATOM     20  C   UNL     1      50.615   7.717  11.284  0.00  0.00    +0.000 C 
ATOM     21  C   UNL     1      49.867   8.300  12.460  0.00  0.00    +0.000 C 
ATOM     22  C   UNL     1      48.531   8.905  12.106  0.00  0.00    +0.000 C 
ATOM     23  C   UNL     1      50.699   8.986  13.517  0.00  0.00    +0.000 C 
ATOM     24  C   UNL     1      50.067   7.654  13.833  0.00  0.00    +0.000 C 
ENDBRANCH  19  24
ENDBRANCH   1  19
TORSDOF 6
ENDMDL
MODEL 4
REMARK VINA RESULT:    -6.247      1.479      1.934
REMARK INTER + INTRA:          -9.197
REMARK INTER:                  -8.640
REMARK INTRA:                  -0.557
REMARK UNBOUND:                -0.760
REMARK  Name = 
REMARK  8 active torsions:
REMARK  status: ('A' for Active; 'I' for Inactive)
REMARK    1  A    between atoms: C_1  and  C_2
REMARK    2  A    between atoms: C_2  and  C_3
REMARK    3  A    between atoms: C_5  and  O_6
REMARK    4  A    between atoms: O_6  and  C_7
REMARK    5  A    between atoms: C_11  and  C_12
REMARK    6  A    between atoms: C_13  and  N_14
REMARK    7  A    between atoms: N_14  and  C_15
REMARK    8  A    between atoms: C_18  and  C_19
REMARK                            x       y       z     vdW  Elec       q    Type
REMARK                         _______ _______ _______ _____ _____    ______ ____
ROOT
ATOM      1  C   UNL     1      47.828   5.258  15.789  0.00  0.00    +0.000 A 
ATOM      2  C   UNL     1      48.578   6.430  15.790  0.00  0.00    +0.000 A 
ATOM      3  C   UNL     1      48.659   7.201  14.629  0.00  0.00    +0.000 A 
ATOM      4  C   UNL     1      47.963   6.820  13.476  0.00  0.00    +0.000 A 
ATOM      5  C   UNL     1      47.171   5.664  13.468  0.00  0.00    +0.000 A 
ATOM      6  C   UNL     1      47.136   4.873  14.632  0.00  0.00    +0.000 A 
ENDROOT
BRANCH   5   7
ATOM      7  C   UNL     1      46.414   5.336  12.241  0.00  0.00    +0.000 C 
ATOM      8  C   UNL     1      45.385   4.476  12.221  0.00  0.00    +0.000 C 
BRANCH   8   9
ATOM      9  N   UNL     1      44.610   4.101  11.150  0.00  0.00    +0.000 N 
ATOM     10  H   UNL     1      43.604   4.153  11.272  0.00  0.00    +0.000 HD
BRANCH   9  11
ATOM     11  C   UNL     1      45.068   3.751   9.866  0.00  0.00    +0.000 A 
ATOM     12  C   UNL     1      45.174   2.413   9.451  0.00  0.00    +0.000 A 
ATOM     13  C   UNL     1      45.735   2.078   8.212  0.00  0.00    +0.000 A 
ATOM     14  C   UNL     1      46.219   3.082   7.372  0.00  0.00    +0.000 A 
ATOM     15  C   UNL     1      46.118   4.416   7.769  0.00  0.00    +0.000 A 
ATOM     16  C   UNL     1      45.548   4.743   9.007  0.00  0.00    +0.000 A 
BRANCH  14  17
ATOM     17  C   UNL     1      46.819   2.738   6.113  0.00  0.00    +0.000 C 
ATOM     18  N   UNL     1      47.302   2.466   5.090  0.00  0.00    +0.000 NA
ENDBRANCH  14  17
ENDBRANCH   9  11
ENDBRANCH   8   9
ENDBRANCH   5   7
BRANCH   1  19
ATOM     19  O   UNL     1      47.642   4.506  16.925  0.00  0.00    +0.000 OA
BRANCH  19  24
ATOM     20  C   UNL     1      50.596   1.991  17.214  0.00  0.00    +0.000 C 
ATOM     21  C   UNL     1      49.652   3.078  17.673  0.00  0.00    +0.000 C 
ATOM     22  C   UNL     1      50.339   4.302  18.225  0.00  0.00    +0.000 C 
ATOM     23  C   UNL     1      48.369   2.625  18.328  0.00  0.00    +0.000 C 
ATOM     24  C   UNL     1      48.314   3.222  16.945  0.00  0.00    +0.000 C 
ENDBRANCH  19  24
ENDBRANCH   1  19
TORSDOF 6
ENDMDL
MODEL 5
REMARK VINA RESULT:    -6.188      4.570      8.202
REMARK INTER + INTRA:          -9.118
REMARK INTER:                  -8.345
REMARK INTRA:                  -0.773
REMARK UNBOUND:                -0.760
REMARK  Name = 
REMARK  8 active torsions:
REMARK  status: ('A' for Active; 'I' for Inactive)
REMARK    1  A    between atoms: C_1  and  C_2
REMARK    2  A    between atoms: C_2  and  C_3
REMARK    3  A    between atoms: C_5  and  O_6
REMARK    4  A    between atoms: O_6  and  C_7
REMARK    5  A    between atoms: C_11  and  C_12
REMARK    6  A    between atoms: C_13  and  N_14
REMARK    7  A    between atoms: N_14  and  C_15
REMARK    8  A    between atoms: C_18  and  C_19
REMARK                            x       y       z     vdW  Elec       q    Type
REMARK                         _______ _______ _______ _____ _____    ______ ____
ROOT
ATOM      1  C   UNL     1      44.513   3.739  10.817  0.00  0.00    +0.000 A 
ATOM      2  C   UNL     1      43.655   3.344  11.839  0.00  0.00    +0.000 A 
ATOM      3  C   UNL     1      43.311   4.251  12.843  0.00  0.00    +0.000 A 
ATOM      4  C   UNL     1      43.798   5.563  12.810  0.00  0.00    +0.000 A 
ATOM      5  C   UNL     1      44.633   5.989  11.768  0.00  0.00    +0.000 A 
ATOM      6  C   UNL     1      45.006   5.051  10.787  0.00  0.00    +0.000 A 
ENDROOT
BRANCH   5   7
ATOM      7  C   UNL     1      45.076   7.399  11.751  0.00  0.00    +0.000 C 
ATOM      8  C   UNL     1      45.640   8.005  12.806  0.00  0.00    +0.000 C 
BRANCH   8   9
ATOM      9  N   UNL     1      46.093   9.298  12.904  0.00  0.00    +0.000 N 
ATOM     10  H   UNL     1      45.588   9.914  13.533  0.00  0.00    +0.000 HD
BRANCH   9  11
ATOM     11  C   UNL     1      47.250   9.828  12.302  0.00  0.00    +0.000 A 
ATOM     12  C   UNL     1      47.207  10.962  11.474  0.00  0.00    +0.000 A 
ATOM     13  C   UNL     1      48.348  11.411  10.795  0.00  0.00    +0.000 A 
ATOM     14  C   UNL     1      49.552  10.717  10.921  0.00  0.00    +0.000 A 
ATOM     15  C   UNL     1      49.611   9.590  11.743  0.00  0.00    +0.000 A 
ATOM     16  C   UNL     1      48.467   9.152  12.425  0.00  0.00    +0.000 A 
BRANCH  14  17
ATOM     17  C   UNL     1      50.715  11.160  10.205  0.00  0.00    +0.000 C 
ATOM     18  N   UNL     1      51.661  11.516   9.630  0.00  0.00    +0.000 NA
ENDBRANCH  14  17
ENDBRANCH   9  11
ENDBRANCH   8   9
ENDBRANCH   5   7
BRANCH   1  19
ATOM     19  O   UNL     1      44.817   2.918   9.756  0.00  0.00    +0.000 OA
BRANCH  19  24
ATOM     20  C   UNL     1      47.448   3.287   6.914  0.00  0.00    +0.000 C 
ATOM     21  C   UNL     1      46.277   2.675   7.647  0.00  0.00    +0.000 C 
ATOM     22  C   UNL     1      46.400   1.190   7.881  0.00  0.00    +0.000 C 
ATOM     23  C   UNL     1      44.912   3.233   7.322  0.00  0.00    +0.000 C 
ATOM     24  C   UNL     1      45.530   3.544   8.662  0.00  0.00    +0.000 C 
ENDBRANCH  19  24
ENDBRANCH   1  19
TORSDOF 6
ENDMDL
MODEL 6
REMARK VINA RESULT:    -5.746      1.836      3.274
REMARK INTER + INTRA:          -8.521
REMARK INTER:                  -7.758
REMARK INTRA:                  -0.763
REMARK UNBOUND:                -0.760
REMARK  Name = 
REMARK  8 active torsions:
REMARK  status: ('A' for Active; 'I' for Inactive)
REMARK    1  A    between atoms: C_1  and  C_2
REMARK    2  A    between atoms: C_2  and  C_3
REMARK    3  A    between atoms: C_5  and  O_6
REMARK    4  A    between atoms: O_6  and  C_7
REMARK    5  A    between atoms: C_11  and  C_12
REMARK    6  A    between atoms: C_13  and  N_14
REMARK    7  A    between atoms: N_14  and  C_15
REMARK    8  A    between atoms: C_18  and  C_19
REMARK                            x       y       z     vdW  Elec       q    Type
REMARK                         _______ _______ _______ _____ _____    ______ ____
ROOT
ATOM      1  C   UNL     1      48.543   6.228  15.659  0.00  0.00    +0.000 A 
ATOM      2  C   UNL     1      48.673   5.371  16.747  0.00  0.00    +0.000 A 
ATOM      3  C   UNL     1      47.936   4.186  16.786  0.00  0.00    +0.000 A 
ATOM      4  C   UNL     1      47.093   3.841  15.723  0.00  0.00    +0.000 A 
ATOM      5  C   UNL     1      46.979   4.673  14.602  0.00  0.00    +0.000 A 
ATOM      6  C   UNL     1      47.694   5.886  14.597  0.00  0.00    +0.000 A 
ENDROOT
BRANCH   5   7
ATOM      7  C   UNL     1      46.117   4.236  13.483  0.00  0.00    +0.000 C 
ATOM      8  C   UNL     1      45.219   5.037  12.891  0.00  0.00    +0.000 C 
BRANCH   8   9
ATOM      9  N   UNL     1      44.374   4.745  11.848  0.00  0.00    +0.000 N 
ATOM     10  H   UNL     1      43.384   4.903  12.002  0.00  0.00    +0.000 HD
BRANCH   9  11
ATOM     11  C   UNL     1      44.752   4.349  10.551  0.00  0.00    +0.000 A 
ATOM     12  C   UNL     1      44.498   3.057  10.062  0.00  0.00    +0.000 A 
ATOM     13  C   UNL     1      44.977   2.645   8.812  0.00  0.00    +0.000 A 
ATOM     14  C   UNL     1      45.737   3.519   8.034  0.00  0.00    +0.000 A 
ATOM     15  C   UNL     1      45.994   4.808   8.505  0.00  0.00    +0.000 A 
ATOM     16  C   UNL     1      45.506   5.215   9.754  0.00  0.00    +0.000 A 
BRANCH  14  17
ATOM     17  C   UNL     1      46.251   3.089   6.764  0.00  0.00    +0.000 C 
ATOM     18  N   UNL     1      46.673   2.745   5.736  0.00  0.00    +0.000 NA
ENDBRANCH  14  17
ENDBRANCH   9  11
ENDBRANCH   8   9
ENDBRANCH   5   7
BRANCH   1  19
ATOM     19  O   UNL     1      49.308   7.364  15.526  0.00  0.00    +0.000 OA
BRANCH  19  24
ATOM     20  C   UNL     1      48.175  10.560  17.434  0.00  0.00    +0.000 C 
ATOM     21  C   UNL     1      49.153   9.603  16.792  0.00  0.00    +0.000 C 
ATOM     22  C   UNL     1      50.300   9.199  17.684  0.00  0.00    +0.000 C 
ATOM     23  C   UNL     1      49.432   9.809  15.323  0.00  0.00    +0.000 C 
ATOM     24  C   UNL     1      48.616   8.617  15.752  0.00  0.00    +0.000 C 
ENDBRANCH  19  24
ENDBRANCH   1  19
TORSDOF 6
ENDMDL
MODEL 7
REMARK VINA RESULT:    -5.636      3.807      8.144
REMARK INTER + INTRA:          -8.373
REMARK INTER:                  -7.650
REMARK INTRA:                  -0.722
REMARK UNBOUND:                -0.760
REMARK  Name = 
REMARK  8 active torsions:
REMARK  status: ('A' for Active; 'I' for Inactive)
REMARK    1  A    between atoms: C_1  and  C_2
REMARK    2  A    between atoms: C_2  and  C_3
REMARK    3  A    between atoms: C_5  and  O_6
REMARK    4  A    between atoms: O_6  and  C_7
REMARK    5  A    between atoms: C_11  and  C_12
REMARK    6  A    between atoms: C_13  and  N_14
REMARK    7  A    between atoms: N_14  and  C_15
REMARK    8  A    between atoms: C_18  and  C_19
REMARK                            x       y       z     vdW  Elec       q    Type
REMARK                         _______ _______ _______ _____ _____    ______ ____
ROOT
ATOM      1  C   UNL     1      46.359   6.621  11.807  0.00  0.00    +0.000 A 
ATOM      2  C   UNL     1      47.300   7.512  11.302  0.00  0.00    +0.000 A 
ATOM      3  C   UNL     1      48.483   7.743  12.007  0.00  0.00    +0.000 A 
ATOM      4  C   UNL     1      48.741   7.059  13.200  0.00  0.00    +0.000 A 
ATOM      5  C   UNL     1      47.822   6.128  13.704  0.00  0.00    +0.000 A 
ATOM      6  C   UNL     1      46.615   5.940  13.005  0.00  0.00    +0.000 A 
ENDROOT
BRANCH   5   7
ATOM      7  C   UNL     1      48.167   5.394  14.939  0.00  0.00    +0.000 C 
ATOM      8  C   UNL     1      48.518   6.001  16.082  0.00  0.00    +0.000 C 
BRANCH   8   9
ATOM      9  N   UNL     1      48.851   5.427  17.285  0.00  0.00    +0.000 N 
ATOM     10  H   UNL     1      48.333   5.736  18.100  0.00  0.00    +0.000 HD
BRANCH   9  11
ATOM     11  C   UNL     1      49.767   4.377  17.486  0.00  0.00    +0.000 A 
ATOM     12  C   UNL     1      51.118   4.612  17.789  0.00  0.00    +0.000 A 
ATOM     13  C   UNL     1      52.038   3.560  17.877  0.00  0.00    +0.000 A 
ATOM     14  C   UNL     1      51.622   2.249  17.643  0.00  0.00    +0.000 A 
ATOM     15  C   UNL     1      50.282   1.998  17.343  0.00  0.00    +0.000 A 
ATOM     16  C   UNL     1      49.366   3.056  17.265  0.00  0.00    +0.000 A 
BRANCH  14  17
ATOM     17  C   UNL     1      52.570   1.171  17.706  0.00  0.00    +0.000 C 
ATOM     18  N   UNL     1      53.332   0.294  17.755  0.00  0.00    +0.000 NA
ENDBRANCH  14  17
ENDBRANCH   9  11
ENDBRANCH   8   9
ENDBRANCH   5   7
BRANCH   1  19
ATOM     19  O   UNL     1      45.218   6.289  11.114  0.00  0.00    +0.000 OA
BRANCH  19  24
ATOM     20  C   UNL     1      43.301   2.969  11.779  0.00  0.00    +0.000 C 
ATOM     21  C   UNL     1      43.491   4.383  11.282  0.00  0.00    +0.000 C 
ATOM     22  C   UNL     1      42.440   5.354  11.760  0.00  0.00    +0.000 C 
ATOM     23  C   UNL     1      44.017   4.540   9.876  0.00  0.00    +0.000 C 
ATOM     24  C   UNL     1      44.920   4.873  11.036  0.00  0.00    +0.000 C 
ENDBRANCH  19  24
ENDBRANCH   1  19
TORSDOF 6
ENDMDL
MODEL 8
REMARK VINA RESULT:    -5.483      3.846      7.732
REMARK INTER + INTRA:          -8.166
REMARK INTER:                  -7.372
REMARK INTRA:                  -0.794
REMARK UNBOUND:                -0.760
REMARK  Name = 
REMARK  8 active torsions:
REMARK  status: ('A' for Active; 'I' for Inactive)
REMARK    1  A    between atoms: C_1  and  C_2
REMARK    2  A    between atoms: C_2  and  C_3
REMARK    3  A    between atoms: C_5  and  O_6
REMARK    4  A    between atoms: O_6  and  C_7
REMARK    5  A    between atoms: C_11  and  C_12
REMARK    6  A    between atoms: C_13  and  N_14
REMARK    7  A    between atoms: N_14  and  C_15
REMARK    8  A    between atoms: C_18  and  C_19
REMARK                            x       y       z     vdW  Elec       q    Type
REMARK                         _______ _______ _______ _____ _____    ______ ____
ROOT
ATOM      1  C   UNL     1      46.675   6.541  12.032  0.00  0.00    +0.000 A 
ATOM      2  C   UNL     1      45.656   6.000  11.255  0.00  0.00    +0.000 A 
ATOM      3  C   UNL     1      45.140   4.742  11.570  0.00  0.00    +0.000 A 
ATOM      4  C   UNL     1      45.618   4.038  12.681  0.00  0.00    +0.000 A 
ATOM      5  C   UNL     1      46.617   4.584  13.498  0.00  0.00    +0.000 A 
ATOM      6  C   UNL     1      47.159   5.833  13.141  0.00  0.00    +0.000 A 
ENDROOT
BRANCH   5   7
ATOM      7  C   UNL     1      47.048   3.823  14.690  0.00  0.00    +0.000 C 
ATOM      8  C   UNL     1      47.398   4.405  15.846  0.00  0.00    +0.000 C 
BRANCH   8   9
ATOM      9  N   UNL     1      47.806   3.805  17.012  0.00  0.00    +0.000 N 
ATOM     10  H   UNL     1      47.082   3.553  17.676  0.00  0.00    +0.000 HD
BRANCH   9  11
ATOM     11  C   UNL     1      49.118   3.409  17.335  0.00  0.00    +0.000 A 
ATOM     12  C   UNL     1      50.053   4.302  17.883  0.00  0.00    +0.000 A 
ATOM     13  C   UNL     1      51.385   3.921  18.096  0.00  0.00    +0.000 A 
ATOM     14  C   UNL     1      51.807   2.638  17.744  0.00  0.00    +0.000 A 
ATOM     15  C   UNL     1      50.888   1.739  17.201  0.00  0.00    +0.000 A 
ATOM     16  C   UNL     1      49.556   2.125  16.999  0.00  0.00    +0.000 A 
BRANCH  14  17
ATOM     17  C   UNL     1      53.178   2.255  17.937  0.00  0.00    +0.000 C 
ATOM     18  N   UNL     1      54.286   1.938  18.095  0.00  0.00    +0.000 NA
ENDBRANCH  14  17
ENDBRANCH   9  11
ENDBRANCH   8   9
ENDBRANCH   5   7
BRANCH   1  19
ATOM     19  O   UNL     1      47.162   7.810  11.822  0.00  0.00    +0.000 OA
BRANCH  19  24
ATOM     20  C   UNL     1      50.479   8.327  13.790  0.00  0.00    +0.000 C 
ATOM     21  C   UNL     1      49.555   8.375  12.596  0.00  0.00    +0.000 C 
ATOM     22  C   UNL     1      50.125   7.750  11.347  0.00  0.00    +0.000 C 
ATOM     23  C   UNL     1      48.707   9.615  12.447  0.00  0.00    +0.000 C 
ATOM     24  C   UNL     1      48.047   8.322  12.850  0.00  0.00    +0.000 C 
ENDBRANCH  19  24
ENDBRANCH   1  19
TORSDOF 6
ENDMDL
MODEL 9
REMARK VINA RESULT:    -5.422      3.664      8.732
REMARK INTER + INTRA:          -8.083
REMARK INTER:                  -7.269
REMARK INTRA:                  -0.815
REMARK UNBOUND:                -0.760
REMARK  Name = 
REMARK  8 active torsions:
REMARK  status: ('A' for Active; 'I' for Inactive)
REMARK    1  A    between atoms: C_1  and  C_2
REMARK    2  A    between atoms: C_2  and  C_3
REMARK    3  A    between atoms: C_5  and  O_6
REMARK    4  A    between atoms: O_6  and  C_7
REMARK    5  A    between atoms: C_11  and  C_12
REMARK    6  A    between atoms: C_13  and  N_14
REMARK    7  A    between atoms: N_14  and  C_15
REMARK    8  A    between atoms: C_18  and  C_19
REMARK                            x       y       z     vdW  Elec       q    Type
REMARK                         _______ _______ _______ _____ _____    ______ ____
ROOT
ATOM      1  C   UNL     1      44.173   3.920  10.846  0.00  0.00    +0.000 A 
ATOM      2  C   UNL     1      43.047   4.060  11.651  0.00  0.00    +0.000 A 
ATOM      3  C   UNL     1      43.123   4.816  12.822  0.00  0.00    +0.000 A 
ATOM      4  C   UNL     1      44.314   5.462  13.173  0.00  0.00    +0.000 A 
ATOM      5  C   UNL     1      45.448   5.364  12.354  0.00  0.00    +0.000 A 
ATOM      6  C   UNL     1      45.369   4.561  11.201  0.00  0.00    +0.000 A 
ENDROOT
BRANCH   5   7
ATOM      7  C   UNL     1      46.664   6.108  12.743  0.00  0.00    +0.000 C 
ATOM      8  C   UNL     1      47.175   7.113  12.015  0.00  0.00    +0.000 C 
BRANCH   8   9
ATOM      9  N   UNL     1      48.287   7.875  12.277  0.00  0.00    +0.000 N 
ATOM     10  H   UNL     1      48.738   8.317  11.483  0.00  0.00    +0.000 HD
BRANCH   9  11
ATOM     11  C   UNL     1      48.805   8.190  13.548  0.00  0.00    +0.000 A 
ATOM     12  C   UNL     1      48.103   8.993  14.462  0.00  0.00    +0.000 A 
ATOM     13  C   UNL     1      48.678   9.388  15.676  0.00  0.00    +0.000 A 
ATOM     14  C   UNL     1      49.981   8.999  15.988  0.00  0.00    +0.000 A 
ATOM     15  C   UNL     1      50.692   8.199  15.092  0.00  0.00    +0.000 A 
ATOM     16  C   UNL     1      50.106   7.802  13.882  0.00  0.00    +0.000 A 
BRANCH  14  17
ATOM     17  C   UNL     1      50.583   9.425  17.221  0.00  0.00    +0.000 C 
ATOM     18  N   UNL     1      51.065   9.775  18.221  0.00  0.00    +0.000 NA
ENDBRANCH  14  17
ENDBRANCH   9  11
ENDBRANCH   8   9
ENDBRANCH   5   7
BRANCH   1  19
ATOM     19  O   UNL     1      44.135   3.261   9.640  0.00  0.00    +0.000 OA
BRANCH  19  24
ATOM     20  C   UNL     1      47.154   3.542   7.201  0.00  0.00    +0.000 C 
ATOM     21  C   UNL     1      45.929   2.913   7.823  0.00  0.00    +0.000 C 
ATOM     22  C   UNL     1      46.123   1.483   8.263  0.00  0.00    +0.000 C 
ATOM     23  C   UNL     1      44.596   3.298   7.227  0.00  0.00    +0.000 C 
ATOM     24  C   UNL     1      44.966   3.820   8.592  0.00  0.00    +0.000 C 
ENDBRANCH  19  24
ENDBRANCH   1  19
TORSDOF 6
ENDMDL
