MODEL 1
REMARK VINA RESULT:    -8.303      0.000      0.000
REMARK INTER + INTRA:         -12.109
REMARK INTER:                 -11.216
REMARK INTRA:                  -0.893
REMARK UNBOUND:                -0.893
REMARK  Name = 
REMARK  9 active torsions:
REMARK  status: ('A' for Active; 'I' for Inactive)
REMARK    1  A    between atoms: C_1  and  N_2
REMARK    2  A    between atoms: N_5  and  C_6
REMARK    3  A    between atoms: C_10  and  C_11
REMARK    4  A    between atoms: C_11  and  C_12
REMARK    5  A    between atoms: C_11  and  C_13
REMARK    6  A    between atoms: C_11  and  C_14
REMARK    7  A    between atoms: C_14  and  N_15
REMARK    8  A    between atoms: N_15  and  C_16
REMARK    9  A    between atoms: C_19  and  C_20
REMARK                            x       y       z     vdW  Elec       q    Type
REMARK                         _______ _______ _______ _____ _____    ______ ____
ROOT
ATOM      1  C   UNL     1      43.962   4.845  12.043  0.00  0.00    +0.000 C 
ATOM      2  C   UNL     1      43.097   4.770  13.323  0.00  0.00    +0.000 C 
ATOM      3  C   UNL     1      43.199   5.661  10.972  0.00  0.00    +0.000 C 
ENDROOT
BRANCH   1   8
ATOM      4  C   UNL     1      47.197   5.821  13.933  0.00  0.00    +0.000 A 
ATOM      5  C   UNL     1      47.879   6.490  12.914  0.00  0.00    +0.000 A 
ATOM      6  C   UNL     1      47.286   6.732  11.672  0.00  0.00    +0.000 A 
ATOM      7  C   UNL     1      46.011   6.240  11.398  0.00  0.00    +0.000 A 
ATOM      8  C   UNL     1      45.294   5.541  12.376  0.00  0.00    +0.000 A 
ATOM      9  C   UNL     1      45.881   5.440  13.650  0.00  0.00    +0.000 A 
BRANCH   4  14
ATOM     10  C   UNL     1      48.209   5.250  19.372  0.00  0.00    +0.000 C 
ATOM     11  N   UNL     1      48.416   5.076  17.939  0.00  0.00    +0.000 NA
ATOM     12  C   UNL     1      47.246   4.425  17.311  0.00  0.00    +0.000 C 
ATOM     13  C   UNL     1      47.451   4.194  15.794  0.00  0.00    +0.000 C 
ATOM     14  N   UNL     1      47.788   5.459  15.125  0.00  0.00    +0.000 N 
ATOM     15  C   UNL     1      48.886   6.215  15.752  0.00  0.00    +0.000 C 
ATOM     16  C   UNL     1      48.648   6.377  17.273  0.00  0.00    +0.000 C 
ENDBRANCH   4  14
ENDBRANCH   1   8
BRANCH   1  17
ATOM     17  C   UNL     1      44.104   3.379  11.523  0.00  0.00    +0.000 C 
BRANCH  17  18
ATOM     18  N   UNL     1      43.784   3.206  10.096  0.00  0.00    +0.000 N 
ATOM     19  H   UNL     1      43.046   3.816   9.739  0.00  0.00    +0.000 HD
BRANCH  18  20
ATOM     20  C   UNL     1      44.827   3.008   9.195  0.00  0.00    +0.000 A 
ATOM     21  C   UNL     1      45.392   1.776   8.903  0.00  0.00    +0.000 A 
ATOM     22  N   UNL     1      46.310   1.545   7.944  0.00  0.00    +0.000 NA
ATOM     23  C   UNL     1      46.667   2.630   7.219  0.00  0.00    +0.000 A 
ATOM     24  N   UNL     1      46.211   3.879   7.393  0.00  0.00    +0.000 NA
ATOM     25  C   UNL     1      45.291   4.028   8.374  0.00  0.00    +0.000 A 
BRANCH  23  26
ATOM     26  C   UNL     1      47.633   2.360   6.087  0.00  0.00    +0.000 C 
ATOM     27  N   UNL     1      47.540   3.222   5.019  0.00  0.00    +0.000 N 
ATOM     28  O   UNL     1      48.457   1.450   6.090  0.00  0.00    +0.000 OA
ATOM     29  H   UNL     1      46.870   3.982   5.039  0.00  0.00    +0.000 HD
ATOM     30  H   UNL     1      48.170   3.108   4.238  0.00  0.00    +0.000 HD
ENDBRANCH  23  26
ENDBRANCH  18  20
ENDBRANCH  17  18
ENDBRANCH   1  17
TORSDOF 6
ENDMDL
MODEL 2
REMARK VINA RESULT:    -7.323      2.131      3.608
REMARK INTER + INTRA:         -10.785
REMARK INTER:                 -10.091
REMARK INTRA:                  -0.694
REMARK UNBOUND:                -0.893
REMARK  Name = 
REMARK  9 active torsions:
REMARK  status: ('A' for Active; 'I' for Inactive)
REMARK    1  A    between atoms: C_1  and  N_2
REMARK    2  A    between atoms: N_5  and  C_6
REMARK    3  A    between atoms: C_10  and  C_11
REMARK    4  A    between atoms: C_11  and  C_12
REMARK    5  A    between atoms: C_11  and  C_13
REMARK    6  A    between atoms: C_11  and  C_14
REMARK    7  A    between atoms: C_14  and  N_15
REMARK    8  A    between atoms: N_15  and  C_16
REMARK    9  A    between atoms: C_19  and  C_20
REMARK                            x       y       z     vdW  Elec       q    Type
REMARK                         _______ _______ _______ _____ _____    ______ ____
ROOT
ATOM      1  C   UNL     1      44.274   4.919  12.215  0.00  0.00    +0.000 C 
ATOM      2  C   UNL     1      43.122   4.966  13.246  0.00  0.00    +0.000 C 
ATOM      3  C   UNL     1      44.001   5.971  11.114  0.00  0.00    +0.000 C 
ENDROOT
BRANCH   1   8
ATOM      4  C   UNL     1      47.356   6.905  13.461  0.00  0.00    +0.000 A 
ATOM      5  C   UNL     1      47.817   6.037  14.455  0.00  0.00    +0.000 A 
ATOM      6  C   UNL     1      47.233   4.784  14.659  0.00  0.00    +0.000 A 
ATOM      7  C   UNL     1      46.118   4.401  13.917  0.00  0.00    +0.000 A 
ATOM      8  C   UNL     1      45.600   5.245  12.928  0.00  0.00    +0.000 A 
ATOM      9  C   UNL     1      46.303   6.436  12.669  0.00  0.00    +0.000 A 
BRANCH   4  14
ATOM     10  C   UNL     1      49.680  11.458  11.270  0.00  0.00    +0.000 C 
ATOM     11  N   UNL     1      48.999  10.642  12.269  0.00  0.00    +0.000 NA
ATOM     12  C   UNL     1      47.727  10.107  11.738  0.00  0.00    +0.000 C 
ATOM     13  C   UNL     1      46.964   9.265  12.789  0.00  0.00    +0.000 C 
ATOM     14  N   UNL     1      47.825   8.193  13.308  0.00  0.00    +0.000 N 
ATOM     15  C   UNL     1      49.152   8.636  13.770  0.00  0.00    +0.000 C 
ATOM     16  C   UNL     1      49.848   9.507  12.697  0.00  0.00    +0.000 C 
ENDBRANCH   4  14
ENDBRANCH   1   8
BRANCH   1  17
ATOM     17  C   UNL     1      44.219   3.503  11.558  0.00  0.00    +0.000 C 
BRANCH  17  18
ATOM     18  N   UNL     1      43.902   3.513  10.119  0.00  0.00    +0.000 N 
ATOM     19  H   UNL     1      43.283   4.266   9.815  0.00  0.00    +0.000 HD
BRANCH  18  20
ATOM     20  C   UNL     1      44.916   3.225   9.209  0.00  0.00    +0.000 A 
ATOM     21  C   UNL     1      45.403   1.953   8.950  0.00  0.00    +0.000 A 
ATOM     22  N   UNL     1      46.289   1.638   7.985  0.00  0.00    +0.000 NA
ATOM     23  C   UNL     1      46.697   2.677   7.219  0.00  0.00    +0.000 A 
ATOM     24  N   UNL     1      46.318   3.955   7.359  0.00  0.00    +0.000 NA
ATOM     25  C   UNL     1      45.425   4.189   8.348  0.00  0.00    +0.000 A 
BRANCH  23  26
ATOM     26  C   UNL     1      47.625   2.314   6.082  0.00  0.00    +0.000 C 
ATOM     27  N   UNL     1      47.533   3.120   4.970  0.00  0.00    +0.000 N 
ATOM     28  O   UNL     1      48.419   1.379   6.115  0.00  0.00    +0.000 OA
ATOM     29  H   UNL     1      46.889   3.903   4.964  0.00  0.00    +0.000 HD
ATOM     30  H   UNL     1      48.140   2.944   4.182  0.00  0.00    +0.000 HD
ENDBRANCH  23  26
ENDBRANCH  18  20
ENDBRANCH  17  18
ENDBRANCH   1  17
TORSDOF 6
ENDMDL
MODEL 3
REMARK VINA RESULT:    -7.238      1.703      2.608
REMARK INTER + INTRA:         -10.670
REMARK INTER:                 -10.158
REMARK INTRA:                  -0.512
REMARK UNBOUND:                -0.893
REMARK  Name = 
REMARK  9 active torsions:
REMARK  status: ('A' for Active; 'I' for Inactive)
REMARK    1  A    between atoms: C_1  and  N_2
REMARK    2  A    between atoms: N_5  and  C_6
REMARK    3  A    between atoms: C_10  and  C_11
REMARK    4  A    between atoms: C_11  and  C_12
REMARK    5  A    between atoms: C_11  and  C_13
REMARK    6  A    between atoms: C_11  and  C_14
REMARK    7  A    between atoms: C_14  and  N_15
REMARK    8  A    between atoms: N_15  and  C_16
REMARK    9  A    between atoms: C_19  and  C_20
REMARK                            x       y       z     vdW  Elec       q    Type
REMARK                         _______ _______ _______ _____ _____    ______ ____
ROOT
ATOM      1  C   UNL     1      45.857   6.092  12.097  0.00  0.00    +0.000 C 
ATOM      2  C   UNL     1      45.914   4.592  12.467  0.00  0.00    +0.000 C 
ATOM      3  C   UNL     1      44.695   6.754  12.875  0.00  0.00    +0.000 C 
ENDROOT
BRANCH   1   8
ATOM      4  C   UNL     1      48.971   7.081  14.175  0.00  0.00    +0.000 A 
ATOM      5  C   UNL     1      49.765   7.638  13.169  0.00  0.00    +0.000 A 
ATOM      6  C   UNL     1      49.285   7.806  11.868  0.00  0.00    +0.000 A 
ATOM      7  C   UNL     1      48.016   7.347  11.524  0.00  0.00    +0.000 A 
ATOM      8  C   UNL     1      47.190   6.757  12.488  0.00  0.00    +0.000 A 
ATOM      9  C   UNL     1      47.666   6.733  13.812  0.00  0.00    +0.000 A 
BRANCH   4  14
ATOM     10  C   UNL     1      51.577   4.552  18.388  0.00  0.00    +0.000 C 
ATOM     11  N   UNL     1      50.778   5.572  17.716  0.00  0.00    +0.000 NA
ATOM     12  C   UNL     1      51.542   6.206  16.622  0.00  0.00    +0.000 C 
ATOM     13  C   UNL     1      50.732   7.318  15.912  0.00  0.00    +0.000 C 
ATOM     14  N   UNL     1      49.446   6.790  15.436  0.00  0.00    +0.000 N 
ATOM     15  C   UNL     1      48.666   6.059  16.451  0.00  0.00    +0.000 C 
ATOM     16  C   UNL     1      49.538   4.991  17.154  0.00  0.00    +0.000 C 
ENDBRANCH   4  14
ENDBRANCH   1   8
BRANCH   1  17
ATOM     17  C   UNL     1      45.518   6.157  10.573  0.00  0.00    +0.000 C 
BRANCH  17  18
ATOM     18  N   UNL     1      44.599   5.105  10.110  0.00  0.00    +0.000 N 
ATOM     19  H   UNL     1      43.675   5.430   9.821  0.00  0.00    +0.000 HD
BRANCH  18  20
ATOM     20  C   UNL     1      45.102   4.080   9.313  0.00  0.00    +0.000 A 
ATOM     21  C   UNL     1      45.984   4.262   8.258  0.00  0.00    +0.000 A 
ATOM     22  N   UNL     1      46.581   3.276   7.560  0.00  0.00    +0.000 NA
ATOM     23  C   UNL     1      46.280   2.022   7.968  0.00  0.00    +0.000 A 
ATOM     24  N   UNL     1      45.443   1.696   8.963  0.00  0.00    +0.000 NA
ATOM     25  C   UNL     1      44.885   2.741   9.616  0.00  0.00    +0.000 A 
BRANCH  23  26
ATOM     26  C   UNL     1      47.013   0.915   7.242  0.00  0.00    +0.000 C 
ATOM     27  N   UNL     1      46.702  -0.361   7.653  0.00  0.00    +0.000 N 
ATOM     28  O   UNL     1      47.829   1.104   6.345  0.00  0.00    +0.000 OA
ATOM     29  H   UNL     1      46.011  -0.505   8.381  0.00  0.00    +0.000 HD
ATOM     30  H   UNL     1      47.143  -1.147   7.195  0.00  0.00    +0.000 HD
ENDBRANCH  23  26
ENDBRANCH  18  20
ENDBRANCH  17  18
ENDBRANCH   1  17
TORSDOF 6
ENDMDL
MODEL 4
REMARK VINA RESULT:    -7.016      3.085      8.671
REMARK INTER + INTRA:         -10.370
REMARK INTER:                  -9.743
REMARK INTRA:                  -0.627
REMARK UNBOUND:                -0.893
REMARK  Name = 
REMARK  9 active torsions:
REMARK  status: ('A' for Active; 'I' for Inactive)
REMARK    1  A    between atoms: C_1  and  N_2
REMARK    2  A    between atoms: N_5  and  C_6
REMARK    3  A    between atoms: C_10  and  C_11
REMARK    4  A    between atoms: C_11  and  C_12
REMARK    5  A    between atoms: C_11  and  C_13
REMARK    6  A    between atoms: C_11  and  C_14
REMARK    7  A    between atoms: C_14  and  N_15
REMARK    8  A    between atoms: N_15  and  C_16
REMARK    9  A    between atoms: C_19  and  C_20
REMARK                            x       y       z     vdW  Elec       q    Type
REMARK                         _______ _______ _______ _____ _____    ______ ____
ROOT
ATOM      1  C   UNL     1      46.767   7.393  12.435  0.00  0.00    +0.000 C 
ATOM      2  C   UNL     1      47.969   7.238  11.475  0.00  0.00    +0.000 C 
ATOM      3  C   UNL     1      46.299   8.867  12.416  0.00  0.00    +0.000 C 
ENDROOT
BRANCH   1   8
ATOM      4  C   UNL     1      44.814   4.765  10.368  0.00  0.00    +0.000 A 
ATOM      5  C   UNL     1      43.735   4.536  11.227  0.00  0.00    +0.000 A 
ATOM      6  C   UNL     1      43.560   5.280  12.396  0.00  0.00    +0.000 A 
ATOM      7  C   UNL     1      44.510   6.228  12.772  0.00  0.00    +0.000 A 
ATOM      8  C   UNL     1      45.623   6.478  11.960  0.00  0.00    +0.000 A 
ATOM      9  C   UNL     1      45.684   5.798  10.730  0.00  0.00    +0.000 A 
BRANCH   4  14
ATOM     10  C   UNL     1      47.340   1.223   6.903  0.00  0.00    +0.000 C 
ATOM     11  N   UNL     1      46.298   2.125   7.383  0.00  0.00    +0.000 NA
ATOM     12  C   UNL     1      45.756   1.664   8.679  0.00  0.00    +0.000 C 
ATOM     13  C   UNL     1      44.622   2.582   9.198  0.00  0.00    +0.000 C 
ATOM     14  N   UNL     1      45.086   3.974   9.272  0.00  0.00    +0.000 N 
ATOM     15  C   UNL     1      45.728   4.478   8.044  0.00  0.00    +0.000 C 
ATOM     16  C   UNL     1      46.821   3.499   7.551  0.00  0.00    +0.000 C 
ENDBRANCH   4  14
ENDBRANCH   1   8
BRANCH   1  17
ATOM     17  C   UNL     1      47.304   7.074  13.867  0.00  0.00    +0.000 C 
BRANCH  17  18
ATOM     18  N   UNL     1      47.399   5.637  14.175  0.00  0.00    +0.000 N 
ATOM     19  H   UNL     1      47.781   5.056  13.428  0.00  0.00    +0.000 HD
BRANCH  18  20
ATOM     20  C   UNL     1      47.813   5.252  15.447  0.00  0.00    +0.000 A 
ATOM     21  C   UNL     1      48.716   5.956  16.229  0.00  0.00    +0.000 A 
ATOM     22  N   UNL     1      49.031   5.670  17.508  0.00  0.00    +0.000 NA
ATOM     23  C   UNL     1      48.375   4.611  18.037  0.00  0.00    +0.000 A 
ATOM     24  N   UNL     1      47.485   3.837  17.400  0.00  0.00    +0.000 NA
ATOM     25  C   UNL     1      47.222   4.190  16.121  0.00  0.00    +0.000 A 
BRANCH  23  26
ATOM     26  C   UNL     1      48.662   4.340  19.497  0.00  0.00    +0.000 C 
ATOM     27  N   UNL     1      48.316   3.083  19.938  0.00  0.00    +0.000 N 
ATOM     28  O   UNL     1      49.171   5.154  20.260  0.00  0.00    +0.000 OA
ATOM     29  H   UNL     1      47.916   2.412  19.292  0.00  0.00    +0.000 HD
ATOM     30  H   UNL     1      48.499   2.831  20.899  0.00  0.00    +0.000 HD
ENDBRANCH  23  26
ENDBRANCH  18  20
ENDBRANCH  17  18
ENDBRANCH   1  17
TORSDOF 6
ENDMDL
MODEL 5
REMARK VINA RESULT:    -6.753      3.838      7.868
REMARK INTER + INTRA:         -10.015
REMARK INTER:                  -8.869
REMARK INTRA:                  -1.146
REMARK UNBOUND:                -0.893
REMARK  Name = 
REMARK  9 active torsions:
REMARK  status: ('A' for Active; 'I' for Inactive)
REMARK    1  A    between atoms: C_1  and  N_2
REMARK    2  A    between atoms: N_5  and  C_6
REMARK    3  A    between atoms: C_10  and  C_11
REMARK    4  A    between atoms: C_11  and  C_12
REMARK    5  A    between atoms: C_11  and  C_13
REMARK    6  A    between atoms: C_11  and  C_14
REMARK    7  A    between atoms: C_14  and  N_15
REMARK    8  A    between atoms: N_15  and  C_16
REMARK    9  A    between atoms: C_19  and  C_20
REMARK                            x       y       z     vdW  Elec       q    Type
REMARK                         _______ _______ _______ _____ _____    ______ ____
ROOT
ATOM      1  C   UNL     1      48.953   8.942  12.422  0.00  0.00    +0.000 C 
ATOM      2  C   UNL     1      49.567   7.675  11.783  0.00  0.00    +0.000 C 
ATOM      3  C   UNL     1      49.700  10.185  11.883  0.00  0.00    +0.000 C 
ENDROOT
BRANCH   1   8
ATOM      4  C   UNL     1      45.259   7.911  11.888  0.00  0.00    +0.000 A 
ATOM      5  C   UNL     1      44.681   9.170  11.704  0.00  0.00    +0.000 A 
ATOM      6  C   UNL     1      45.459  10.328  11.636  0.00  0.00    +0.000 A 
ATOM      7  C   UNL     1      46.837  10.259  11.827  0.00  0.00    +0.000 A 
ATOM      8  C   UNL     1      47.463   9.025  12.041  0.00  0.00    +0.000 A 
ATOM      9  C   UNL     1      46.655   7.877  11.968  0.00  0.00    +0.000 A 
BRANCH   4  14
ATOM     10  C   UNL     1      43.466   2.658  11.534  0.00  0.00    +0.000 C 
ATOM     11  N   UNL     1      43.496   4.042  11.994  0.00  0.00    +0.000 NA
ATOM     12  C   UNL     1      44.793   4.362  12.627  0.00  0.00    +0.000 C 
ATOM     13  C   UNL     1      44.842   5.816  13.157  0.00  0.00    +0.000 C 
ATOM     14  N   UNL     1      44.520   6.763  12.081  0.00  0.00    +0.000 N 
ATOM     15  C   UNL     1      43.285   6.456  11.338  0.00  0.00    +0.000 C 
ATOM     16  C   UNL     1      43.274   4.980  10.871  0.00  0.00    +0.000 C 
ENDBRANCH   4  14
ENDBRANCH   1   8
BRANCH   1  17
ATOM     17  C   UNL     1      49.229   8.839  13.956  0.00  0.00    +0.000 C 
BRANCH  17  18
ATOM     18  N   UNL     1      49.891   7.591  14.371  0.00  0.00    +0.000 N 
ATOM     19  H   UNL     1      50.877   7.683  14.621  0.00  0.00    +0.000 HD
BRANCH  18  20
ATOM     20  C   UNL     1      49.192   6.700  15.183  0.00  0.00    +0.000 A 
ATOM     21  C   UNL     1      48.205   5.835  14.736  0.00  0.00    +0.000 A 
ATOM     22  N   UNL     1      47.610   4.880  15.477  0.00  0.00    +0.000 NA
ATOM     23  C   UNL     1      48.056   4.781  16.751  0.00  0.00    +0.000 A 
ATOM     24  N   UNL     1      48.995   5.552  17.319  0.00  0.00    +0.000 NA
ATOM     25  C   UNL     1      49.545   6.485  16.509  0.00  0.00    +0.000 A 
BRANCH  23  26
ATOM     26  C   UNL     1      47.452   3.655  17.560  0.00  0.00    +0.000 C 
ATOM     27  N   UNL     1      48.120   3.345  18.723  0.00  0.00    +0.000 N 
ATOM     28  O   UNL     1      46.438   3.045  17.237  0.00  0.00    +0.000 OA
ATOM     29  H   UNL     1      48.944   3.872  18.989  0.00  0.00    +0.000 HD
ATOM     30  H   UNL     1      47.757   2.615  19.319  0.00  0.00    +0.000 HD
ENDBRANCH  23  26
ENDBRANCH  18  20
ENDBRANCH  17  18
ENDBRANCH   1  17
TORSDOF 6
ENDMDL
MODEL 6
REMARK VINA RESULT:    -6.711      1.975      3.075
REMARK INTER + INTRA:          -9.959
REMARK INTER:                  -9.574
REMARK INTRA:                  -0.384
REMARK UNBOUND:                -0.893
REMARK  Name = 
REMARK  9 active torsions:
REMARK  status: ('A' for Active; 'I' for Inactive)
REMARK    1  A    between atoms: C_1  and  N_2
REMARK    2  A    between atoms: N_5  and  C_6
REMARK    3  A    between atoms: C_10  and  C_11
REMARK    4  A    between atoms: C_11  and  C_12
REMARK    5  A    between atoms: C_11  and  C_13
REMARK    6  A    between atoms: C_11  and  C_14
REMARK    7  A    between atoms: C_14  and  N_15
REMARK    8  A    between atoms: N_15  and  C_16
REMARK    9  A    between atoms: C_19  and  C_20
REMARK                            x       y       z     vdW  Elec       q    Type
REMARK                         _______ _______ _______ _____ _____    ______ ____
ROOT
ATOM      1  C   UNL     1      45.550   5.404  12.399  0.00  0.00    +0.000 C 
ATOM      2  C   UNL     1      44.305   6.180  12.886  0.00  0.00    +0.000 C 
ATOM      3  C   UNL     1      46.212   6.195  11.246  0.00  0.00    +0.000 C 
ENDROOT
BRANCH   1   8
ATOM      4  C   UNL     1      48.265   6.294  15.013  0.00  0.00    +0.000 A 
ATOM      5  C   UNL     1      48.124   5.211  15.885  0.00  0.00    +0.000 A 
ATOM      6  C   UNL     1      47.262   4.150  15.600  0.00  0.00    +0.000 A 
ATOM      7  C   UNL     1      46.460   4.185  14.461  0.00  0.00    +0.000 A 
ATOM      8  C   UNL     1      46.542   5.260  13.568  0.00  0.00    +0.000 A 
ATOM      9  C   UNL     1      47.520   6.237  13.831  0.00  0.00    +0.000 A 
BRANCH   4  14
ATOM     10  C   UNL     1      49.673  11.516  16.308  0.00  0.00    +0.000 C 
ATOM     11  N   UNL     1      49.874  10.103  16.006  0.00  0.00    +0.000 NA
ATOM     12  C   UNL     1      49.153   9.248  16.974  0.00  0.00    +0.000 C 
ATOM     13  C   UNL     1      49.376   7.740  16.700  0.00  0.00    +0.000 C 
ATOM     14  N   UNL     1      49.011   7.413  15.314  0.00  0.00    +0.000 N 
ATOM     15  C   UNL     1      49.618   8.286  14.294  0.00  0.00    +0.000 C 
ATOM     16  C   UNL     1      49.400   9.778  14.643  0.00  0.00    +0.000 C 
ENDBRANCH   4  14
ENDBRANCH   1   8
BRANCH   1  17
ATOM     17  C   UNL     1      45.026   4.051  11.820  0.00  0.00    +0.000 C 
BRANCH  17  18
ATOM     18  N   UNL     1      44.362   4.168  10.510  0.00  0.00    +0.000 N 
ATOM     19  H   UNL     1      43.854   5.040  10.356  0.00  0.00    +0.000 HD
BRANCH  18  20
ATOM     20  C   UNL     1      45.027   3.703   9.379  0.00  0.00    +0.000 A 
ATOM     21  C   UNL     1      45.599   4.516   8.412  0.00  0.00    +0.000 A 
ATOM     22  N   UNL     1      46.355   4.091   7.381  0.00  0.00    +0.000 NA
ATOM     23  C   UNL     1      46.563   2.754   7.335  0.00  0.00    +0.000 A 
ATOM     24  N   UNL     1      46.069   1.851   8.194  0.00  0.00    +0.000 NA
ATOM     25  C   UNL     1      45.322   2.357   9.202  0.00  0.00    +0.000 A 
BRANCH  23  26
ATOM     26  C   UNL     1      47.481   2.282   6.230  0.00  0.00    +0.000 C 
ATOM     27  N   UNL     1      47.319   2.921   5.021  0.00  0.00    +0.000 N 
ATOM     28  O   UNL     1      48.323   1.401   6.367  0.00  0.00    +0.000 OA
ATOM     29  H   UNL     1      46.635   3.662   4.928  0.00  0.00    +0.000 HD
ATOM     30  H   UNL     1      47.915   2.666   4.247  0.00  0.00    +0.000 HD
ENDBRANCH  23  26
ENDBRANCH  18  20
ENDBRANCH  17  18
ENDBRANCH   1  17
TORSDOF 6
ENDMDL
MODEL 7
REMARK VINA RESULT:    -6.611      3.030      5.171
REMARK INTER + INTRA:          -9.824
REMARK INTER:                  -8.843
REMARK INTRA:                  -0.980
REMARK UNBOUND:                -0.893
REMARK  Name = 
REMARK  9 active torsions:
REMARK  status: ('A' for Active; 'I' for Inactive)
REMARK    1  A    between atoms: C_1  and  N_2
REMARK    2  A    between atoms: N_5  and  C_6
REMARK    3  A    between atoms: C_10  and  C_11
REMARK    4  A    between atoms: C_11  and  C_12
REMARK    5  A    between atoms: C_11  and  C_13
REMARK    6  A    between atoms: C_11  and  C_14
REMARK    7  A    between atoms: C_14  and  N_15
REMARK    8  A    between atoms: N_15  and  C_16
REMARK    9  A    between atoms: C_19  and  C_20
REMARK                            x       y       z     vdW  Elec       q    Type
REMARK                         _______ _______ _______ _____ _____    ______ ____
ROOT
ATOM      1  C   UNL     1      48.521   8.229  13.304  0.00  0.00    +0.000 C 
ATOM      2  C   UNL     1      49.284   9.526  12.949  0.00  0.00    +0.000 C 
ATOM      3  C   UNL     1      49.282   7.022  12.705  0.00  0.00    +0.000 C 
ENDROOT
BRANCH   1   8
ATOM      4  C   UNL     1      48.840   6.706  16.849  0.00  0.00    +0.000 A 
ATOM      5  C   UNL     1      48.681   7.859  17.622  0.00  0.00    +0.000 A 
ATOM      6  C   UNL     1      48.364   9.090  17.042  0.00  0.00    +0.000 A 
ATOM      7  C   UNL     1      48.272   9.209  15.657  0.00  0.00    +0.000 A 
ATOM      8  C   UNL     1      48.449   8.090  14.835  0.00  0.00    +0.000 A 
ATOM      9  C   UNL     1      48.634   6.850  15.474  0.00  0.00    +0.000 A 
BRANCH   4  14
ATOM     10  C   UNL     1      51.048   1.619  17.274  0.00  0.00    +0.000 C 
ATOM     11  N   UNL     1      50.410   2.852  17.723  0.00  0.00    +0.000 NA
ATOM     12  C   UNL     1      51.257   4.025  17.425  0.00  0.00    +0.000 C 
ATOM     13  C   UNL     1      50.621   5.347  17.923  0.00  0.00    +0.000 C 
ATOM     14  N   UNL     1      49.269   5.503  17.369  0.00  0.00    +0.000 N 
ATOM     15  C   UNL     1      48.391   4.333  17.544  0.00  0.00    +0.000 C 
ATOM     16  C   UNL     1      49.095   3.038  17.070  0.00  0.00    +0.000 C 
ENDBRANCH   4  14
ENDBRANCH   1   8
BRANCH   1  17
ATOM     17  C   UNL     1      47.133   8.326  12.593  0.00  0.00    +0.000 C 
BRANCH  17  18
ATOM     18  N   UNL     1      46.053   7.583  13.264  0.00  0.00    +0.000 N 
ATOM     19  H   UNL     1      45.283   8.155  13.614  0.00  0.00    +0.000 HD
BRANCH  18  20
ATOM     20  C   UNL     1      45.643   6.367  12.725  0.00  0.00    +0.000 A 
ATOM     21  C   UNL     1      45.424   5.212  13.461  0.00  0.00    +0.000 A 
ATOM     22  N   UNL     1      44.906   4.066  12.980  0.00  0.00    +0.000 NA
ATOM     23  C   UNL     1      44.569   4.094  11.670  0.00  0.00    +0.000 A 
ATOM     24  N   UNL     1      44.729   5.132  10.837  0.00  0.00    +0.000 NA
ATOM     25  C   UNL     1      45.254   6.247  11.397  0.00  0.00    +0.000 A 
BRANCH  23  26
ATOM     26  C   UNL     1      43.908   2.837  11.147  0.00  0.00    +0.000 C 
ATOM     27  N   UNL     1      44.469   2.312  10.005  0.00  0.00    +0.000 N 
ATOM     28  O   UNL     1      42.945   2.295  11.680  0.00  0.00    +0.000 OA
ATOM     29  H   UNL     1      45.278   2.758   9.587  0.00  0.00    +0.000 HD
ATOM     30  H   UNL     1      44.087   1.463   9.615  0.00  0.00    +0.000 HD
ENDBRANCH  23  26
ENDBRANCH  18  20
ENDBRANCH  17  18
ENDBRANCH   1  17
TORSDOF 6
ENDMDL
MODEL 8
REMARK VINA RESULT:    -6.395      3.185      8.805
REMARK INTER + INTRA:          -9.531
REMARK INTER:                  -8.881
REMARK INTRA:                  -0.650
REMARK UNBOUND:                -0.893
REMARK  Name = 
REMARK  9 active torsions:
REMARK  status: ('A' for Active; 'I' for Inactive)
REMARK    1  A    between atoms: C_1  and  N_2
REMARK    2  A    between atoms: N_5  and  C_6
REMARK    3  A    between atoms: C_10  and  C_11
REMARK    4  A    between atoms: C_11  and  C_12
REMARK    5  A    between atoms: C_11  and  C_13
REMARK    6  A    between atoms: C_11  and  C_14
REMARK    7  A    between atoms: C_14  and  N_15
REMARK    8  A    between atoms: N_15  and  C_16
REMARK    9  A    between atoms: C_19  and  C_20
REMARK                            x       y       z     vdW  Elec       q    Type
REMARK                         _______ _______ _______ _____ _____    ______ ____
ROOT
ATOM      1  C   UNL     1      46.093   6.400  12.624  0.00  0.00    +0.000 C 
ATOM      2  C   UNL     1      47.215   6.722  11.610  0.00  0.00    +0.000 C 
ATOM      3  C   UNL     1      45.275   7.686  12.889  0.00  0.00    +0.000 C 
ENDROOT
BRANCH   1   8
ATOM      4  C   UNL     1      44.708   3.719  10.197  0.00  0.00    +0.000 A 
ATOM      5  C   UNL     1      43.770   3.102  11.028  0.00  0.00    +0.000 A 
ATOM      6  C   UNL     1      43.491   3.593  12.306  0.00  0.00    +0.000 A 
ATOM      7  C   UNL     1      44.206   4.676  12.812  0.00  0.00    +0.000 A 
ATOM      8  C   UNL     1      45.176   5.314  12.030  0.00  0.00    +0.000 A 
ATOM      9  C   UNL     1      45.325   4.867  10.704  0.00  0.00    +0.000 A 
BRANCH   4  14
ATOM     10  C   UNL     1      47.853   1.766   6.046  0.00  0.00    +0.000 C 
ATOM     11  N   UNL     1      46.630   2.142   6.746  0.00  0.00    +0.000 NA
ATOM     12  C   UNL     1      46.495   1.394   8.014  0.00  0.00    +0.000 C 
ATOM     13  C   UNL     1      45.187   1.746   8.764  0.00  0.00    +0.000 C 
ATOM     14  N   UNL     1      45.097   3.197   8.981  0.00  0.00    +0.000 N 
ATOM     15  C   UNL     1      45.316   4.016   7.776  0.00  0.00    +0.000 C 
ATOM     16  C   UNL     1      46.613   3.591   7.047  0.00  0.00    +0.000 C 
ENDBRANCH   4  14
ENDBRANCH   1   8
BRANCH   1  17
ATOM     17  C   UNL     1      46.804   5.995  13.955  0.00  0.00    +0.000 C 
BRANCH  17  18
ATOM     18  N   UNL     1      47.722   7.016  14.487  0.00  0.00    +0.000 N 
ATOM     19  H   UNL     1      47.275   7.870  14.825  0.00  0.00    +0.000 HD
BRANCH  18  20
ATOM     20  C   UNL     1      48.800   6.605  15.268  0.00  0.00    +0.000 A 
ATOM     21  C   UNL     1      50.067   7.166  15.221  0.00  0.00    +0.000 A 
ATOM     22  N   UNL     1      51.083   6.871  16.054  0.00  0.00    +0.000 NA
ATOM     23  C   UNL     1      50.793   5.960  17.012  0.00  0.00    +0.000 A 
ATOM     24  N   UNL     1      49.620   5.332  17.173  0.00  0.00    +0.000 NA
ATOM     25  C   UNL     1      48.650   5.685  16.298  0.00  0.00    +0.000 A 
BRANCH  23  26
ATOM     26  C   UNL     1      51.905   5.690  18.001  0.00  0.00    +0.000 C 
ATOM     27  N   UNL     1      52.163   4.360  18.244  0.00  0.00    +0.000 N 
ATOM     28  O   UNL     1      52.554   6.567  18.562  0.00  0.00    +0.000 OA
ATOM     29  H   UNL     1      51.633   3.645  17.758  0.00  0.00    +0.000 HD
ATOM     30  H   UNL     1      52.906   4.111  18.881  0.00  0.00    +0.000 HD
ENDBRANCH  23  26
ENDBRANCH  18  20
ENDBRANCH  17  18
ENDBRANCH   1  17
TORSDOF 6
ENDMDL
MODEL 9
REMARK VINA RESULT:    -6.114      3.976      8.044
REMARK INTER + INTRA:          -9.152
REMARK INTER:                  -7.930
REMARK INTRA:                  -1.222
REMARK UNBOUND:                -0.893
REMARK  Name = 
REMARK  9 active torsions:
REMARK  status: ('A' for Active; 'I' for Inactive)
REMARK    1  A    between atoms: C_1  and  N_2
REMARK    2  A    between atoms: N_5  and  C_6
REMARK    3  A    between atoms: C_10  and  C_11
REMARK    4  A    between atoms: C_11  and  C_12
REMARK    5  A    between atoms: C_11  and  C_13
REMARK    6  A    between atoms: C_11  and  C_14
REMARK    7  A    between atoms: C_14  and  N_15
REMARK    8  A    between atoms: N_15  and  C_16
REMARK    9  A    between atoms: C_19  and  C_20
REMARK                            x       y       z     vdW  Elec       q    Type
REMARK                         _______ _______ _______ _____ _____    ______ ____
ROOT
ATOM      1  C   UNL     1      49.499   9.634  15.117  0.00  0.00    +0.000 C 
ATOM      2  C   UNL     1      51.015   9.484  15.382  0.00  0.00    +0.000 C 
ATOM      3  C   UNL     1      49.195  11.113  14.779  0.00  0.00    +0.000 C 
ENDROOT
BRANCH   1   8
ATOM      4  C   UNL     1      47.608   7.000  13.000  0.00  0.00    +0.000 A 
ATOM      5  C   UNL     1      48.096   7.316  11.729  0.00  0.00    +0.000 A 
ATOM      6  C   UNL     1      49.097   8.275  11.548  0.00  0.00    +0.000 A 
ATOM      7  C   UNL     1      49.581   8.997  12.637  0.00  0.00    +0.000 A 
ATOM      8  C   UNL     1      49.105   8.738  13.928  0.00  0.00    +0.000 A 
ATOM      9  C   UNL     1      48.198   7.673  14.074  0.00  0.00    +0.000 A 
BRANCH   4  14
ATOM     10  C   UNL     1      43.806   3.010  12.258  0.00  0.00    +0.000 C 
ATOM     11  N   UNL     1      44.513   4.084  12.946  0.00  0.00    +0.000 NA
ATOM     12  C   UNL     1      45.943   3.749  13.120  0.00  0.00    +0.000 C 
ATOM     13  C   UNL     1      46.714   4.856  13.880  0.00  0.00    +0.000 C 
ATOM     14  N   UNL     1      46.541   6.151  13.208  0.00  0.00    +0.000 N 
ATOM     15  C   UNL     1      45.143   6.513  12.914  0.00  0.00    +0.000 C 
ATOM     16  C   UNL     1      44.413   5.354  12.194  0.00  0.00    +0.000 C 
ENDBRANCH   4  14
ENDBRANCH   1   8
BRANCH   1  17
ATOM     17  C   UNL     1      48.780   9.287  16.460  0.00  0.00    +0.000 C 
BRANCH  17  18
ATOM     18  N   UNL     1      49.572   8.443  17.372  0.00  0.00    +0.000 N 
ATOM     19  H   UNL     1      49.779   8.860  18.280  0.00  0.00    +0.000 HD
BRANCH  18  20
ATOM     20  C   UNL     1      49.291   7.080  17.435  0.00  0.00    +0.000 A 
ATOM     21  C   UNL     1      48.180   6.532  18.058  0.00  0.00    +0.000 A 
ATOM     22  N   UNL     1      47.825   5.233  18.019  0.00  0.00    +0.000 NA
ATOM     23  C   UNL     1      48.638   4.438  17.287  0.00  0.00    +0.000 A 
ATOM     24  N   UNL     1      49.746   4.826  16.639  0.00  0.00    +0.000 NA
ATOM     25  C   UNL     1      50.034   6.145  16.724  0.00  0.00    +0.000 A 
BRANCH  23  26
ATOM     26  C   UNL     1      48.196   2.996  17.171  0.00  0.00    +0.000 C 
ATOM     27  N   UNL     1      46.930   2.732  17.641  0.00  0.00    +0.000 N 
ATOM     28  O   UNL     1      48.887   2.102  16.693  0.00  0.00    +0.000 OA
ATOM     29  H   UNL     1      46.361   3.484  18.013  0.00  0.00    +0.000 HD
ATOM     30  H   UNL     1      46.566   1.792  17.575  0.00  0.00    +0.000 HD
ENDBRANCH  23  26
ENDBRANCH  18  20
ENDBRANCH  17  18
ENDBRANCH   1  17
TORSDOF 6
ENDMDL
