MODEL 1
REMARK VINA RESULT:    -8.070      0.000      0.000
REMARK INTER + INTRA:         -11.292
REMARK INTER:                 -10.429
REMARK INTRA:                  -0.863
REMARK UNBOUND:                -0.863
REMARK  Name = 
REMARK  5 active torsions:
REMARK  status: ('A' for Active; 'I' for Inactive)
REMARK    1  A    between atoms: C_2  and  C_4
REMARK    2  A    between atoms: C_7  and  O_8
REMARK    3  A    between atoms: O_8  and  C_9
REMARK    4  A    between atoms: C_9  and  C_10
REMARK    5  A    between atoms: C_14  and  C_15
REMARK                            x       y       z     vdW  Elec       q    Type
REMARK                         _______ _______ _______ _____ _____    ______ ____
ROOT
ATOM      1  C   UNL     1      44.280   5.846  10.534  0.00  0.00    +0.000 C 
ENDROOT
BRANCH   1   2
ATOM      2  C   UNL     1      45.241   5.663  11.683  0.00  0.00    +0.000 A 
ATOM      3  C   UNL     1      44.938   4.805  12.744  0.00  0.00    +0.000 A 
ATOM      4  C   UNL     1      45.846   4.633  13.784  0.00  0.00    +0.000 A 
ATOM      5  C   UNL     1      47.080   5.285  13.750  0.00  0.00    +0.000 A 
ATOM      6  C   UNL     1      47.438   6.105  12.665  0.00  0.00    +0.000 A 
ATOM      7  C   UNL     1      46.483   6.315  11.661  0.00  0.00    +0.000 A 
BRANCH   6   8
ATOM      8  C   UNL     1      48.859   6.656  12.603  0.00  0.00    +0.000 C 
ATOM      9  C   UNL     1      48.884   8.071  12.017  0.00  0.00    +0.000 C 
ATOM     10  C   UNL     1      48.492   8.939  13.202  0.00  0.00    +0.000 C 
ATOM     11  C   UNL     1      49.037   8.186  14.408  0.00  0.00    +0.000 C 
ATOM     12  N   UNL     1      49.520   6.903  13.893  0.00  0.00    +0.000 NA
ATOM     13  H   UNL     1      49.386   6.137  14.546  0.00  0.00    +0.000 HD
ENDBRANCH   6   8
ENDBRANCH   1   2
BRANCH   1  14
ATOM     14  O   UNL     1      43.797   4.558  10.145  0.00  0.00    +0.000 OA
BRANCH  14  18
ATOM     15  C   UNL     1      46.424   2.492   7.745  0.00  0.00    +0.000 A 
ATOM     16  C   UNL     1      45.672   1.802   8.696  0.00  0.00    +0.000 A 
ATOM     17  C   UNL     1      44.787   2.514   9.509  0.00  0.00    +0.000 A 
ATOM     18  C   UNL     1      44.692   3.888   9.339  0.00  0.00    +0.000 A 
ATOM     19  N   UNL     1      45.420   4.581   8.438  0.00  0.00    +0.000 NA
ATOM     20  C   UNL     1      46.278   3.871   7.668  0.00  0.00    +0.000 A 
BRANCH  15  22
ATOM     21  N   UNL     1      48.457   2.567   6.418  0.00  0.00    +0.000 N 
ATOM     22  C   UNL     1      47.376   1.839   6.822  0.00  0.00    +0.000 C 
ATOM     23  O   UNL     1      47.227   0.676   6.474  0.00  0.00    +0.000 OA
ATOM     24  H   UNL     1      49.160   2.060   5.893  0.00  0.00    +0.000 HD
ATOM     25  H   UNL     1      48.747   3.414   6.885  0.00  0.00    +0.000 HD
ENDBRANCH  15  22
ENDBRANCH  14  18
ENDBRANCH   1  14
TORSDOF 5
ENDMDL
MODEL 2
REMARK VINA RESULT:    -7.941      1.032      1.580
REMARK INTER + INTRA:         -11.125
REMARK INTER:                 -10.337
REMARK INTRA:                  -0.788
REMARK UNBOUND:                -0.863
REMARK  Name = 
REMARK  5 active torsions:
REMARK  status: ('A' for Active; 'I' for Inactive)
REMARK    1  A    between atoms: C_2  and  C_4
REMARK    2  A    between atoms: C_7  and  O_8
REMARK    3  A    between atoms: O_8  and  C_9
REMARK    4  A    between atoms: C_9  and  C_10
REMARK    5  A    between atoms: C_14  and  C_15
REMARK                            x       y       z     vdW  Elec       q    Type
REMARK                         _______ _______ _______ _____ _____    ______ ____
ROOT
ATOM      1  C   UNL     1      44.277   4.804  11.407  0.00  0.00    +0.000 C 
ENDROOT
BRANCH   1   2
ATOM      2  C   UNL     1      45.004   6.118  11.553  0.00  0.00    +0.000 A 
ATOM      3  C   UNL     1      44.306   7.329  11.550  0.00  0.00    +0.000 A 
ATOM      4  C   UNL     1      44.991   8.530  11.706  0.00  0.00    +0.000 A 
ATOM      5  C   UNL     1      46.372   8.526  11.909  0.00  0.00    +0.000 A 
ATOM      6  C   UNL     1      47.092   7.320  11.979  0.00  0.00    +0.000 A 
ATOM      7  C   UNL     1      46.392   6.126  11.753  0.00  0.00    +0.000 A 
BRANCH   6   8
ATOM      8  C   UNL     1      48.567   7.369  12.366  0.00  0.00    +0.000 C 
ATOM      9  C   UNL     1      48.893   8.631  13.170  0.00  0.00    +0.000 C 
ATOM     10  C   UNL     1      48.433   8.270  14.574  0.00  0.00    +0.000 C 
ATOM     11  C   UNL     1      48.652   6.766  14.659  0.00  0.00    +0.000 C 
ATOM     12  N   UNL     1      49.027   6.339  13.309  0.00  0.00    +0.000 NA
ATOM     13  H   UNL     1      48.677   5.416  13.073  0.00  0.00    +0.000 HD
ENDBRANCH   6   8
ENDBRANCH   1   2
BRANCH   1  14
ATOM     14  O   UNL     1      43.835   4.685  10.052  0.00  0.00    +0.000 OA
BRANCH  14  18
ATOM     15  C   UNL     1      46.423   2.466   7.749  0.00  0.00    +0.000 A 
ATOM     16  C   UNL     1      45.631   1.828   8.704  0.00  0.00    +0.000 A 
ATOM     17  C   UNL     1      44.759   2.591   9.484  0.00  0.00    +0.000 A 
ATOM     18  C   UNL     1      44.718   3.963   9.278  0.00  0.00    +0.000 A 
ATOM     19  N   UNL     1      45.485   4.607   8.373  0.00  0.00    +0.000 NA
ATOM     20  C   UNL     1      46.329   3.847   7.636  0.00  0.00    +0.000 A 
BRANCH  15  22
ATOM     21  N   UNL     1      48.454   2.449   6.418  0.00  0.00    +0.000 N 
ATOM     22  C   UNL     1      47.365   1.755   6.859  0.00  0.00    +0.000 C 
ATOM     23  O   UNL     1      47.200   0.578   6.569  0.00  0.00    +0.000 OA
ATOM     24  H   UNL     1      49.150   1.907   5.918  0.00  0.00    +0.000 HD
ATOM     25  H   UNL     1      48.756   3.314   6.843  0.00  0.00    +0.000 HD
ENDBRANCH  15  22
ENDBRANCH  14  18
ENDBRANCH   1  14
TORSDOF 5
ENDMDL
MODEL 3
REMARK VINA RESULT:    -6.943      4.114      8.159
REMARK INTER + INTRA:          -9.836
REMARK INTER:                  -9.208
REMARK INTRA:                  -0.628
REMARK UNBOUND:                -0.863
REMARK  Name = 
REMARK  5 active torsions:
REMARK  status: ('A' for Active; 'I' for Inactive)
REMARK    1  A    between atoms: C_2  and  C_4
REMARK    2  A    between atoms: C_7  and  O_8
REMARK    3  A    between atoms: O_8  and  C_9
REMARK    4  A    between atoms: C_9  and  C_10
REMARK    5  A    between atoms: C_14  and  C_15
REMARK                            x       y       z     vdW  Elec       q    Type
REMARK                         _______ _______ _______ _____ _____    ______ ____
ROOT
ATOM      1  C   UNL     1      46.893   3.519  14.048  0.00  0.00    +0.000 C 
ENDROOT
BRANCH   1   2
ATOM      2  C   UNL     1      46.270   4.241  12.878  0.00  0.00    +0.000 A 
ATOM      3  C   UNL     1      46.552   5.587  12.632  0.00  0.00    +0.000 A 
ATOM      4  C   UNL     1      45.985   6.231  11.537  0.00  0.00    +0.000 A 
ATOM      5  C   UNL     1      45.165   5.521  10.656  0.00  0.00    +0.000 A 
ATOM      6  C   UNL     1      44.914   4.150  10.843  0.00  0.00    +0.000 A 
ATOM      7  C   UNL     1      45.443   3.539  11.989  0.00  0.00    +0.000 A 
BRANCH   6   8
ATOM      8  C   UNL     1      44.150   3.392   9.763  0.00  0.00    +0.000 C 
ATOM      9  C   UNL     1      44.457   3.944   8.368  0.00  0.00    +0.000 C 
ATOM     10  C   UNL     1      45.788   3.291   8.027  0.00  0.00    +0.000 C 
ATOM     11  C   UNL     1      45.735   1.949   8.745  0.00  0.00    +0.000 C 
ATOM     12  N   UNL     1      44.524   1.983   9.568  0.00  0.00    +0.000 NA
ATOM     13  H   UNL     1      44.628   1.487  10.447  0.00  0.00    +0.000 HD
ENDBRANCH   6   8
ENDBRANCH   1   2
BRANCH   1  14
ATOM     14  O   UNL     1      46.473   4.170  15.250  0.00  0.00    +0.000 OA
BRANCH  14  18
ATOM     15  C   UNL     1      49.488   4.310  18.046  0.00  0.00    +0.000 A 
ATOM     16  C   UNL     1      48.529   3.300  18.118  0.00  0.00    +0.000 A 
ATOM     17  C   UNL     1      47.507   3.264  17.167  0.00  0.00    +0.000 A 
ATOM     18  C   UNL     1      47.485   4.243  16.183  0.00  0.00    +0.000 A 
ATOM     19  N   UNL     1      48.391   5.240  16.101  0.00  0.00    +0.000 NA
ATOM     20  C   UNL     1      49.367   5.259  17.040  0.00  0.00    +0.000 A 
BRANCH  15  22
ATOM     21  N   UNL     1      51.668   3.573  18.824  0.00  0.00    +0.000 N 
ATOM     22  C   UNL     1      50.621   4.432  18.988  0.00  0.00    +0.000 C 
ATOM     23  O   UNL     1      50.640   5.301  19.849  0.00  0.00    +0.000 OA
ATOM     24  H   UNL     1      52.485   3.758  19.394  0.00  0.00    +0.000 HD
ATOM     25  H   UNL     1      51.803   3.036  17.980  0.00  0.00    +0.000 HD
ENDBRANCH  15  22
ENDBRANCH  14  18
ENDBRANCH   1  14
TORSDOF 5
ENDMDL
MODEL 4
REMARK VINA RESULT:    -6.189      4.181      8.272
REMARK INTER + INTRA:          -8.861
REMARK INTER:                  -8.080
REMARK INTRA:                  -0.781
REMARK UNBOUND:                -0.863
REMARK  Name = 
REMARK  5 active torsions:
REMARK  status: ('A' for Active; 'I' for Inactive)
REMARK    1  A    between atoms: C_2  and  C_4
REMARK    2  A    between atoms: C_7  and  O_8
REMARK    3  A    between atoms: O_8  and  C_9
REMARK    4  A    between atoms: C_9  and  C_10
REMARK    5  A    between atoms: C_14  and  C_15
REMARK                            x       y       z     vdW  Elec       q    Type
REMARK                         _______ _______ _______ _____ _____    ______ ____
ROOT
ATOM      1  C   UNL     1      48.299   7.018  14.077  0.00  0.00    +0.000 C 
ENDROOT
BRANCH   1   2
ATOM      2  C   UNL     1      47.078   7.300  13.237  0.00  0.00    +0.000 A 
ATOM      3  C   UNL     1      46.612   8.606  13.063  0.00  0.00    +0.000 A 
ATOM      4  C   UNL     1      45.496   8.849  12.267  0.00  0.00    +0.000 A 
ATOM      5  C   UNL     1      44.865   7.793  11.607  0.00  0.00    +0.000 A 
ATOM      6  C   UNL     1      45.349   6.477  11.713  0.00  0.00    +0.000 A 
ATOM      7  C   UNL     1      46.434   6.246  12.571  0.00  0.00    +0.000 A 
BRANCH   6   8
ATOM      8  C   UNL     1      44.723   5.394  10.841  0.00  0.00    +0.000 C 
ATOM      9  C   UNL     1      44.668   4.050  11.572  0.00  0.00    +0.000 C 
ATOM     10  C   UNL     1      43.438   4.190  12.457  0.00  0.00    +0.000 C 
ATOM     11  C   UNL     1      42.515   5.104  11.662  0.00  0.00    +0.000 C 
ATOM     12  N   UNL     1      43.299   5.564  10.513  0.00  0.00    +0.000 NA
ATOM     13  H   UNL     1      43.079   6.516  10.239  0.00  0.00    +0.000 HD
ENDBRANCH   6   8
ENDBRANCH   1   2
BRANCH   1  14
ATOM     14  O   UNL     1      48.258   5.647  14.480  0.00  0.00    +0.000 OA
BRANCH  14  18
ATOM     15  C   UNL     1      48.062   5.155  18.560  0.00  0.00    +0.000 A 
ATOM     16  C   UNL     1      47.406   4.250  17.725  0.00  0.00    +0.000 A 
ATOM     17  C   UNL     1      47.475   4.429  16.342  0.00  0.00    +0.000 A 
ATOM     18  C   UNL     1      48.195   5.508  15.850  0.00  0.00    +0.000 A 
ATOM     19  N   UNL     1      48.825   6.407  16.637  0.00  0.00    +0.000 NA
ATOM     20  C   UNL     1      48.736   6.218  17.974  0.00  0.00    +0.000 A 
BRANCH  15  22
ATOM     21  N   UNL     1      48.611   3.924  20.581  0.00  0.00    +0.000 N 
ATOM     22  C   UNL     1      48.070   5.051  20.035  0.00  0.00    +0.000 C 
ATOM     23  O   UNL     1      47.651   5.961  20.738  0.00  0.00    +0.000 OA
ATOM     24  H   UNL     1      48.724   3.931  21.588  0.00  0.00    +0.000 HD
ATOM     25  H   UNL     1      49.195   3.291  20.053  0.00  0.00    +0.000 HD
ENDBRANCH  15  22
ENDBRANCH  14  18
ENDBRANCH   1  14
TORSDOF 5
ENDMDL
MODEL 5
REMARK VINA RESULT:    -6.179      3.174      4.907
REMARK INTER + INTRA:          -8.848
REMARK INTER:                  -8.099
REMARK INTRA:                  -0.749
REMARK UNBOUND:                -0.863
REMARK  Name = 
REMARK  5 active torsions:
REMARK  status: ('A' for Active; 'I' for Inactive)
REMARK    1  A    between atoms: C_2  and  C_4
REMARK    2  A    between atoms: C_7  and  O_8
REMARK    3  A    between atoms: O_8  and  C_9
REMARK    4  A    between atoms: C_9  and  C_10
REMARK    5  A    between atoms: C_14  and  C_15
REMARK                            x       y       z     vdW  Elec       q    Type
REMARK                         _______ _______ _______ _____ _____    ______ ____
ROOT
ATOM      1  C   UNL     1      47.065   6.531  13.610  0.00  0.00    +0.000 C 
ENDROOT
BRANCH   1   2
ATOM      2  C   UNL     1      48.123   6.356  14.671  0.00  0.00    +0.000 A 
ATOM      3  C   UNL     1      49.205   7.237  14.759  0.00  0.00    +0.000 A 
ATOM      4  C   UNL     1      50.160   7.072  15.758  0.00  0.00    +0.000 A 
ATOM      5  C   UNL     1      50.017   6.052  16.700  0.00  0.00    +0.000 A 
ATOM      6  C   UNL     1      48.907   5.189  16.675  0.00  0.00    +0.000 A 
ATOM      7  C   UNL     1      47.992   5.332  15.622  0.00  0.00    +0.000 A 
BRANCH   6   8
ATOM      8  C   UNL     1      48.719   4.203  17.823  0.00  0.00    +0.000 C 
ATOM      9  C   UNL     1      47.934   2.967  17.375  0.00  0.00    +0.000 C 
ATOM     10  C   UNL     1      48.994   2.119  16.688  0.00  0.00    +0.000 C 
ATOM     11  C   UNL     1      50.277   2.457  17.434  0.00  0.00    +0.000 C 
ATOM     12  N   UNL     1      49.938   3.560  18.335  0.00  0.00    +0.000 NA
ATOM     13  H   UNL     1      50.699   4.220  18.458  0.00  0.00    +0.000 HD
ENDBRANCH   6   8
ENDBRANCH   1   2
BRANCH   1  14
ATOM     14  O   UNL     1      46.034   5.568  13.843  0.00  0.00    +0.000 OA
BRANCH  14  18
ATOM     15  C   UNL     1      44.957   3.674  10.353  0.00  0.00    +0.000 A 
ATOM     16  C   UNL     1      45.349   5.013  10.318  0.00  0.00    +0.000 A 
ATOM     17  C   UNL     1      45.707   5.648  11.509  0.00  0.00    +0.000 A 
ATOM     18  C   UNL     1      45.657   4.918  12.688  0.00  0.00    +0.000 A 
ATOM     19  N   UNL     1      45.266   3.627  12.752  0.00  0.00    +0.000 NA
ATOM     20  C   UNL     1      44.915   3.036  11.586  0.00  0.00    +0.000 A 
BRANCH  15  22
ATOM     21  N   UNL     1      44.282   3.604   8.021  0.00  0.00    +0.000 N 
ATOM     22  C   UNL     1      44.575   2.901   9.153  0.00  0.00    +0.000 C 
ATOM     23  O   UNL     1      44.568   1.678   9.161  0.00  0.00    +0.000 OA
ATOM     24  H   UNL     1      44.150   3.054   7.181  0.00  0.00    +0.000 HD
ATOM     25  H   UNL     1      44.533   4.576   7.906  0.00  0.00    +0.000 HD
ENDBRANCH  15  22
ENDBRANCH  14  18
ENDBRANCH   1  14
TORSDOF 5
ENDMDL
MODEL 6
REMARK VINA RESULT:    -6.060      3.102      6.798
REMARK INTER + INTRA:          -8.694
REMARK INTER:                  -7.865
REMARK INTRA:                  -0.829
REMARK UNBOUND:                -0.863
REMARK  Name = 
REMARK  5 active torsions:
REMARK  status: ('A' for Active; 'I' for Inactive)
REMARK    1  A    between atoms: C_2  and  C_4
REMARK    2  A    between atoms: C_7  and  O_8
REMARK    3  A    between atoms: O_8  and  C_9
REMARK    4  A    between atoms: C_9  and  C_10
REMARK    5  A    between atoms: C_14  and  C_15
REMARK                            x       y       z     vdW  Elec       q    Type
REMARK                         _______ _______ _______ _____ _____    ______ ____
ROOT
ATOM      1  C   UNL     1      45.835   7.511  12.210  0.00  0.00    +0.000 C 
ENDROOT
BRANCH   1   2
ATOM      2  C   UNL     1      45.706   6.009  12.141  0.00  0.00    +0.000 A 
ATOM      3  C   UNL     1      46.094   5.204  13.216  0.00  0.00    +0.000 A 
ATOM      4  C   UNL     1      45.949   3.822  13.142  0.00  0.00    +0.000 A 
ATOM      5  C   UNL     1      45.375   3.239  12.011  0.00  0.00    +0.000 A 
ATOM      6  C   UNL     1      44.918   4.028  10.940  0.00  0.00    +0.000 A 
ATOM      7  C   UNL     1      45.135   5.412  11.008  0.00  0.00    +0.000 A 
BRANCH   6   8
ATOM      8  C   UNL     1      44.152   3.352   9.807  0.00  0.00    +0.000 C 
ATOM      9  C   UNL     1      44.476   3.991   8.454  0.00  0.00    +0.000 C 
ATOM     10  C   UNL     1      45.801   3.346   8.078  0.00  0.00    +0.000 C 
ATOM     11  C   UNL     1      45.728   1.960   8.706  0.00  0.00    +0.000 C 
ATOM     12  N   UNL     1      44.512   1.954   9.522  0.00  0.00    +0.000 NA
ATOM     13  H   UNL     1      44.604   1.400  10.367  0.00  0.00    +0.000 HD
ENDBRANCH   6   8
ENDBRANCH   1   2
BRANCH   1  14
ATOM     14  O   UNL     1      46.847   7.829  13.169  0.00  0.00    +0.000 OA
BRANCH  14  18
ATOM     15  C   UNL     1      50.295   9.176  11.373  0.00  0.00    +0.000 A 
ATOM     16  C   UNL     1      50.239   7.872  11.864  0.00  0.00    +0.000 A 
ATOM     17  C   UNL     1      49.066   7.426  12.477  0.00  0.00    +0.000 A 
ATOM     18  C   UNL     1      47.996   8.305  12.574  0.00  0.00    +0.000 A 
ATOM     19  N   UNL     1      48.030   9.577  12.122  0.00  0.00    +0.000 NA
ATOM     20  C   UNL     1      49.181   9.989  11.541  0.00  0.00    +0.000 A 
BRANCH  15  22
ATOM     21  N   UNL     1      52.494   8.890  10.383  0.00  0.00    +0.000 N 
ATOM     22  C   UNL     1      51.478   9.745  10.693  0.00  0.00    +0.000 C 
ATOM     23  O   UNL     1      51.522  10.927  10.378  0.00  0.00    +0.000 OA
ATOM     24  H   UNL     1      53.233   9.273   9.805  0.00  0.00    +0.000 HD
ATOM     25  H   UNL     1      52.380   7.886  10.385  0.00  0.00    +0.000 HD
ENDBRANCH  15  22
ENDBRANCH  14  18
ENDBRANCH   1  14
TORSDOF 5
ENDMDL
MODEL 7
REMARK VINA RESULT:    -5.996      4.154      6.329
REMARK INTER + INTRA:          -8.611
REMARK INTER:                  -7.743
REMARK INTRA:                  -0.869
REMARK UNBOUND:                -0.863
REMARK  Name = 
REMARK  5 active torsions:
REMARK  status: ('A' for Active; 'I' for Inactive)
REMARK    1  A    between atoms: C_2  and  C_4
REMARK    2  A    between atoms: C_7  and  O_8
REMARK    3  A    between atoms: O_8  and  C_9
REMARK    4  A    between atoms: C_9  and  C_10
REMARK    5  A    between atoms: C_14  and  C_15
REMARK                            x       y       z     vdW  Elec       q    Type
REMARK                         _______ _______ _______ _____ _____    ______ ____
ROOT
ATOM      1  C   UNL     1      49.143   7.656  13.876  0.00  0.00    +0.000 C 
ENDROOT
BRANCH   1   2
ATOM      2  C   UNL     1      49.149   7.473  15.374  0.00  0.00    +0.000 A 
ATOM      3  C   UNL     1      48.579   8.431  16.217  0.00  0.00    +0.000 A 
ATOM      4  C   UNL     1      48.576   8.235  17.595  0.00  0.00    +0.000 A 
ATOM      5  C   UNL     1      49.105   7.062  18.136  0.00  0.00    +0.000 A 
ATOM      6  C   UNL     1      49.629   6.053  17.308  0.00  0.00    +0.000 A 
ATOM      7  C   UNL     1      49.682   6.300  15.929  0.00  0.00    +0.000 A 
BRANCH   6   8
ATOM      8  C   UNL     1      50.041   4.727  17.941  0.00  0.00    +0.000 C 
ATOM      9  C   UNL     1      49.019   4.264  18.984  0.00  0.00    +0.000 C 
ATOM     10  C   UNL     1      47.925   3.635  18.135  0.00  0.00    +0.000 C 
ATOM     11  C   UNL     1      48.669   3.077  16.929  0.00  0.00    +0.000 C 
ATOM     12  N   UNL     1      50.048   3.556  17.052  0.00  0.00    +0.000 NA
ATOM     13  H   UNL     1      50.480   3.755  16.156  0.00  0.00    +0.000 HD
ENDBRANCH   6   8
ENDBRANCH   1   2
BRANCH   1  14
ATOM     14  O   UNL     1      49.013   6.369  13.269  0.00  0.00    +0.000 OA
BRANCH  14  18
ATOM     15  C   UNL     1      45.092   5.133  13.108  0.00  0.00    +0.000 A 
ATOM     16  C   UNL     1      45.430   6.413  12.668  0.00  0.00    +0.000 A 
ATOM     17  C   UNL     1      46.763   6.824  12.731  0.00  0.00    +0.000 A 
ATOM     18  C   UNL     1      47.705   5.938  13.236  0.00  0.00    +0.000 A 
ATOM     19  N   UNL     1      47.402   4.701  13.683  0.00  0.00    +0.000 NA
ATOM     20  C   UNL     1      46.102   4.328  13.620  0.00  0.00    +0.000 A 
BRANCH  15  22
ATOM     21  N   UNL     1      42.693   5.483  12.975  0.00  0.00    +0.000 N 
ATOM     22  C   UNL     1      43.719   4.589  13.070  0.00  0.00    +0.000 C 
ATOM     23  O   UNL     1      43.512   3.383  13.075  0.00  0.00    +0.000 OA
ATOM     24  H   UNL     1      41.774   5.087  12.821  0.00  0.00    +0.000 HD
ATOM     25  H   UNL     1      42.835   6.446  12.704  0.00  0.00    +0.000 HD
ENDBRANCH  15  22
ENDBRANCH  14  18
ENDBRANCH   1  14
TORSDOF 5
ENDMDL
MODEL 8
REMARK VINA RESULT:    -5.992      2.970      4.976
REMARK INTER + INTRA:          -8.606
REMARK INTER:                  -7.733
REMARK INTRA:                  -0.873
REMARK UNBOUND:                -0.863
REMARK  Name = 
REMARK  5 active torsions:
REMARK  status: ('A' for Active; 'I' for Inactive)
REMARK    1  A    between atoms: C_2  and  C_4
REMARK    2  A    between atoms: C_7  and  O_8
REMARK    3  A    between atoms: O_8  and  C_9
REMARK    4  A    between atoms: C_9  and  C_10
REMARK    5  A    between atoms: C_14  and  C_15
REMARK                            x       y       z     vdW  Elec       q    Type
REMARK                         _______ _______ _______ _____ _____    ______ ____
ROOT
ATOM      1  C   UNL     1      47.888   7.451  12.821  0.00  0.00    +0.000 C 
ENDROOT
BRANCH   1   2
ATOM      2  C   UNL     1      48.264   7.598  14.274  0.00  0.00    +0.000 A 
ATOM      3  C   UNL     1      48.120   8.821  14.934  0.00  0.00    +0.000 A 
ATOM      4  C   UNL     1      48.453   8.932  16.281  0.00  0.00    +0.000 A 
ATOM      5  C   UNL     1      48.892   7.811  16.987  0.00  0.00    +0.000 A 
ATOM      6  C   UNL     1      48.988   6.553  16.366  0.00  0.00    +0.000 A 
ATOM      7  C   UNL     1      48.710   6.478  14.993  0.00  0.00    +0.000 A 
BRANCH   6   8
ATOM      8  C   UNL     1      49.313   5.335  17.225  0.00  0.00    +0.000 C 
ATOM      9  C   UNL     1      48.480   5.318  18.509  0.00  0.00    +0.000 C 
ATOM     10  C   UNL     1      47.144   4.758  18.044  0.00  0.00    +0.000 C 
ATOM     11  C   UNL     1      47.515   3.821  16.903  0.00  0.00    +0.000 C 
ATOM     12  N   UNL     1      48.945   4.026  16.664  0.00  0.00    +0.000 NA
ATOM     13  H   UNL     1      49.200   3.941  15.686  0.00  0.00    +0.000 HD
ENDBRANCH   6   8
ENDBRANCH   1   2
BRANCH   1  14
ATOM     14  O   UNL     1      46.467   7.565  12.713  0.00  0.00    +0.000 OA
BRANCH  14  18
ATOM     15  C   UNL     1      44.688   4.055  11.512  0.00  0.00    +0.000 A 
ATOM     16  C   UNL     1      45.025   4.232  12.854  0.00  0.00    +0.000 A 
ATOM     17  C   UNL     1      45.633   5.425  13.250  0.00  0.00    +0.000 A 
ATOM     18  C   UNL     1      45.881   6.392  12.286  0.00  0.00    +0.000 A 
ATOM     19  N   UNL     1      45.580   6.239  10.979  0.00  0.00    +0.000 NA
ATOM     20  C   UNL     1      45.000   5.070  10.618  0.00  0.00    +0.000 A 
BRANCH  15  22
ATOM     21  N   UNL     1      44.615   2.217   9.926  0.00  0.00    +0.000 N 
ATOM     22  C   UNL     1      44.027   2.841  10.987  0.00  0.00    +0.000 C 
ATOM     23  O   UNL     1      43.019   2.389  11.513  0.00  0.00    +0.000 OA
ATOM     24  H   UNL     1      44.220   1.321   9.667  0.00  0.00    +0.000 HD
ATOM     25  H   UNL     1      45.567   2.403   9.645  0.00  0.00    +0.000 HD
ENDBRANCH  15  22
ENDBRANCH  14  18
ENDBRANCH   1  14
TORSDOF 5
ENDMDL
MODEL 9
REMARK VINA RESULT:    -5.988      4.720      8.171
REMARK INTER + INTRA:          -8.601
REMARK INTER:                  -8.291
REMARK INTRA:                  -0.310
REMARK UNBOUND:                -0.863
REMARK  Name = 
REMARK  5 active torsions:
REMARK  status: ('A' for Active; 'I' for Inactive)
REMARK    1  A    between atoms: C_2  and  C_4
REMARK    2  A    between atoms: C_7  and  O_8
REMARK    3  A    between atoms: O_8  and  C_9
REMARK    4  A    between atoms: C_9  and  C_10
REMARK    5  A    between atoms: C_14  and  C_15
REMARK                            x       y       z     vdW  Elec       q    Type
REMARK                         _______ _______ _______ _____ _____    ______ ____
ROOT
ATOM      1  C   UNL     1      47.136   4.013  15.073  0.00  0.00    +0.000 C 
ENDROOT
BRANCH   1   2
ATOM      2  C   UNL     1      46.897   4.969  13.930  0.00  0.00    +0.000 A 
ATOM      3  C   UNL     1      47.668   6.126  13.789  0.00  0.00    +0.000 A 
ATOM      4  C   UNL     1      47.447   6.986  12.717  0.00  0.00    +0.000 A 
ATOM      5  C   UNL     1      46.483   6.672  11.757  0.00  0.00    +0.000 A 
ATOM      6  C   UNL     1      45.735   5.484  11.839  0.00  0.00    +0.000 A 
ATOM      7  C   UNL     1      45.929   4.666  12.961  0.00  0.00    +0.000 A 
BRANCH   6   8
ATOM      8  C   UNL     1      44.817   5.115  10.678  0.00  0.00    +0.000 C 
ATOM      9  C   UNL     1      44.337   3.665  10.784  0.00  0.00    +0.000 C 
ATOM     10  C   UNL     1      43.197   3.755  11.788  0.00  0.00    +0.000 C 
ATOM     11  C   UNL     1      42.616   5.144  11.563  0.00  0.00    +0.000 C 
ATOM     12  N   UNL     1      43.522   5.810  10.625  0.00  0.00    +0.000 NA
ATOM     13  H   UNL     1      43.613   6.806  10.800  0.00  0.00    +0.000 HD
ENDBRANCH   6   8
ENDBRANCH   1   2
BRANCH   1  14
ATOM     14  O   UNL     1      47.516   4.774  16.221  0.00  0.00    +0.000 OA
BRANCH  14  18
ATOM     15  C   UNL     1      51.174   3.684  17.756  0.00  0.00    +0.000 A 
ATOM     16  C   UNL     1      50.876   5.036  17.580  0.00  0.00    +0.000 A 
ATOM     17  C   UNL     1      49.633   5.395  17.054  0.00  0.00    +0.000 A 
ATOM     18  C   UNL     1      48.740   4.386  16.722  0.00  0.00    +0.000 A 
ATOM     19  N   UNL     1      49.009   3.071  16.867  0.00  0.00    +0.000 NA
ATOM     20  C   UNL     1      50.224   2.748  17.370  0.00  0.00    +0.000 A 
BRANCH  15  22
ATOM     21  N   UNL     1      52.586   1.845  18.479  0.00  0.00    +0.000 N 
ATOM     22  C   UNL     1      52.449   3.193  18.320  0.00  0.00    +0.000 C 
ATOM     23  O   UNL     1      53.363   3.962  18.587  0.00  0.00    +0.000 OA
ATOM     24  H   UNL     1      53.510   1.523  18.743  0.00  0.00    +0.000 HD
ATOM     25  H   UNL     1      51.973   1.180  18.030  0.00  0.00    +0.000 HD
ENDBRANCH  15  22
ENDBRANCH  14  18
ENDBRANCH   1  14
TORSDOF 5
ENDMDL
