MODEL 1
REMARK VINA RESULT:    -7.765      0.000      0.000
REMARK INTER + INTRA:         -11.303
REMARK INTER:                 -10.489
REMARK INTRA:                  -0.814
REMARK UNBOUND:                -0.814
REMARK  Name = 
REMARK  7 active torsions:
REMARK  status: ('A' for Active; 'I' for Inactive)
REMARK    1  A    between atoms: C_1  and  O_2
REMARK    2  A    between atoms: O_2  and  C_3
REMARK    3  A    between atoms: C_7  and  C_8
REMARK    4  A    between atoms: N_14  and  C_15
REMARK    5  A    between atoms: C_15  and  C_16
REMARK    6  A    between atoms: C_19  and  O_20
REMARK    7  A    between atoms: O_20  and  C_21
REMARK                            x       y       z     vdW  Elec       q    Type
REMARK                         _______ _______ _______ _____ _____    ______ ____
ROOT
ATOM      1  C   UNL     1      43.674   3.712  10.846  0.00  0.00    +0.000 A 
ATOM      2  N   UNL     1      44.013   2.533  10.369  0.00  0.00    +0.000 NA
ATOM      3  C   UNL     1      44.923   2.807   9.383  0.00  0.00    +0.000 A 
ATOM      4  C   UNL     1      45.639   1.944   8.543  0.00  0.00    +0.000 A 
ATOM      5  C   UNL     1      46.519   2.530   7.627  0.00  0.00    +0.000 A 
ATOM      6  C   UNL     1      46.635   3.924   7.605  0.00  0.00    +0.000 A 
ATOM      7  N   UNL     1      45.953   4.804   8.392  0.00  0.00    +0.000 NA
ATOM      8  C   UNL     1      45.123   4.175   9.249  0.00  0.00    +0.000 A 
ATOM      9  N   UNL     1      44.292   4.737  10.181  0.00  0.00    +0.000 N 
ENDROOT
BRANCH   5  10
ATOM     10  C   UNL     1      47.335   1.745   6.669  0.00  0.00    +0.000 C 
ATOM     11  N   UNL     1      48.331   2.371   5.981  0.00  0.00    +0.000 N 
ATOM     12  O   UNL     1      47.127   0.545   6.497  0.00  0.00    +0.000 OA
ATOM     13  H   UNL     1      48.576   3.347   6.054  0.00  0.00    +0.000 HD
ATOM     14  H   UNL     1      48.872   1.802   5.340  0.00  0.00    +0.000 HD
ENDBRANCH   5  10
BRANCH   1  16
ATOM     15  C   UNL     1      43.467   3.811  13.153  0.00  0.00    +0.000 C 
ATOM     16  O   UNL     1      42.854   3.924  11.874  0.00  0.00    +0.000 OA
ENDBRANCH   1  16
BRANCH   9  17
ATOM     17  C   UNL     1      44.103   6.154  10.416  0.00  0.00    +0.000 C 
BRANCH  17  18
ATOM     18  C   UNL     1      45.089   6.664  11.436  0.00  0.00    +0.000 A 
ATOM     19  C   UNL     1      44.981   7.971  11.932  0.00  0.00    +0.000 A 
ATOM     20  C   UNL     1      45.950   8.492  12.797  0.00  0.00    +0.000 A 
ATOM     21  C   UNL     1      47.020   7.702  13.207  0.00  0.00    +0.000 A 
ATOM     22  C   UNL     1      47.133   6.400  12.709  0.00  0.00    +0.000 A 
ATOM     23  C   UNL     1      46.175   5.880  11.840  0.00  0.00    +0.000 A 
BRANCH  21  24
ATOM     24  O   UNL     1      48.034   8.071  14.034  0.00  0.00    +0.000 OA
BRANCH  24  25
ATOM     25  C   UNL     1      49.291   8.446  13.495  0.00  0.00    +0.000 C 
ATOM     26  F   UNL     1      49.235   8.880  12.219  0.00  0.00    +0.000 F 
ATOM     27  F   UNL     1      49.783   9.460  14.246  0.00  0.00    +0.000 F 
ATOM     28  F   UNL     1      50.151   7.410  13.574  0.00  0.00    +0.000 F 
ENDBRANCH  24  25
ENDBRANCH  21  24
ENDBRANCH  17  18
ENDBRANCH   9  17
TORSDOF 6
ENDMDL
MODEL 2
REMARK VINA RESULT:    -7.632      4.011      7.265
REMARK INTER + INTRA:         -11.122
REMARK INTER:                 -10.715
REMARK INTRA:                  -0.407
REMARK UNBOUND:                -0.814
REMARK  Name = 
REMARK  7 active torsions:
REMARK  status: ('A' for Active; 'I' for Inactive)
REMARK    1  A    between atoms: C_1  and  O_2
REMARK    2  A    between atoms: O_2  and  C_3
REMARK    3  A    between atoms: C_7  and  C_8
REMARK    4  A    between atoms: N_14  and  C_15
REMARK    5  A    between atoms: C_15  and  C_16
REMARK    6  A    between atoms: C_19  and  O_20
REMARK    7  A    between atoms: O_20  and  C_21
REMARK                            x       y       z     vdW  Elec       q    Type
REMARK                         _______ _______ _______ _____ _____    ______ ____
ROOT
ATOM      1  C   UNL     1      46.230   4.926  13.207  0.00  0.00    +0.000 A 
ATOM      2  N   UNL     1      46.915   6.009  13.509  0.00  0.00    +0.000 NA
ATOM      3  C   UNL     1      46.273   7.021  12.846  0.00  0.00    +0.000 A 
ATOM      4  C   UNL     1      46.541   8.395  12.810  0.00  0.00    +0.000 A 
ATOM      5  C   UNL     1      45.687   9.192  12.040  0.00  0.00    +0.000 A 
ATOM      6  C   UNL     1      44.627   8.579  11.363  0.00  0.00    +0.000 A 
ATOM      7  N   UNL     1      44.333   7.248  11.357  0.00  0.00    +0.000 NA
ATOM      8  C   UNL     1      45.193   6.539  12.116  0.00  0.00    +0.000 A 
ATOM      9  N   UNL     1      45.200   5.189  12.342  0.00  0.00    +0.000 N 
ENDROOT
BRANCH   5  10
ATOM     10  C   UNL     1      45.852  10.659  11.900  0.00  0.00    +0.000 C 
ATOM     11  N   UNL     1      44.759  11.464  12.029  0.00  0.00    +0.000 N 
ATOM     12  O   UNL     1      46.958  11.152  11.677  0.00  0.00    +0.000 OA
ATOM     13  H   UNL     1      43.817  11.153  12.212  0.00  0.00    +0.000 HD
ATOM     14  H   UNL     1      44.912  12.461  11.933  0.00  0.00    +0.000 HD
ENDBRANCH   5  10
BRANCH   1  16
ATOM     15  C   UNL     1      47.217   3.677  14.893  0.00  0.00    +0.000 C 
ATOM     16  O   UNL     1      46.459   3.706  13.688  0.00  0.00    +0.000 OA
ENDBRANCH   1  16
BRANCH   9  17
ATOM     17  C   UNL     1      44.288   4.220  11.770  0.00  0.00    +0.000 C 
BRANCH  17  18
ATOM     18  C   UNL     1      44.686   3.880  10.356  0.00  0.00    +0.000 A 
ATOM     19  C   UNL     1      44.529   2.574   9.872  0.00  0.00    +0.000 A 
ATOM     20  C   UNL     1      44.992   2.220   8.600  0.00  0.00    +0.000 A 
ATOM     21  C   UNL     1      45.585   3.176   7.780  0.00  0.00    +0.000 A 
ATOM     22  C   UNL     1      45.747   4.478   8.262  0.00  0.00    +0.000 A 
ATOM     23  C   UNL     1      45.295   4.833   9.533  0.00  0.00    +0.000 A 
BRANCH  21  24
ATOM     24  O   UNL     1      46.084   2.979   6.530  0.00  0.00    +0.000 OA
BRANCH  24  25
ATOM     25  C   UNL     1      47.226   2.160   6.341  0.00  0.00    +0.000 C 
ATOM     26  F   UNL     1      46.973   0.837   6.419  0.00  0.00    +0.000 F 
ATOM     27  F   UNL     1      47.719   2.407   5.104  0.00  0.00    +0.000 F 
ATOM     28  F   UNL     1      48.176   2.484   7.243  0.00  0.00    +0.000 F 
ENDBRANCH  24  25
ENDBRANCH  21  24
ENDBRANCH  17  18
ENDBRANCH   9  17
TORSDOF 6
ENDMDL
MODEL 3
REMARK VINA RESULT:    -7.359      4.158      7.270
REMARK INTER + INTRA:         -10.754
REMARK INTER:                 -10.157
REMARK INTRA:                  -0.597
REMARK UNBOUND:                -0.814
REMARK  Name = 
REMARK  7 active torsions:
REMARK  status: ('A' for Active; 'I' for Inactive)
REMARK    1  A    between atoms: C_1  and  O_2
REMARK    2  A    between atoms: O_2  and  C_3
REMARK    3  A    between atoms: C_7  and  C_8
REMARK    4  A    between atoms: N_14  and  C_15
REMARK    5  A    between atoms: C_15  and  C_16
REMARK    6  A    between atoms: C_19  and  O_20
REMARK    7  A    between atoms: O_20  and  C_21
REMARK                            x       y       z     vdW  Elec       q    Type
REMARK                         _______ _______ _______ _____ _____    ______ ____
ROOT
ATOM      1  C   UNL     1      47.016   4.939  13.906  0.00  0.00    +0.000 A 
ATOM      2  N   UNL     1      48.037   5.749  14.092  0.00  0.00    +0.000 NA
ATOM      3  C   UNL     1      47.622   6.951  13.583  0.00  0.00    +0.000 A 
ATOM      4  C   UNL     1      48.279   8.186  13.523  0.00  0.00    +0.000 A 
ATOM      5  C   UNL     1      47.582   9.253  12.945  0.00  0.00    +0.000 A 
ATOM      6  C   UNL     1      46.285   9.028  12.471  0.00  0.00    +0.000 A 
ATOM      7  N   UNL     1      45.609   7.844  12.496  0.00  0.00    +0.000 NA
ATOM      8  C   UNL     1      46.336   6.861  13.064  0.00  0.00    +0.000 A 
ATOM      9  N   UNL     1      45.977   5.554  13.258  0.00  0.00    +0.000 N 
ENDROOT
BRANCH   5  10
ATOM     10  C   UNL     1      48.152  10.614  12.803  0.00  0.00    +0.000 C 
ATOM     11  N   UNL     1      48.312  11.384  13.917  0.00  0.00    +0.000 N 
ATOM     12  O   UNL     1      48.486  11.048  11.701  0.00  0.00    +0.000 OA
ATOM     13  H   UNL     1      48.070  11.116  14.859  0.00  0.00    +0.000 HD
ATOM     14  H   UNL     1      48.711  12.306  13.783  0.00  0.00    +0.000 HD
ENDBRANCH   5  10
BRANCH   1  16
ATOM     15  C   UNL     1      47.482   3.437  15.610  0.00  0.00    +0.000 C 
ATOM     16  O   UNL     1      46.950   3.672  14.311  0.00  0.00    +0.000 OA
ENDBRANCH   1  16
BRANCH   9  17
ATOM     17  C   UNL     1      44.730   4.939  12.853  0.00  0.00    +0.000 C 
BRANCH  17  18
ATOM     18  C   UNL     1      44.808   4.462  11.425  0.00  0.00    +0.000 A 
ATOM     19  C   UNL     1      44.450   3.147  11.097  0.00  0.00    +0.000 A 
ATOM     20  C   UNL     1      44.618   2.661   9.796  0.00  0.00    +0.000 A 
ATOM     21  C   UNL     1      45.113   3.493   8.796  0.00  0.00    +0.000 A 
ATOM     22  C   UNL     1      45.476   4.803   9.121  0.00  0.00    +0.000 A 
ATOM     23  C   UNL     1      45.319   5.290  10.419  0.00  0.00    +0.000 A 
BRANCH  21  24
ATOM     24  O   UNL     1      45.334   3.161   7.495  0.00  0.00    +0.000 OA
BRANCH  24  25
ATOM     25  C   UNL     1      46.602   2.671   7.093  0.00  0.00    +0.000 C 
ATOM     26  F   UNL     1      47.616   3.539   7.289  0.00  0.00    +0.000 F 
ATOM     27  F   UNL     1      46.872   1.561   7.820  0.00  0.00    +0.000 F 
ATOM     28  F   UNL     1      46.565   2.320   5.791  0.00  0.00    +0.000 F 
ENDBRANCH  24  25
ENDBRANCH  21  24
ENDBRANCH  17  18
ENDBRANCH   9  17
TORSDOF 6
ENDMDL
MODEL 4
REMARK VINA RESULT:    -7.276      4.202      6.979
REMARK INTER + INTRA:         -10.641
REMARK INTER:                  -9.750
REMARK INTRA:                  -0.891
REMARK UNBOUND:                -0.814
REMARK  Name = 
REMARK  7 active torsions:
REMARK  status: ('A' for Active; 'I' for Inactive)
REMARK    1  A    between atoms: C_1  and  O_2
REMARK    2  A    between atoms: O_2  and  C_3
REMARK    3  A    between atoms: C_7  and  C_8
REMARK    4  A    between atoms: N_14  and  C_15
REMARK    5  A    between atoms: C_15  and  C_16
REMARK    6  A    between atoms: C_19  and  O_20
REMARK    7  A    between atoms: O_20  and  C_21
REMARK                            x       y       z     vdW  Elec       q    Type
REMARK                         _______ _______ _______ _____ _____    ______ ____
ROOT
ATOM      1  C   UNL     1      45.060   6.850  12.063  0.00  0.00    +0.000 A 
ATOM      2  N   UNL     1      45.899   7.086  13.049  0.00  0.00    +0.000 NA
ATOM      3  C   UNL     1      46.261   5.844  13.500  0.00  0.00    +0.000 A 
ATOM      4  C   UNL     1      47.144   5.472  14.521  0.00  0.00    +0.000 A 
ATOM      5  C   UNL     1      47.320   4.102  14.744  0.00  0.00    +0.000 A 
ATOM      6  C   UNL     1      46.615   3.196  13.944  0.00  0.00    +0.000 A 
ATOM      7  N   UNL     1      45.737   3.509  12.949  0.00  0.00    +0.000 NA
ATOM      8  C   UNL     1      45.614   4.842  12.787  0.00  0.00    +0.000 A 
ATOM      9  N   UNL     1      44.829   5.511  11.887  0.00  0.00    +0.000 N 
ENDROOT
BRANCH   5  10
ATOM     10  C   UNL     1      48.214   3.559  15.795  0.00  0.00    +0.000 C 
ATOM     11  N   UNL     1      48.517   4.337  16.873  0.00  0.00    +0.000 N 
ATOM     12  O   UNL     1      48.675   2.421  15.707  0.00  0.00    +0.000 OA
ATOM     13  H   UNL     1      48.189   5.277  17.032  0.00  0.00    +0.000 HD
ATOM     14  H   UNL     1      49.126   3.930  17.573  0.00  0.00    +0.000 HD
ENDBRANCH   5  10
BRANCH   1  16
ATOM     15  C   UNL     1      44.778   9.117  11.667  0.00  0.00    +0.000 C 
ATOM     16  O   UNL     1      44.501   7.775  11.284  0.00  0.00    +0.000 OA
ENDBRANCH   1  16
BRANCH   9  17
ATOM     17  C   UNL     1      43.922   4.912  10.930  0.00  0.00    +0.000 C 
BRANCH  17  18
ATOM     18  C   UNL     1      44.682   4.320   9.770  0.00  0.00    +0.000 A 
ATOM     19  C   UNL     1      45.620   5.093   9.071  0.00  0.00    +0.000 A 
ATOM     20  C   UNL     1      46.254   4.592   7.928  0.00  0.00    +0.000 A 
ATOM     21  C   UNL     1      45.985   3.298   7.489  0.00  0.00    +0.000 A 
ATOM     22  C   UNL     1      45.047   2.528   8.182  0.00  0.00    +0.000 A 
ATOM     23  C   UNL     1      44.406   3.026   9.316  0.00  0.00    +0.000 A 
BRANCH  21  24
ATOM     24  O   UNL     1      46.517   2.682   6.400  0.00  0.00    +0.000 OA
BRANCH  24  25
ATOM     25  C   UNL     1      47.784   2.050   6.489  0.00  0.00    +0.000 C 
ATOM     26  F   UNL     1      47.793   0.941   7.258  0.00  0.00    +0.000 F 
ATOM     27  F   UNL     1      48.157   1.682   5.241  0.00  0.00    +0.000 F 
ATOM     28  F   UNL     1      48.698   2.923   6.960  0.00  0.00    +0.000 F 
ENDBRANCH  24  25
ENDBRANCH  21  24
ENDBRANCH  17  18
ENDBRANCH   9  17
TORSDOF 6
ENDMDL
MODEL 5
REMARK VINA RESULT:    -7.073      3.975      7.091
REMARK INTER + INTRA:         -10.368
REMARK INTER:                  -9.965
REMARK INTRA:                  -0.403
REMARK UNBOUND:                -0.814
REMARK  Name = 
REMARK  7 active torsions:
REMARK  status: ('A' for Active; 'I' for Inactive)
REMARK    1  A    between atoms: C_1  and  O_2
REMARK    2  A    between atoms: O_2  and  C_3
REMARK    3  A    between atoms: C_7  and  C_8
REMARK    4  A    between atoms: N_14  and  C_15
REMARK    5  A    between atoms: C_15  and  C_16
REMARK    6  A    between atoms: C_19  and  O_20
REMARK    7  A    between atoms: O_20  and  C_21
REMARK                            x       y       z     vdW  Elec       q    Type
REMARK                         _______ _______ _______ _____ _____    ______ ____
ROOT
ATOM      1  C   UNL     1      44.450   8.018  11.498  0.00  0.00    +0.000 A 
ATOM      2  N   UNL     1      45.404   8.700  12.095  0.00  0.00    +0.000 NA
ATOM      3  C   UNL     1      46.188   7.750  12.693  0.00  0.00    +0.000 A 
ATOM      4  C   UNL     1      47.358   7.884  13.451  0.00  0.00    +0.000 A 
ATOM      5  C   UNL     1      47.949   6.708  13.926  0.00  0.00    +0.000 A 
ATOM      6  C   UNL     1      47.348   5.483  13.617  0.00  0.00    +0.000 A 
ATOM      7  N   UNL     1      46.206   5.302  12.895  0.00  0.00    +0.000 NA
ATOM      8  C   UNL     1      45.688   6.472  12.470  0.00  0.00    +0.000 A 
ATOM      9  N   UNL     1      44.558   6.671  11.723  0.00  0.00    +0.000 N 
ENDROOT
BRANCH   5  10
ATOM     10  C   UNL     1      49.183   6.695  14.748  0.00  0.00    +0.000 C 
ATOM     11  N   UNL     1      50.271   7.397  14.322  0.00  0.00    +0.000 N 
ATOM     12  O   UNL     1      49.231   6.067  15.805  0.00  0.00    +0.000 OA
ATOM     13  H   UNL     1      50.326   7.940  13.473  0.00  0.00    +0.000 HD
ATOM     14  H   UNL     1      51.093   7.370  14.912  0.00  0.00    +0.000 HD
ENDBRANCH   5  10
BRANCH   1  16
ATOM     15  C   UNL     1      43.419   9.957  10.754  0.00  0.00    +0.000 C 
ATOM     16  O   UNL     1      43.490   8.535  10.733  0.00  0.00    +0.000 OA
ENDBRANCH   1  16
BRANCH   9  17
ATOM     17  C   UNL     1      43.648   5.644  11.258  0.00  0.00    +0.000 C 
BRANCH  17  18
ATOM     18  C   UNL     1      44.361   4.658  10.369  0.00  0.00    +0.000 A 
ATOM     19  C   UNL     1      45.219   5.110   9.356  0.00  0.00    +0.000 A 
ATOM     20  C   UNL     1      45.803   4.211   8.457  0.00  0.00    +0.000 A 
ATOM     21  C   UNL     1      45.565   2.845   8.579  0.00  0.00    +0.000 A 
ATOM     22  C   UNL     1      44.706   2.392   9.584  0.00  0.00    +0.000 A 
ATOM     23  C   UNL     1      44.115   3.285  10.478  0.00  0.00    +0.000 A 
BRANCH  21  24
ATOM     24  O   UNL     1      46.056   1.859   7.781  0.00  0.00    +0.000 OA
BRANCH  24  25
ATOM     25  C   UNL     1      46.954   2.176   6.730  0.00  0.00    +0.000 C 
ATOM     26  F   UNL     1      48.067   2.824   7.134  0.00  0.00    +0.000 F 
ATOM     27  F   UNL     1      47.347   1.018   6.150  0.00  0.00    +0.000 F 
ATOM     28  F   UNL     1      46.323   2.919   5.797  0.00  0.00    +0.000 F 
ENDBRANCH  24  25
ENDBRANCH  21  24
ENDBRANCH  17  18
ENDBRANCH   9  17
TORSDOF 6
ENDMDL
MODEL 6
REMARK VINA RESULT:    -7.032      4.011      7.142
REMARK INTER + INTRA:         -10.312
REMARK INTER:                  -9.705
REMARK INTRA:                  -0.607
REMARK UNBOUND:                -0.814
REMARK  Name = 
REMARK  7 active torsions:
REMARK  status: ('A' for Active; 'I' for Inactive)
REMARK    1  A    between atoms: C_1  and  O_2
REMARK    2  A    between atoms: O_2  and  C_3
REMARK    3  A    between atoms: C_7  and  C_8
REMARK    4  A    between atoms: N_14  and  C_15
REMARK    5  A    between atoms: C_15  and  C_16
REMARK    6  A    between atoms: C_19  and  O_20
REMARK    7  A    between atoms: O_20  and  C_21
REMARK                            x       y       z     vdW  Elec       q    Type
REMARK                         _______ _______ _______ _____ _____    ______ ____
ROOT
ATOM      1  C   UNL     1      45.537   3.856  12.735  0.00  0.00    +0.000 A 
ATOM      2  N   UNL     1      46.516   3.942  13.611  0.00  0.00    +0.000 NA
ATOM      3  C   UNL     1      46.922   5.248  13.549  0.00  0.00    +0.000 A 
ATOM      4  C   UNL     1      47.916   5.924  14.268  0.00  0.00    +0.000 A 
ATOM      5  C   UNL     1      48.094   7.283  13.988  0.00  0.00    +0.000 A 
ATOM      6  C   UNL     1      47.278   7.881  13.022  0.00  0.00    +0.000 A 
ATOM      7  N   UNL     1      46.308   7.264  12.289  0.00  0.00    +0.000 NA
ATOM      8  C   UNL     1      46.189   5.960  12.607  0.00  0.00    +0.000 A 
ATOM      9  N   UNL     1      45.324   5.040  12.079  0.00  0.00    +0.000 N 
ENDROOT
BRANCH   5  10
ATOM     10  C   UNL     1      49.112   8.124  14.662  0.00  0.00    +0.000 C 
ATOM     11  N   UNL     1      49.138   8.168  16.024  0.00  0.00    +0.000 N 
ATOM     12  O   UNL     1      49.930   8.771  14.009  0.00  0.00    +0.000 OA
ATOM     13  H   UNL     1      48.512   7.675  16.642  0.00  0.00    +0.000 HD
ATOM     14  H   UNL     1      49.852   8.749  16.449  0.00  0.00    +0.000 HD
ENDBRANCH   5  10
BRANCH   1  16
ATOM     15  C   UNL     1      43.412   2.930  12.801  0.00  0.00    +0.000 C 
ATOM     16  O   UNL     1      44.796   2.774  12.505  0.00  0.00    +0.000 OA
ENDBRANCH   1  16
BRANCH   9  17
ATOM     17  C   UNL     1      44.363   5.277  11.021  0.00  0.00    +0.000 C 
BRANCH  17  18
ATOM     18  C   UNL     1      44.838   4.677   9.722  0.00  0.00    +0.000 A 
ATOM     19  C   UNL     1      44.273   3.486   9.244  0.00  0.00    +0.000 A 
ATOM     20  C   UNL     1      44.777   2.863   8.097  0.00  0.00    +0.000 A 
ATOM     21  C   UNL     1      45.828   3.440   7.391  0.00  0.00    +0.000 A 
ATOM     22  C   UNL     1      46.397   4.625   7.868  0.00  0.00    +0.000 A 
ATOM     23  C   UNL     1      45.904   5.246   9.016  0.00  0.00    +0.000 A 
BRANCH  21  24
ATOM     24  O   UNL     1      46.422   2.951   6.269  0.00  0.00    +0.000 OA
BRANCH  24  25
ATOM     25  C   UNL     1      47.406   1.935   6.372  0.00  0.00    +0.000 C 
ATOM     26  F   UNL     1      48.169   2.018   7.481  0.00  0.00    +0.000 F 
ATOM     27  F   UNL     1      46.772   0.739   6.403  0.00  0.00    +0.000 F 
ATOM     28  F   UNL     1      48.202   1.958   5.283  0.00  0.00    +0.000 F 
ENDBRANCH  24  25
ENDBRANCH  21  24
ENDBRANCH  17  18
ENDBRANCH   9  17
TORSDOF 6
ENDMDL
MODEL 7
REMARK VINA RESULT:    -6.244      4.323      7.157
REMARK INTER + INTRA:          -9.248
REMARK INTER:                  -8.308
REMARK INTRA:                  -0.940
REMARK UNBOUND:                -0.814
REMARK  Name = 
REMARK  7 active torsions:
REMARK  status: ('A' for Active; 'I' for Inactive)
REMARK    1  A    between atoms: C_1  and  O_2
REMARK    2  A    between atoms: O_2  and  C_3
REMARK    3  A    between atoms: C_7  and  C_8
REMARK    4  A    between atoms: N_14  and  C_15
REMARK    5  A    between atoms: C_15  and  C_16
REMARK    6  A    between atoms: C_19  and  O_20
REMARK    7  A    between atoms: O_20  and  C_21
REMARK                            x       y       z     vdW  Elec       q    Type
REMARK                         _______ _______ _______ _____ _____    ______ ____
ROOT
ATOM      1  C   UNL     1      47.461   6.121  13.746  0.00  0.00    +0.000 A 
ATOM      2  N   UNL     1      48.767   6.276  13.805  0.00  0.00    +0.000 NA
ATOM      3  C   UNL     1      49.011   7.431  13.111  0.00  0.00    +0.000 A 
ATOM      4  C   UNL     1      50.215   8.100  12.858  0.00  0.00    +0.000 A 
ATOM      5  C   UNL     1      50.143   9.284  12.116  0.00  0.00    +0.000 A 
ATOM      6  C   UNL     1      48.889   9.726  11.678  0.00  0.00    +0.000 A 
ATOM      7  N   UNL     1      47.694   9.105  11.888  0.00  0.00    +0.000 NA
ATOM      8  C   UNL     1      47.835   7.973  12.607  0.00  0.00    +0.000 A 
ATOM      9  N   UNL     1      46.857   7.102  13.005  0.00  0.00    +0.000 N 
ENDROOT
BRANCH   5  10
ATOM     10  C   UNL     1      51.333  10.095  11.763  0.00  0.00    +0.000 C 
ATOM     11  N   UNL     1      51.233  11.020  10.766  0.00  0.00    +0.000 N 
ATOM     12  O   UNL     1      52.399   9.946  12.360  0.00  0.00    +0.000 OA
ATOM     13  H   UNL     1      50.405  11.213  10.223  0.00  0.00    +0.000 HD
ATOM     14  H   UNL     1      52.064  11.559  10.557  0.00  0.00    +0.000 HD
ENDBRANCH   5  10
BRANCH   1  16
ATOM     15  C   UNL     1      46.883   3.876  13.733  0.00  0.00    +0.000 C 
ATOM     16  O   UNL     1      46.768   5.155  14.346  0.00  0.00    +0.000 OA
ENDBRANCH   1  16
BRANCH   9  17
ATOM     17  C   UNL     1      45.445   7.201  12.697  0.00  0.00    +0.000 C 
BRANCH  17  18
ATOM     18  C   UNL     1      45.058   6.210  11.629  0.00  0.00    +0.000 A 
ATOM     19  C   UNL     1      43.937   5.387  11.800  0.00  0.00    +0.000 A 
ATOM     20  C   UNL     1      43.629   4.390  10.868  0.00  0.00    +0.000 A 
ATOM     21  C   UNL     1      44.418   4.226   9.732  0.00  0.00    +0.000 A 
ATOM     22  C   UNL     1      45.540   5.042   9.562  0.00  0.00    +0.000 A 
ATOM     23  C   UNL     1      45.856   6.031  10.493  0.00  0.00    +0.000 A 
BRANCH  21  24
ATOM     24  O   UNL     1      44.246   3.303   8.748  0.00  0.00    +0.000 OA
BRANCH  24  25
ATOM     25  C   UNL     1      45.051   2.137   8.719  0.00  0.00    +0.000 C 
ATOM     26  F   UNL     1      45.908   2.084   7.679  0.00  0.00    +0.000 F 
ATOM     27  F   UNL     1      45.788   2.109   9.855  0.00  0.00    +0.000 F 
ATOM     28  F   UNL     1      44.266   1.039   8.703  0.00  0.00    +0.000 F 
ENDBRANCH  24  25
ENDBRANCH  21  24
ENDBRANCH  17  18
ENDBRANCH   9  17
TORSDOF 6
ENDMDL
MODEL 8
REMARK VINA RESULT:    -6.176      5.409      8.749
REMARK INTER + INTRA:          -9.156
REMARK INTER:                  -8.123
REMARK INTRA:                  -1.033
REMARK UNBOUND:                -0.814
REMARK  Name = 
REMARK  7 active torsions:
REMARK  status: ('A' for Active; 'I' for Inactive)
REMARK    1  A    between atoms: C_1  and  O_2
REMARK    2  A    between atoms: O_2  and  C_3
REMARK    3  A    between atoms: C_7  and  C_8
REMARK    4  A    between atoms: N_14  and  C_15
REMARK    5  A    between atoms: C_15  and  C_16
REMARK    6  A    between atoms: C_19  and  O_20
REMARK    7  A    between atoms: O_20  and  C_21
REMARK                            x       y       z     vdW  Elec       q    Type
REMARK                         _______ _______ _______ _____ _____    ______ ____
ROOT
ATOM      1  C   UNL     1      48.758   8.649  15.683  0.00  0.00    +0.000 A 
ATOM      2  N   UNL     1      48.659   8.643  16.996  0.00  0.00    +0.000 NA
ATOM      3  C   UNL     1      48.707   7.318  17.340  0.00  0.00    +0.000 A 
ATOM      4  C   UNL     1      48.665   6.706  18.599  0.00  0.00    +0.000 A 
ATOM      5  C   UNL     1      48.748   5.310  18.633  0.00  0.00    +0.000 A 
ATOM      6  C   UNL     1      48.869   4.616  17.424  0.00  0.00    +0.000 A 
ATOM      7  N   UNL     1      48.902   5.164  16.176  0.00  0.00    +0.000 NA
ATOM      8  C   UNL     1      48.817   6.509  16.215  0.00  0.00    +0.000 A 
ATOM      9  N   UNL     1      48.822   7.384  15.162  0.00  0.00    +0.000 N 
ENDROOT
BRANCH   5  10
ATOM     10  C   UNL     1      48.707   4.524  19.889  0.00  0.00    +0.000 C 
ATOM     11  N   UNL     1      48.426   3.191  19.828  0.00  0.00    +0.000 N 
ATOM     12  O   UNL     1      48.929   5.057  20.976  0.00  0.00    +0.000 OA
ATOM     13  H   UNL     1      48.232   2.668  18.988  0.00  0.00    +0.000 HD
ATOM     14  H   UNL     1      48.413   2.686  20.706  0.00  0.00    +0.000 HD
ENDBRANCH   5  10
BRANCH   1  16
ATOM     15  C   UNL     1      49.323  10.895  15.575  0.00  0.00    +0.000 C 
ATOM     16  O   UNL     1      48.821   9.737  14.917  0.00  0.00    +0.000 OA
ENDBRANCH   1  16
BRANCH   9  17
ATOM     17  C   UNL     1      48.883   7.033  13.758  0.00  0.00    +0.000 C 
BRANCH  17  18
ATOM     18  C   UNL     1      47.505   6.745  13.218  0.00  0.00    +0.000 A 
ATOM     19  C   UNL     1      47.090   5.422  13.009  0.00  0.00    +0.000 A 
ATOM     20  C   UNL     1      45.856   5.144  12.409  0.00  0.00    +0.000 A 
ATOM     21  C   UNL     1      45.006   6.183  12.043  0.00  0.00    +0.000 A 
ATOM     22  C   UNL     1      45.420   7.503  12.245  0.00  0.00    +0.000 A 
ATOM     23  C   UNL     1      46.652   7.785  12.835  0.00  0.00    +0.000 A 
BRANCH  21  24
ATOM     24  O   UNL     1      43.787   6.067  11.451  0.00  0.00    +0.000 OA
BRANCH  24  25
ATOM     25  C   UNL     1      42.759   5.322  12.081  0.00  0.00    +0.000 C 
ATOM     26  F   UNL     1      42.842   5.298  13.428  0.00  0.00    +0.000 F 
ATOM     27  F   UNL     1      41.572   5.889  11.758  0.00  0.00    +0.000 F 
ATOM     28  F   UNL     1      42.759   4.056  11.615  0.00  0.00    +0.000 F 
ENDBRANCH  24  25
ENDBRANCH  21  24
ENDBRANCH  17  18
ENDBRANCH   9  17
TORSDOF 6
ENDMDL
MODEL 9
REMARK VINA RESULT:    -5.994      3.138      4.984
REMARK INTER + INTRA:          -8.911
REMARK INTER:                  -7.888
REMARK INTRA:                  -1.023
REMARK UNBOUND:                -0.814
REMARK  Name = 
REMARK  7 active torsions:
REMARK  status: ('A' for Active; 'I' for Inactive)
REMARK    1  A    between atoms: C_1  and  O_2
REMARK    2  A    between atoms: O_2  and  C_3
REMARK    3  A    between atoms: C_7  and  C_8
REMARK    4  A    between atoms: N_14  and  C_15
REMARK    5  A    between atoms: C_15  and  C_16
REMARK    6  A    between atoms: C_19  and  O_20
REMARK    7  A    between atoms: O_20  and  C_21
REMARK                            x       y       z     vdW  Elec       q    Type
REMARK                         _______ _______ _______ _____ _____    ______ ____
ROOT
ATOM      1  C   UNL     1      47.568   5.143  14.728  0.00  0.00    +0.000 A 
ATOM      2  N   UNL     1      47.013   4.005  14.367  0.00  0.00    +0.000 NA
ATOM      3  C   UNL     1      46.320   4.305  13.225  0.00  0.00    +0.000 A 
ATOM      4  C   UNL     1      45.553   3.485  12.388  0.00  0.00    +0.000 A 
ATOM      5  C   UNL     1      44.967   4.086  11.268  0.00  0.00    +0.000 A 
ATOM      6  C   UNL     1      45.181   5.452  11.051  0.00  0.00    +0.000 A 
ATOM      7  N   UNL     1      45.908   6.292  11.842  0.00  0.00    +0.000 NA
ATOM      8  C   UNL     1      46.443   5.650  12.900  0.00  0.00    +0.000 A 
ATOM      9  N   UNL     1      47.226   6.174  13.893  0.00  0.00    +0.000 N 
ENDROOT
BRANCH   5  10
ATOM     10  C   UNL     1      44.122   3.348  10.299  0.00  0.00    +0.000 C 
ATOM     11  N   UNL     1      44.104   3.749   8.997  0.00  0.00    +0.000 N 
ATOM     12  O   UNL     1      43.448   2.382  10.656  0.00  0.00    +0.000 OA
ATOM     13  H   UNL     1      44.620   4.525   8.612  0.00  0.00    +0.000 HD
ATOM     14  H   UNL     1      43.520   3.217   8.362  0.00  0.00    +0.000 HD
ENDBRANCH   5  10
BRANCH   1  16
ATOM     15  C   UNL     1      47.947   4.720  16.976  0.00  0.00    +0.000 C 
ATOM     16  O   UNL     1      48.394   5.309  15.760  0.00  0.00    +0.000 OA
ENDBRANCH   1  16
BRANCH   9  17
ATOM     17  C   UNL     1      47.619   7.561  14.033  0.00  0.00    +0.000 C 
BRANCH  17  18
ATOM     18  C   UNL     1      48.886   7.839  13.264  0.00  0.00    +0.000 A 
ATOM     19  C   UNL     1      50.128   7.805  13.912  0.00  0.00    +0.000 A 
ATOM     20  C   UNL     1      51.300   8.165  13.237  0.00  0.00    +0.000 A 
ATOM     21  C   UNL     1      51.250   8.530  11.895  0.00  0.00    +0.000 A 
ATOM     22  C   UNL     1      50.012   8.571  11.248  0.00  0.00    +0.000 A 
ATOM     23  C   UNL     1      48.840   8.221  11.919  0.00  0.00    +0.000 A 
BRANCH  21  24
ATOM     24  O   UNL     1      52.298   8.907  11.114  0.00  0.00    +0.000 OA
BRANCH  24  25
ATOM     25  C   UNL     1      52.894   7.975  10.227  0.00  0.00    +0.000 C 
ATOM     26  F   UNL     1      52.393   6.726  10.322  0.00  0.00    +0.000 F 
ATOM     27  F   UNL     1      52.677   8.405   8.961  0.00  0.00    +0.000 F 
ATOM     28  F   UNL     1      54.227   7.935  10.432  0.00  0.00    +0.000 F 
ENDBRANCH  24  25
ENDBRANCH  21  24
ENDBRANCH  17  18
ENDBRANCH   9  17
TORSDOF 6
ENDMDL
