MODEL 1
REMARK VINA RESULT:    -8.503      0.000      0.000
REMARK INTER + INTRA:         -12.482
REMARK INTER:                 -11.485
REMARK INTRA:                  -0.997
REMARK UNBOUND:                -0.997
REMARK  Name = 
REMARK  7 active torsions:
REMARK  status: ('A' for Active; 'I' for Inactive)
REMARK    1  A    between atoms: C_1  and  C_2
REMARK    2  A    between atoms: C_5  and  C_6
REMARK    3  A    between atoms: C_10  and  N_11
REMARK    4  A    between atoms: N_11  and  C_12
REMARK    5  A    between atoms: C_12  and  C_13
REMARK    6  A    between atoms: C_16  and  O_17
REMARK    7  A    between atoms: O_17  and  C_18
REMARK                            x       y       z     vdW  Elec       q    Type
REMARK                         _______ _______ _______ _____ _____    ______ ____
ROOT
ATOM      1  N   UNL     1      44.855   5.860  12.308  0.00  0.00    +0.000 N 
ATOM      2  H   UNL     1      44.968   6.616  11.629  0.00  0.00    +0.000 HD
ENDROOT
BRANCH   1   9
ATOM      3  C   UNL     1      46.958   8.125  12.103  0.00  0.00    +0.000 C 
ATOM      4  C   UNL     1      46.985   6.942  13.007  0.00  0.00    +0.000 A 
ATOM      5  C   UNL     1      48.126   6.729  13.773  0.00  0.00    +0.000 A 
ATOM      6  N   UNL     1      48.306   5.698  14.610  0.00  0.00    +0.000 NA
ATOM      7  C   UNL     1      47.272   4.838  14.661  0.00  0.00    +0.000 A 
ATOM      8  N   UNL     1      46.135   4.923  13.941  0.00  0.00    +0.000 NA
ATOM      9  C   UNL     1      45.996   5.973  13.111  0.00  0.00    +0.000 A 
BRANCH   7  10
ATOM     10  C   UNL     1      47.424   3.668  15.603  0.00  0.00    +0.000 C 
ATOM     11  N   UNL     1      46.857   3.833  16.850  0.00  0.00    +0.000 N 
ATOM     12  O   UNL     1      48.002   2.628  15.321  0.00  0.00    +0.000 OA
ATOM     13  H   UNL     1      46.383   4.697  17.085  0.00  0.00    +0.000 HD
ATOM     14  H   UNL     1      46.937   3.087  17.525  0.00  0.00    +0.000 HD
ENDBRANCH   7  10
ENDBRANCH   1   9
BRANCH   1  15
ATOM     15  C   UNL     1      44.245   4.656  11.712  0.00  0.00    +0.000 C 
ATOM     16  C   UNL     1      42.707   4.707  11.746  0.00  0.00    +0.000 C 
ATOM     17  C   UNL     1      43.423   3.629  12.472  0.00  0.00    +0.000 C 
BRANCH  15  18
ATOM     18  C   UNL     1      44.865   4.198  10.385  0.00  0.00    +0.000 A 
ATOM     19  C   UNL     1      44.742   2.877   9.926  0.00  0.00    +0.000 A 
ATOM     20  C   UNL     1      45.197   2.486   8.654  0.00  0.00    +0.000 A 
ATOM     21  C   UNL     1      45.763   3.424   7.796  0.00  0.00    +0.000 A 
ATOM     22  C   UNL     1      45.965   4.723   8.262  0.00  0.00    +0.000 A 
ATOM     23  C   UNL     1      45.530   5.100   9.536  0.00  0.00    +0.000 A 
BRANCH  21  24
ATOM     24  O   UNL     1      46.187   3.208   6.523  0.00  0.00    +0.000 OA
BRANCH  24  25
ATOM     25  C   UNL     1      47.249   2.297   6.279  0.00  0.00    +0.000 C 
ATOM     26  F   UNL     1      47.831   2.438   5.070  0.00  0.00    +0.000 F 
ATOM     27  F   UNL     1      48.205   2.497   7.217  0.00  0.00    +0.000 F 
ATOM     28  F   UNL     1      46.796   1.032   6.405  0.00  0.00    +0.000 F 
ENDBRANCH  24  25
ENDBRANCH  21  24
ENDBRANCH  15  18
ENDBRANCH   1  15
TORSDOF 6
ENDMDL
MODEL 2
REMARK VINA RESULT:    -8.131      1.302      1.884
REMARK INTER + INTRA:         -11.979
REMARK INTER:                 -11.733
REMARK INTRA:                  -0.246
REMARK UNBOUND:                -0.997
REMARK  Name = 
REMARK  7 active torsions:
REMARK  status: ('A' for Active; 'I' for Inactive)
REMARK    1  A    between atoms: C_1  and  C_2
REMARK    2  A    between atoms: C_5  and  C_6
REMARK    3  A    between atoms: C_10  and  N_11
REMARK    4  A    between atoms: N_11  and  C_12
REMARK    5  A    between atoms: C_12  and  C_13
REMARK    6  A    between atoms: C_16  and  O_17
REMARK    7  A    between atoms: O_17  and  C_18
REMARK                            x       y       z     vdW  Elec       q    Type
REMARK                         _______ _______ _______ _____ _____    ______ ____
ROOT
ATOM      1  N   UNL     1      46.033   3.713  13.118  0.00  0.00    +0.000 N 
ATOM      2  H   UNL     1      45.988   2.802  13.580  0.00  0.00    +0.000 HD
ENDROOT
BRANCH   1   9
ATOM      3  C   UNL     1      47.450   6.382  12.439  0.00  0.00    +0.000 C 
ATOM      4  C   UNL     1      47.432   5.673  13.748  0.00  0.00    +0.000 A 
ATOM      5  C   UNL     1      48.230   6.169  14.773  0.00  0.00    +0.000 A 
ATOM      6  N   UNL     1      48.337   5.626  15.994  0.00  0.00    +0.000 NA
ATOM      7  C   UNL     1      47.597   4.516  16.172  0.00  0.00    +0.000 A 
ATOM      8  N   UNL     1      46.816   3.927  15.245  0.00  0.00    +0.000 NA
ATOM      9  C   UNL     1      46.740   4.504  14.032  0.00  0.00    +0.000 A 
BRANCH   7  10
ATOM     10  C   UNL     1      47.674   3.878  17.539  0.00  0.00    +0.000 C 
ATOM     11  N   UNL     1      46.864   2.777  17.727  0.00  0.00    +0.000 N 
ATOM     12  O   UNL     1      48.393   4.276  18.444  0.00  0.00    +0.000 OA
ATOM     13  H   UNL     1      46.265   2.451  16.978  0.00  0.00    +0.000 HD
ATOM     14  H   UNL     1      46.867   2.317  18.625  0.00  0.00    +0.000 HD
ENDBRANCH   7  10
ENDBRANCH   1   9
BRANCH   1  15
ATOM     15  C   UNL     1      44.801   4.024  12.367  0.00  0.00    +0.000 C 
ATOM     16  C   UNL     1      44.111   5.299  12.886  0.00  0.00    +0.000 C 
ATOM     17  C   UNL     1      43.397   3.999  12.947  0.00  0.00    +0.000 C 
BRANCH  15  18
ATOM     18  C   UNL     1      44.920   3.908  10.841  0.00  0.00    +0.000 A 
ATOM     19  C   UNL     1      45.411   4.962  10.054  0.00  0.00    +0.000 A 
ATOM     20  C   UNL     1      45.641   4.814   8.674  0.00  0.00    +0.000 A 
ATOM     21  C   UNL     1      45.411   3.590   8.055  0.00  0.00    +0.000 A 
ATOM     22  C   UNL     1      44.850   2.555   8.802  0.00  0.00    +0.000 A 
ATOM     23  C   UNL     1      44.603   2.715  10.169  0.00  0.00    +0.000 A 
BRANCH  21  24
ATOM     24  O   UNL     1      45.646   3.282   6.751  0.00  0.00    +0.000 OA
BRANCH  24  25
ATOM     25  C   UNL     1      46.855   2.633   6.388  0.00  0.00    +0.000 C 
ATOM     26  F   UNL     1      46.787   1.286   6.409  0.00  0.00    +0.000 F 
ATOM     27  F   UNL     1      47.176   3.004   5.126  0.00  0.00    +0.000 F 
ATOM     28  F   UNL     1      47.847   3.037   7.209  0.00  0.00    +0.000 F 
ENDBRANCH  24  25
ENDBRANCH  21  24
ENDBRANCH  15  18
ENDBRANCH   1  15
TORSDOF 6
ENDMDL
MODEL 3
REMARK VINA RESULT:    -7.468      2.473      3.715
REMARK INTER + INTRA:         -11.084
REMARK INTER:                 -10.629
REMARK INTRA:                  -0.455
REMARK UNBOUND:                -0.997
REMARK  Name = 
REMARK  7 active torsions:
REMARK  status: ('A' for Active; 'I' for Inactive)
REMARK    1  A    between atoms: C_1  and  C_2
REMARK    2  A    between atoms: C_5  and  C_6
REMARK    3  A    between atoms: C_10  and  N_11
REMARK    4  A    between atoms: N_11  and  C_12
REMARK    5  A    between atoms: C_12  and  C_13
REMARK    6  A    between atoms: C_16  and  O_17
REMARK    7  A    between atoms: O_17  and  C_18
REMARK                            x       y       z     vdW  Elec       q    Type
REMARK                         _______ _______ _______ _____ _____    ______ ____
ROOT
ATOM      1  N   UNL     1      45.304   5.489  12.747  0.00  0.00    +0.000 N 
ATOM      2  H   UNL     1      44.981   5.644  13.705  0.00  0.00    +0.000 HD
ENDROOT
BRANCH   1   9
ATOM      3  C   UNL     1      48.296   6.282  12.860  0.00  0.00    +0.000 C 
ATOM      4  C   UNL     1      47.145   7.141  12.467  0.00  0.00    +0.000 A 
ATOM      5  C   UNL     1      47.384   8.492  12.236  0.00  0.00    +0.000 A 
ATOM      6  N   UNL     1      46.447   9.390  11.902  0.00  0.00    +0.000 NA
ATOM      7  C   UNL     1      45.203   8.884  11.806  0.00  0.00    +0.000 A 
ATOM      8  N   UNL     1      44.849   7.605  12.039  0.00  0.00    +0.000 NA
ATOM      9  C   UNL     1      45.821   6.736  12.376  0.00  0.00    +0.000 A 
BRANCH   7  10
ATOM     10  C   UNL     1      44.117   9.857  11.416  0.00  0.00    +0.000 C 
ATOM     11  N   UNL     1      43.467   9.578  10.232  0.00  0.00    +0.000 N 
ATOM     12  O   UNL     1      43.803  10.838  12.075  0.00  0.00    +0.000 OA
ATOM     13  H   UNL     1      43.733   8.769   9.682  0.00  0.00    +0.000 HD
ATOM     14  H   UNL     1      42.740  10.201   9.915  0.00  0.00    +0.000 HD
ENDBRANCH   7  10
ENDBRANCH   1   9
BRANCH   1  15
ATOM     15  C   UNL     1      44.418   4.580  11.995  0.00  0.00    +0.000 C 
ATOM     16  C   UNL     1      42.948   5.035  12.037  0.00  0.00    +0.000 C 
ATOM     17  C   UNL     1      43.328   3.720  12.610  0.00  0.00    +0.000 C 
BRANCH  15  18
ATOM     18  C   UNL     1      44.941   4.152  10.617  0.00  0.00    +0.000 A 
ATOM     19  C   UNL     1      44.826   2.829  10.158  0.00  0.00    +0.000 A 
ATOM     20  C   UNL     1      45.186   2.462   8.850  0.00  0.00    +0.000 A 
ATOM     21  C   UNL     1      45.645   3.424   7.956  0.00  0.00    +0.000 A 
ATOM     22  C   UNL     1      45.841   4.726   8.414  0.00  0.00    +0.000 A 
ATOM     23  C   UNL     1      45.501   5.081   9.723  0.00  0.00    +0.000 A 
BRANCH  21  24
ATOM     24  O   UNL     1      45.969   3.230   6.649  0.00  0.00    +0.000 OA
BRANCH  24  25
ATOM     25  C   UNL     1      47.139   2.497   6.315  0.00  0.00    +0.000 C 
ATOM     26  F   UNL     1      48.188   2.731   7.131  0.00  0.00    +0.000 F 
ATOM     27  F   UNL     1      46.851   1.177   6.392  0.00  0.00    +0.000 F 
ATOM     28  F   UNL     1      47.498   2.776   5.045  0.00  0.00    +0.000 F 
ENDBRANCH  24  25
ENDBRANCH  21  24
ENDBRANCH  15  18
ENDBRANCH   1  15
TORSDOF 6
ENDMDL
MODEL 4
REMARK VINA RESULT:    -7.344      1.611      2.348
REMARK INTER + INTRA:         -10.916
REMARK INTER:                 -10.600
REMARK INTRA:                  -0.316
REMARK UNBOUND:                -0.997
REMARK  Name = 
REMARK  7 active torsions:
REMARK  status: ('A' for Active; 'I' for Inactive)
REMARK    1  A    between atoms: C_1  and  C_2
REMARK    2  A    between atoms: C_5  and  C_6
REMARK    3  A    between atoms: C_10  and  N_11
REMARK    4  A    between atoms: N_11  and  C_12
REMARK    5  A    between atoms: C_12  and  C_13
REMARK    6  A    between atoms: C_16  and  O_17
REMARK    7  A    between atoms: O_17  and  C_18
REMARK                            x       y       z     vdW  Elec       q    Type
REMARK                         _______ _______ _______ _____ _____    ______ ____
ROOT
ATOM      1  N   UNL     1      44.242   6.580  11.131  0.00  0.00    +0.000 N 
ATOM      2  H   UNL     1      44.416   6.894  10.174  0.00  0.00    +0.000 HD
ENDROOT
BRANCH   1   9
ATOM      3  C   UNL     1      44.324   9.676  11.103  0.00  0.00    +0.000 C 
ATOM      4  C   UNL     1      45.212   8.752  11.862  0.00  0.00    +0.000 A 
ATOM      5  C   UNL     1      46.290   9.298  12.551  0.00  0.00    +0.000 A 
ATOM      6  N   UNL     1      47.186   8.593  13.255  0.00  0.00    +0.000 NA
ATOM      7  C   UNL     1      46.975   7.264  13.248  0.00  0.00    +0.000 A 
ATOM      8  N   UNL     1      45.989   6.623  12.591  0.00  0.00    +0.000 NA
ATOM      9  C   UNL     1      45.111   7.368  11.894  0.00  0.00    +0.000 A 
BRANCH   7  10
ATOM     10  C   UNL     1      47.952   6.431  14.042  0.00  0.00    +0.000 C 
ATOM     11  N   UNL     1      47.388   5.507  14.896  0.00  0.00    +0.000 N 
ATOM     12  O   UNL     1      49.168   6.535  13.962  0.00  0.00    +0.000 OA
ATOM     13  H   UNL     1      46.380   5.426  14.966  0.00  0.00    +0.000 HD
ATOM     14  H   UNL     1      47.993   4.930  15.461  0.00  0.00    +0.000 HD
ENDBRANCH   7  10
ENDBRANCH   1   9
BRANCH   1  15
ATOM     15  C   UNL     1      43.982   5.129  11.208  0.00  0.00    +0.000 C 
ATOM     16  C   UNL     1      42.514   4.819  11.552  0.00  0.00    +0.000 C 
ATOM     17  C   UNL     1      43.593   4.379  12.471  0.00  0.00    +0.000 C 
BRANCH  15  18
ATOM     18  C   UNL     1      44.588   4.296  10.070  0.00  0.00    +0.000 A 
ATOM     19  C   UNL     1      45.338   4.885   9.039  0.00  0.00    +0.000 A 
ATOM     20  C   UNL     1      46.000   4.114   8.068  0.00  0.00    +0.000 A 
ATOM     21  C   UNL     1      45.950   2.724   8.126  0.00  0.00    +0.000 A 
ATOM     22  C   UNL     1      45.148   2.122   9.094  0.00  0.00    +0.000 A 
ATOM     23  C   UNL     1      44.474   2.895  10.044  0.00  0.00    +0.000 A 
BRANCH  21  24
ATOM     24  O   UNL     1      46.588   1.853   7.299  0.00  0.00    +0.000 OA
BRANCH  24  25
ATOM     25  C   UNL     1      47.467   2.347   6.299  0.00  0.00    +0.000 C 
ATOM     26  F   UNL     1      48.037   1.387   5.542  0.00  0.00    +0.000 F 
ATOM     27  F   UNL     1      46.760   3.152   5.470  0.00  0.00    +0.000 F 
ATOM     28  F   UNL     1      48.437   3.087   6.876  0.00  0.00    +0.000 F 
ENDBRANCH  24  25
ENDBRANCH  21  24
ENDBRANCH  15  18
ENDBRANCH   1  15
TORSDOF 6
ENDMDL
MODEL 5
REMARK VINA RESULT:    -7.325      2.118      3.041
REMARK INTER + INTRA:         -10.891
REMARK INTER:                  -9.974
REMARK INTRA:                  -0.917
REMARK UNBOUND:                -0.997
REMARK  Name = 
REMARK  7 active torsions:
REMARK  status: ('A' for Active; 'I' for Inactive)
REMARK    1  A    between atoms: C_1  and  C_2
REMARK    2  A    between atoms: C_5  and  C_6
REMARK    3  A    between atoms: C_10  and  N_11
REMARK    4  A    between atoms: N_11  and  C_12
REMARK    5  A    between atoms: C_12  and  C_13
REMARK    6  A    between atoms: C_16  and  O_17
REMARK    7  A    between atoms: O_17  and  C_18
REMARK                            x       y       z     vdW  Elec       q    Type
REMARK                         _______ _______ _______ _____ _____    ______ ____
ROOT
ATOM      1  N   UNL     1      44.920   5.969  12.338  0.00  0.00    +0.000 N 
ATOM      2  H   UNL     1      44.570   6.804  11.861  0.00  0.00    +0.000 HD
ENDROOT
BRANCH   1   9
ATOM      3  C   UNL     1      46.902   4.172  13.898  0.00  0.00    +0.000 C 
ATOM      4  C   UNL     1      47.167   5.513  13.307  0.00  0.00    +0.000 A 
ATOM      5  C   UNL     1      48.393   6.114  13.568  0.00  0.00    +0.000 A 
ATOM      6  N   UNL     1      48.763   7.324  13.127  0.00  0.00    +0.000 NA
ATOM      7  C   UNL     1      47.831   7.954  12.389  0.00  0.00    +0.000 A 
ATOM      8  N   UNL     1      46.601   7.486  12.100  0.00  0.00    +0.000 NA
ATOM      9  C   UNL     1      46.268   6.268  12.565  0.00  0.00    +0.000 A 
BRANCH   7  10
ATOM     10  C   UNL     1      48.211   9.315  11.857  0.00  0.00    +0.000 C 
ATOM     11  N   UNL     1      47.188  10.239  11.803  0.00  0.00    +0.000 N 
ATOM     12  O   UNL     1      49.338   9.620  11.490  0.00  0.00    +0.000 OA
ATOM     13  H   UNL     1      46.254   9.984  12.101  0.00  0.00    +0.000 HD
ATOM     14  H   UNL     1      47.383  11.162  11.445  0.00  0.00    +0.000 HD
ENDBRANCH   7  10
ENDBRANCH   1   9
BRANCH   1  15
ATOM     15  C   UNL     1      44.309   4.729  11.820  0.00  0.00    +0.000 C 
ATOM     16  C   UNL     1      42.774   4.749  11.929  0.00  0.00    +0.000 C 
ATOM     17  C   UNL     1      43.550   3.716  12.660  0.00  0.00    +0.000 C 
BRANCH  15  18
ATOM     18  C   UNL     1      44.874   4.233  10.482  0.00  0.00    +0.000 A 
ATOM     19  C   UNL     1      44.709   2.905  10.055  0.00  0.00    +0.000 A 
ATOM     20  C   UNL     1      45.111   2.479   8.777  0.00  0.00    +0.000 A 
ATOM     21  C   UNL     1      45.665   3.388   7.881  0.00  0.00    +0.000 A 
ATOM     22  C   UNL     1      45.909   4.692   8.312  0.00  0.00    +0.000 A 
ATOM     23  C   UNL     1      45.526   5.103   9.592  0.00  0.00    +0.000 A 
BRANCH  21  24
ATOM     24  O   UNL     1      46.040   3.138   6.598  0.00  0.00    +0.000 OA
BRANCH  24  25
ATOM     25  C   UNL     1      47.176   2.325   6.343  0.00  0.00    +0.000 C 
ATOM     26  F   UNL     1      47.743   2.533   5.136  0.00  0.00    +0.000 F 
ATOM     27  F   UNL     1      48.112   2.593   7.283  0.00  0.00    +0.000 F 
ATOM     28  F   UNL     1      46.833   1.025   6.450  0.00  0.00    +0.000 F 
ENDBRANCH  24  25
ENDBRANCH  21  24
ENDBRANCH  15  18
ENDBRANCH   1  15
TORSDOF 6
ENDMDL
MODEL 6
REMARK VINA RESULT:    -7.111      2.341      3.780
REMARK INTER + INTRA:         -10.602
REMARK INTER:                  -9.751
REMARK INTRA:                  -0.851
REMARK UNBOUND:                -0.997
REMARK  Name = 
REMARK  7 active torsions:
REMARK  status: ('A' for Active; 'I' for Inactive)
REMARK    1  A    between atoms: C_1  and  C_2
REMARK    2  A    between atoms: C_5  and  C_6
REMARK    3  A    between atoms: C_10  and  N_11
REMARK    4  A    between atoms: N_11  and  C_12
REMARK    5  A    between atoms: C_12  and  C_13
REMARK    6  A    between atoms: C_16  and  O_17
REMARK    7  A    between atoms: O_17  and  C_18
REMARK                            x       y       z     vdW  Elec       q    Type
REMARK                         _______ _______ _______ _____ _____    ______ ____
ROOT
ATOM      1  N   UNL     1      48.244   6.182  13.920  0.00  0.00    +0.000 N 
ATOM      2  H   UNL     1      48.442   5.212  13.664  0.00  0.00    +0.000 HD
ENDROOT
BRANCH   1   9
ATOM      3  C   UNL     1      49.524   8.437  15.614  0.00  0.00    +0.000 C 
ATOM      4  C   UNL     1      48.969   7.143  16.099  0.00  0.00    +0.000 A 
ATOM      5  C   UNL     1      49.136   6.819  17.441  0.00  0.00    +0.000 A 
ATOM      6  N   UNL     1      48.715   5.684  18.014  0.00  0.00    +0.000 NA
ATOM      7  C   UNL     1      48.099   4.833  17.172  0.00  0.00    +0.000 A 
ATOM      8  N   UNL     1      47.911   5.024  15.851  0.00  0.00    +0.000 NA
ATOM      9  C   UNL     1      48.352   6.177  15.315  0.00  0.00    +0.000 A 
BRANCH   7  10
ATOM     10  C   UNL     1      47.593   3.547  17.779  0.00  0.00    +0.000 C 
ATOM     11  N   UNL     1      48.318   3.069  18.850  0.00  0.00    +0.000 N 
ATOM     12  O   UNL     1      46.610   2.938  17.379  0.00  0.00    +0.000 OA
ATOM     13  H   UNL     1      49.136   3.570  19.176  0.00  0.00    +0.000 HD
ATOM     14  H   UNL     1      48.032   2.206  19.287  0.00  0.00    +0.000 HD
ENDBRANCH   7  10
ENDBRANCH   1   9
BRANCH   1  15
ATOM     15  C   UNL     1      47.206   6.789  13.063  0.00  0.00    +0.000 C 
ATOM     16  C   UNL     1      47.769   7.920  12.183  0.00  0.00    +0.000 C 
ATOM     17  C   UNL     1      46.709   8.220  13.178  0.00  0.00    +0.000 C 
BRANCH  15  18
ATOM     18  C   UNL     1      46.282   5.791  12.352  0.00  0.00    +0.000 A 
ATOM     19  C   UNL     1      45.702   6.078  11.105  0.00  0.00    +0.000 A 
ATOM     20  C   UNL     1      44.960   5.119  10.393  0.00  0.00    +0.000 A 
ATOM     21  C   UNL     1      44.806   3.834  10.903  0.00  0.00    +0.000 A 
ATOM     22  C   UNL     1      45.307   3.553  12.175  0.00  0.00    +0.000 A 
ATOM     23  C   UNL     1      46.025   4.517  12.888  0.00  0.00    +0.000 A 
BRANCH  21  24
ATOM     24  O   UNL     1      44.174   2.791  10.302  0.00  0.00    +0.000 OA
BRANCH  24  25
ATOM     25  C   UNL     1      44.731   2.209   9.133  0.00  0.00    +0.000 C 
ATOM     26  F   UNL     1      44.357   0.930   8.920  0.00  0.00    +0.000 F 
ATOM     27  F   UNL     1      44.328   2.934   8.063  0.00  0.00    +0.000 F 
ATOM     28  F   UNL     1      46.078   2.269   9.198  0.00  0.00    +0.000 F 
ENDBRANCH  24  25
ENDBRANCH  21  24
ENDBRANCH  15  18
ENDBRANCH   1  15
TORSDOF 6
ENDMDL
MODEL 7
REMARK VINA RESULT:    -6.695      4.046      5.637
REMARK INTER + INTRA:         -10.040
REMARK INTER:                  -8.706
REMARK INTRA:                  -1.334
REMARK UNBOUND:                -0.997
REMARK  Name = 
REMARK  7 active torsions:
REMARK  status: ('A' for Active; 'I' for Inactive)
REMARK    1  A    between atoms: C_1  and  C_2
REMARK    2  A    between atoms: C_5  and  C_6
REMARK    3  A    between atoms: C_10  and  N_11
REMARK    4  A    between atoms: N_11  and  C_12
REMARK    5  A    between atoms: C_12  and  C_13
REMARK    6  A    between atoms: C_16  and  O_17
REMARK    7  A    between atoms: O_17  and  C_18
REMARK                            x       y       z     vdW  Elec       q    Type
REMARK                         _______ _______ _______ _____ _____    ______ ____
ROOT
ATOM      1  N   UNL     1      49.365   6.948  14.596  0.00  0.00    +0.000 N 
ATOM      2  H   UNL     1      49.783   6.075  14.266  0.00  0.00    +0.000 HD
ENDROOT
BRANCH   1   9
ATOM      3  C   UNL     1      49.175   8.825  17.053  0.00  0.00    +0.000 C 
ATOM      4  C   UNL     1      48.773   7.393  16.972  0.00  0.00    +0.000 A 
ATOM      5  C   UNL     1      48.377   6.757  18.144  0.00  0.00    +0.000 A 
ATOM      6  N   UNL     1      48.012   5.471  18.232  0.00  0.00    +0.000 NA
ATOM      7  C   UNL     1      48.062   4.799  17.067  0.00  0.00    +0.000 A 
ATOM      8  N   UNL     1      48.461   5.300  15.881  0.00  0.00    +0.000 NA
ATOM      9  C   UNL     1      48.821   6.596  15.837  0.00  0.00    +0.000 A 
BRANCH   7  10
ATOM     10  C   UNL     1      47.645   3.349  17.116  0.00  0.00    +0.000 C 
ATOM     11  N   UNL     1      48.635   2.435  16.821  0.00  0.00    +0.000 N 
ATOM     12  O   UNL     1      46.517   2.967  17.395  0.00  0.00    +0.000 OA
ATOM     13  H   UNL     1      49.567   2.753  16.583  0.00  0.00    +0.000 HD
ATOM     14  H   UNL     1      48.409   1.452  16.827  0.00  0.00    +0.000 HD
ENDBRANCH   7  10
ENDBRANCH   1   9
BRANCH   1  15
ATOM     15  C   UNL     1      48.767   7.735  13.500  0.00  0.00    +0.000 C 
ATOM     16  C   UNL     1      49.784   8.049  12.388  0.00  0.00    +0.000 C 
ATOM     17  C   UNL     1      49.151   9.160  13.141  0.00  0.00    +0.000 C 
BRANCH  15  18
ATOM     18  C   UNL     1      47.391   7.250  13.024  0.00  0.00    +0.000 A 
ATOM     19  C   UNL     1      46.301   8.126  12.894  0.00  0.00    +0.000 A 
ATOM     20  C   UNL     1      45.077   7.712  12.337  0.00  0.00    +0.000 A 
ATOM     21  C   UNL     1      44.928   6.411  11.868  0.00  0.00    +0.000 A 
ATOM     22  C   UNL     1      45.971   5.505  12.059  0.00  0.00    +0.000 A 
ATOM     23  C   UNL     1      47.177   5.916  12.633  0.00  0.00    +0.000 A 
BRANCH  21  24
ATOM     24  O   UNL     1      43.833   5.890  11.253  0.00  0.00    +0.000 OA
BRANCH  24  25
ATOM     25  C   UNL     1      42.818   5.270  12.028  0.00  0.00    +0.000 C 
ATOM     26  F   UNL     1      43.050   5.288  13.358  0.00  0.00    +0.000 F 
ATOM     27  F   UNL     1      41.654   5.926  11.810  0.00  0.00    +0.000 F 
ATOM     28  F   UNL     1      42.661   3.991  11.626  0.00  0.00    +0.000 F 
ENDBRANCH  24  25
ENDBRANCH  21  24
ENDBRANCH  15  18
ENDBRANCH   1  15
TORSDOF 6
ENDMDL
MODEL 8
REMARK VINA RESULT:    -6.651      4.456      7.541
REMARK INTER + INTRA:          -9.980
REMARK INTER:                  -9.354
REMARK INTRA:                  -0.626
REMARK UNBOUND:                -0.997
REMARK  Name = 
REMARK  7 active torsions:
REMARK  status: ('A' for Active; 'I' for Inactive)
REMARK    1  A    between atoms: C_1  and  C_2
REMARK    2  A    between atoms: C_5  and  C_6
REMARK    3  A    between atoms: C_10  and  N_11
REMARK    4  A    between atoms: N_11  and  C_12
REMARK    5  A    between atoms: C_12  and  C_13
REMARK    6  A    between atoms: C_16  and  O_17
REMARK    7  A    between atoms: O_17  and  C_18
REMARK                            x       y       z     vdW  Elec       q    Type
REMARK                         _______ _______ _______ _____ _____    ______ ____
ROOT
ATOM      1  N   UNL     1      45.549   6.766  11.625  0.00  0.00    +0.000 N 
ATOM      2  H   UNL     1      44.836   7.104  12.276  0.00  0.00    +0.000 HD
ENDROOT
BRANCH   1   9
ATOM      3  C   UNL     1      43.099   5.248  12.758  0.00  0.00    +0.000 C 
ATOM      4  C   UNL     1      43.879   4.924  11.532  0.00  0.00    +0.000 A 
ATOM      5  C   UNL     1      43.581   3.744  10.859  0.00  0.00    +0.000 A 
ATOM      6  N   UNL     1      44.212   3.308   9.759  0.00  0.00    +0.000 NA
ATOM      7  C   UNL     1      45.200   4.114   9.331  0.00  0.00    +0.000 A 
ATOM      8  N   UNL     1      45.598   5.260   9.919  0.00  0.00    +0.000 NA
ATOM      9  C   UNL     1      44.940   5.660  11.023  0.00  0.00    +0.000 A 
BRANCH   7  10
ATOM     10  C   UNL     1      45.929   3.671   8.085  0.00  0.00    +0.000 C 
ATOM     11  N   UNL     1      46.055   2.307   7.925  0.00  0.00    +0.000 N 
ATOM     12  O   UNL     1      46.389   4.435   7.249  0.00  0.00    +0.000 OA
ATOM     13  H   UNL     1      45.678   1.674   8.621  0.00  0.00    +0.000 HD
ATOM     14  H   UNL     1      46.542   1.953   7.116  0.00  0.00    +0.000 HD
ENDBRANCH   7  10
ENDBRANCH   1   9
BRANCH   1  15
ATOM     15  C   UNL     1      46.915   6.903  12.168  0.00  0.00    +0.000 C 
ATOM     16  C   UNL     1      47.385   8.369  12.195  0.00  0.00    +0.000 C 
ATOM     17  C   UNL     1      48.123   7.375  11.377  0.00  0.00    +0.000 C 
BRANCH  15  18
ATOM     18  C   UNL     1      47.196   6.093  13.441  0.00  0.00    +0.000 A 
ATOM     19  C   UNL     1      46.698   4.791  13.615  0.00  0.00    +0.000 A 
ATOM     20  C   UNL     1      47.058   4.000  14.720  0.00  0.00    +0.000 A 
ATOM     21  C   UNL     1      47.955   4.487  15.666  0.00  0.00    +0.000 A 
ATOM     22  C   UNL     1      48.400   5.804  15.553  0.00  0.00    +0.000 A 
ATOM     23  C   UNL     1      48.021   6.594  14.463  0.00  0.00    +0.000 A 
BRANCH  21  24
ATOM     24  O   UNL     1      48.442   3.817  16.745  0.00  0.00    +0.000 OA
BRANCH  24  25
ATOM     25  C   UNL     1      47.615   3.622  17.883  0.00  0.00    +0.000 C 
ATOM     26  F   UNL     1      46.769   4.644  18.133  0.00  0.00    +0.000 F 
ATOM     27  F   UNL     1      46.866   2.514  17.680  0.00  0.00    +0.000 F 
ATOM     28  F   UNL     1      48.387   3.414  18.970  0.00  0.00    +0.000 F 
ENDBRANCH  24  25
ENDBRANCH  21  24
ENDBRANCH  15  18
ENDBRANCH   1  15
TORSDOF 6
ENDMDL
MODEL 9
REMARK VINA RESULT:    -6.596      3.770      5.286
REMARK INTER + INTRA:          -9.907
REMARK INTER:                  -8.753
REMARK INTRA:                  -1.154
REMARK UNBOUND:                -0.997
REMARK  Name = 
REMARK  7 active torsions:
REMARK  status: ('A' for Active; 'I' for Inactive)
REMARK    1  A    between atoms: C_1  and  C_2
REMARK    2  A    between atoms: C_5  and  C_6
REMARK    3  A    between atoms: C_10  and  N_11
REMARK    4  A    between atoms: N_11  and  C_12
REMARK    5  A    between atoms: C_12  and  C_13
REMARK    6  A    between atoms: C_16  and  O_17
REMARK    7  A    between atoms: O_17  and  C_18
REMARK                            x       y       z     vdW  Elec       q    Type
REMARK                         _______ _______ _______ _____ _____    ______ ____
ROOT
ATOM      1  N   UNL     1      49.407   7.279  14.256  0.00  0.00    +0.000 N 
ATOM      2  H   UNL     1      50.164   6.629  14.033  0.00  0.00    +0.000 HD
ENDROOT
BRANCH   1   9
ATOM      3  C   UNL     1      48.323   9.376  16.261  0.00  0.00    +0.000 C 
ATOM      4  C   UNL     1      48.740   7.976  16.550  0.00  0.00    +0.000 A 
ATOM      5  C   UNL     1      48.778   7.564  17.878  0.00  0.00    +0.000 A 
ATOM      6  N   UNL     1      49.155   6.347  18.293  0.00  0.00    +0.000 NA
ATOM      7  C   UNL     1      49.519   5.512  17.303  0.00  0.00    +0.000 A 
ATOM      8  N   UNL     1      49.555   5.810  15.989  0.00  0.00    +0.000 NA
ATOM      9  C   UNL     1      49.170   7.044  15.615  0.00  0.00    +0.000 A 
BRANCH   7  10
ATOM     10  C   UNL     1      49.937   4.123  17.724  0.00  0.00    +0.000 C 
ATOM     11  N   UNL     1      49.652   3.788  19.031  0.00  0.00    +0.000 N 
ATOM     12  O   UNL     1      50.491   3.319  16.987  0.00  0.00    +0.000 OA
ATOM     13  H   UNL     1      49.199   4.457  19.642  0.00  0.00    +0.000 HD
ATOM     14  H   UNL     1      49.919   2.876  19.370  0.00  0.00    +0.000 HD
ENDBRANCH   7  10
ENDBRANCH   1   9
BRANCH   1  15
ATOM     15  C   UNL     1      48.442   7.419  13.148  0.00  0.00    +0.000 C 
ATOM     16  C   UNL     1      49.138   7.481  11.776  0.00  0.00    +0.000 C 
ATOM     17  C   UNL     1      48.326   8.633  12.242  0.00  0.00    +0.000 C 
BRANCH  15  18
ATOM     18  C   UNL     1      47.217   6.498  13.229  0.00  0.00    +0.000 A 
ATOM     19  C   UNL     1      45.917   6.971  12.984  0.00  0.00    +0.000 A 
ATOM     20  C   UNL     1      44.809   6.107  12.931  0.00  0.00    +0.000 A 
ATOM     21  C   UNL     1      44.984   4.737  13.095  0.00  0.00    +0.000 A 
ATOM     22  C   UNL     1      46.253   4.256  13.417  0.00  0.00    +0.000 A 
ATOM     23  C   UNL     1      47.347   5.123  13.489  0.00  0.00    +0.000 A 
BRANCH  21  24
ATOM     24  O   UNL     1      44.023   3.779  13.007  0.00  0.00    +0.000 OA
BRANCH  24  25
ATOM     25  C   UNL     1      43.526   3.394  11.734  0.00  0.00    +0.000 C 
ATOM     26  F   UNL     1      43.040   2.136  11.687  0.00  0.00    +0.000 F 
ATOM     27  F   UNL     1      42.516   4.232  11.400  0.00  0.00    +0.000 F 
ATOM     28  F   UNL     1      44.502   3.524  10.811  0.00  0.00    +0.000 F 
ENDBRANCH  24  25
ENDBRANCH  21  24
ENDBRANCH  15  18
ENDBRANCH   1  15
TORSDOF 6
ENDMDL
