MODEL 1
REMARK VINA RESULT:    -7.747      0.000      0.000
REMARK INTER + INTRA:         -11.338
REMARK INTER:                 -10.464
REMARK INTRA:                  -0.874
REMARK UNBOUND:                -0.874
REMARK  Name = 
REMARK  6 active torsions:
REMARK  status: ('A' for Active; 'I' for Inactive)
REMARK    1  A    between atoms: C_2  and  C_25
REMARK    2  A    between atoms: N_3  and  C_4
REMARK    3  A    between atoms: C_4  and  C_5
REMARK    4  A    between atoms: C_8  and  C_9
REMARK    5  A    between atoms: C_9  and  N_10
REMARK    6  A    between atoms: C_11  and  C_13
REMARK                            x       y       z     vdW  Elec       q    Type
REMARK                         _______ _______ _______ _____ _____    ______ ____
ROOT
ATOM      1  C   UNL     1      44.852   5.950  10.982  0.00  0.00    +0.000 A 
ATOM      2  C   UNL     1      46.082   5.465  11.447  0.00  0.00    +0.000 A 
ATOM      3  C   UNL     1      46.863   6.225  12.328  0.00  0.00    +0.000 A 
ATOM      4  C   UNL     1      46.420   7.476  12.778  0.00  0.00    +0.000 A 
ATOM      5  C   UNL     1      45.198   7.965  12.300  0.00  0.00    +0.000 A 
ATOM      6  C   UNL     1      44.416   7.207  11.423  0.00  0.00    +0.000 A 
ENDROOT
BRANCH   1   7
ATOM      7  C   UNL     1      44.033   5.158  10.000  0.00  0.00    +0.000 C 
BRANCH   7  10
ATOM      8  O   UNL     1      44.656   2.501  10.063  0.00  0.00    +0.000 OA
ATOM      9  C   UNL     1      45.090   3.145   9.107  0.00  0.00    +0.000 C 
ATOM     10  N   UNL     1      44.826   4.496   8.991  0.00  0.00    +0.000 N 
ATOM     11  H   UNL     1      45.168   5.008   8.188  0.00  0.00    +0.000 HD
BRANCH   9  12
ATOM     12  C   UNL     1      45.891   2.524   8.059  0.00  0.00    +0.000 A 
ATOM     13  C   UNL     1      46.291   1.197   8.020  0.00  0.00    +0.000 A 
ATOM     14  C   UNL     1      47.089   0.892   6.882  0.00  0.00    +0.000 A 
ATOM     15  C   UNL     1      47.277   1.995   6.081  0.00  0.00    +0.000 A 
ATOM     16  S   UNL     1      46.479   3.380   6.698  0.00  0.00    +0.000 S 
ENDBRANCH   9  12
ENDBRANCH   7  10
ENDBRANCH   1   7
BRANCH   4  17
ATOM     17  C   UNL     1      47.249   8.301  13.731  0.00  0.00    +0.000 C 
BRANCH  17  18
ATOM     18  N   UNL     1      47.654   7.537  14.882  0.00  0.00    +0.000 N 
ATOM     19  C   UNL     1      48.887   6.939  14.944  0.00  0.00    +0.000 C 
ATOM     20  O   UNL     1      49.717   7.063  14.049  0.00  0.00    +0.000 OA
ATOM     21  H   UNL     1      46.915   7.223  15.503  0.00  0.00    +0.000 HD
BRANCH  19  22
ATOM     22  C   UNL     1      49.188   6.184  16.169  0.00  0.00    +0.000 A 
ATOM     23  C   UNL     1      50.233   6.585  16.990  0.00  0.00    +0.000 A 
ATOM     24  S   UNL     1      50.407   5.632  18.393  0.00  0.00    +0.000 S 
ATOM     25  C   UNL     1      49.127   4.613  17.924  0.00  0.00    +0.000 A 
ATOM     26  N   UNL     1      48.765   3.549  18.691  0.00  0.00    +0.000 NA
ATOM     27  C   UNL     1      47.799   2.845  18.201  0.00  0.00    +0.000 A 
ATOM     28  N   UNL     1      47.159   3.111  17.019  0.00  0.00    +0.000 N 
ATOM     29  C   UNL     1      47.473   4.189  16.225  0.00  0.00    +0.000 A 
ATOM     30  O   UNL     1      46.855   4.418  15.192  0.00  0.00    +0.000 OA
ATOM     31  C   UNL     1      48.562   5.007  16.725  0.00  0.00    +0.000 A 
ATOM     32  H   UNL     1      46.406   2.522  16.694  0.00  0.00    +0.000 HD
ENDBRANCH  19  22
ENDBRANCH  17  18
ENDBRANCH   4  17
TORSDOF 6
ENDMDL
MODEL 2
REMARK VINA RESULT:    -7.251      4.848      9.238
REMARK INTER + INTRA:         -10.668
REMARK INTER:                  -9.937
REMARK INTRA:                  -0.731
REMARK UNBOUND:                -0.874
REMARK  Name = 
REMARK  6 active torsions:
REMARK  status: ('A' for Active; 'I' for Inactive)
REMARK    1  A    between atoms: C_2  and  C_25
REMARK    2  A    between atoms: N_3  and  C_4
REMARK    3  A    between atoms: C_4  and  C_5
REMARK    4  A    between atoms: C_8  and  C_9
REMARK    5  A    between atoms: C_9  and  N_10
REMARK    6  A    between atoms: C_11  and  C_13
REMARK                            x       y       z     vdW  Elec       q    Type
REMARK                         _______ _______ _______ _____ _____    ______ ____
ROOT
ATOM      1  C   UNL     1      51.430   3.032  17.723  0.00  0.00    +0.000 A 
ATOM      2  C   UNL     1      50.713   2.007  17.091  0.00  0.00    +0.000 A 
ATOM      3  C   UNL     1      49.334   2.126  16.876  0.00  0.00    +0.000 A 
ATOM      4  C   UNL     1      48.648   3.283  17.270  0.00  0.00    +0.000 A 
ATOM      5  C   UNL     1      49.363   4.299  17.915  0.00  0.00    +0.000 A 
ATOM      6  C   UNL     1      50.740   4.182  18.127  0.00  0.00    +0.000 A 
ENDROOT
BRANCH   1   7
ATOM      7  C   UNL     1      52.903   2.887  17.997  0.00  0.00    +0.000 C 
BRANCH   7  10
ATOM      8  O   UNL     1      54.215   1.005  19.476  0.00  0.00    +0.000 OA
ATOM      9  C   UNL     1      54.124   0.789  18.267  0.00  0.00    +0.000 C 
ATOM     10  N   UNL     1      53.477   1.685  17.439  0.00  0.00    +0.000 N 
ATOM     11  H   UNL     1      53.387   1.484  16.451  0.00  0.00    +0.000 HD
BRANCH   9  12
ATOM     12  C   UNL     1      54.681  -0.411  17.653  0.00  0.00    +0.000 A 
ATOM     13  C   UNL     1      54.937  -0.588  16.302  0.00  0.00    +0.000 A 
ATOM     14  C   UNL     1      55.457  -1.878  16.001  0.00  0.00    +0.000 A 
ATOM     15  C   UNL     1      55.585  -2.652  17.131  0.00  0.00    +0.000 A 
ATOM     16  S   UNL     1      55.094  -1.814  18.543  0.00  0.00    +0.000 S 
ENDBRANCH   9  12
ENDBRANCH   7  10
ENDBRANCH   1   7
BRANCH   4  17
ATOM     17  C   UNL     1      47.163   3.425  17.039  0.00  0.00    +0.000 C 
BRANCH  17  18
ATOM     18  N   UNL     1      46.875   4.411  16.030  0.00  0.00    +0.000 N 
ATOM     19  C   UNL     1      46.988   4.119  14.695  0.00  0.00    +0.000 C 
ATOM     20  O   UNL     1      47.294   2.999  14.296  0.00  0.00    +0.000 OA
ATOM     21  H   UNL     1      46.865   5.381  16.330  0.00  0.00    +0.000 HD
BRANCH  19  22
ATOM     22  C   UNL     1      46.669   5.205  13.757  0.00  0.00    +0.000 A 
ATOM     23  C   UNL     1      47.605   6.199  13.504  0.00  0.00    +0.000 A 
ATOM     24  S   UNL     1      47.092   7.346  12.352  0.00  0.00    +0.000 S 
ATOM     25  C   UNL     1      45.577   6.588  12.192  0.00  0.00    +0.000 A 
ATOM     26  N   UNL     1      44.627   7.093  11.360  0.00  0.00    +0.000 NA
ATOM     27  C   UNL     1      43.515   6.436  11.360  0.00  0.00    +0.000 A 
ATOM     28  N   UNL     1      43.269   5.316  12.111  0.00  0.00    +0.000 N 
ATOM     29  C   UNL     1      44.206   4.755  12.945  0.00  0.00    +0.000 A 
ATOM     30  O   UNL     1      43.965   3.731  13.574  0.00  0.00    +0.000 OA
ATOM     31  C   UNL     1      45.472   5.463  12.991  0.00  0.00    +0.000 A 
ATOM     32  H   UNL     1      42.377   4.845  12.061  0.00  0.00    +0.000 HD
ENDBRANCH  19  22
ENDBRANCH  17  18
ENDBRANCH   4  17
TORSDOF 6
ENDMDL
MODEL 3
REMARK VINA RESULT:    -6.829      4.649      9.190
REMARK INTER + INTRA:         -10.098
REMARK INTER:                  -9.055
REMARK INTRA:                  -1.043
REMARK UNBOUND:                -0.874
REMARK  Name = 
REMARK  6 active torsions:
REMARK  status: ('A' for Active; 'I' for Inactive)
REMARK    1  A    between atoms: C_2  and  C_25
REMARK    2  A    between atoms: N_3  and  C_4
REMARK    3  A    between atoms: C_4  and  C_5
REMARK    4  A    between atoms: C_8  and  C_9
REMARK    5  A    between atoms: C_9  and  N_10
REMARK    6  A    between atoms: C_11  and  C_13
REMARK                            x       y       z     vdW  Elec       q    Type
REMARK                         _______ _______ _______ _____ _____    ______ ____
ROOT
ATOM      1  C   UNL     1      51.354   2.849  17.760  0.00  0.00    +0.000 A 
ATOM      2  C   UNL     1      50.570   1.887  17.108  0.00  0.00    +0.000 A 
ATOM      3  C   UNL     1      49.222   2.138  16.823  0.00  0.00    +0.000 A 
ATOM      4  C   UNL     1      48.635   3.364  17.165  0.00  0.00    +0.000 A 
ATOM      5  C   UNL     1      49.416   4.318  17.830  0.00  0.00    +0.000 A 
ATOM      6  C   UNL     1      50.764   4.069  18.112  0.00  0.00    +0.000 A 
ENDROOT
BRANCH   1   7
ATOM      7  C   UNL     1      52.790   2.565  18.109  0.00  0.00    +0.000 C 
BRANCH   7  10
ATOM      8  O   UNL     1      55.025   1.583  16.889  0.00  0.00    +0.000 OA
ATOM      9  C   UNL     1      54.282   0.757  17.420  0.00  0.00    +0.000 C 
ATOM     10  N   UNL     1      53.127   1.162  18.062  0.00  0.00    +0.000 N 
ATOM     11  H   UNL     1      52.538   0.476  18.516  0.00  0.00    +0.000 HD
BRANCH   9  12
ATOM     12  C   UNL     1      54.579  -0.670  17.406  0.00  0.00    +0.000 A 
ATOM     13  C   UNL     1      54.957  -1.411  16.297  0.00  0.00    +0.000 A 
ATOM     14  C   UNL     1      55.152  -2.789  16.590  0.00  0.00    +0.000 A 
ATOM     15  C   UNL     1      54.917  -3.065  17.919  0.00  0.00    +0.000 A 
ATOM     16  S   UNL     1      54.482  -1.661  18.799  0.00  0.00    +0.000 S 
ENDBRANCH   9  12
ENDBRANCH   7  10
ENDBRANCH   1   7
BRANCH   4  17
ATOM     17  C   UNL     1      47.185   3.648  16.860  0.00  0.00    +0.000 C 
BRANCH  17  18
ATOM     18  N   UNL     1      47.045   4.634  15.820  0.00  0.00    +0.000 N 
ATOM     19  C   UNL     1      47.096   4.286  14.494  0.00  0.00    +0.000 C 
ATOM     20  O   UNL     1      47.216   3.119  14.131  0.00  0.00    +0.000 OA
ATOM     21  H   UNL     1      47.191   5.602  16.087  0.00  0.00    +0.000 HD
BRANCH  19  22
ATOM     22  C   UNL     1      46.941   5.378  13.523  0.00  0.00    +0.000 A 
ATOM     23  C   UNL     1      45.921   5.328  12.582  0.00  0.00    +0.000 A 
ATOM     24  S   UNL     1      45.854   6.700  11.572  0.00  0.00    +0.000 S 
ATOM     25  C   UNL     1      47.221   7.384  12.319  0.00  0.00    +0.000 A 
ATOM     26  N   UNL     1      47.722   8.578  11.901  0.00  0.00    +0.000 NA
ATOM     27  C   UNL     1      48.779   8.963  12.535  0.00  0.00    +0.000 A 
ATOM     28  N   UNL     1      49.378   8.267  13.552  0.00  0.00    +0.000 N 
ATOM     29  C   UNL     1      48.892   7.071  14.026  0.00  0.00    +0.000 A 
ATOM     30  O   UNL     1      49.431   6.493  14.963  0.00  0.00    +0.000 OA
ATOM     31  C   UNL     1      47.710   6.586  13.338  0.00  0.00    +0.000 A 
ATOM     32  H   UNL     1      50.202   8.627  14.012  0.00  0.00    +0.000 HD
ENDBRANCH  19  22
ENDBRANCH  17  18
ENDBRANCH   4  17
TORSDOF 6
ENDMDL
MODEL 4
REMARK VINA RESULT:    -6.044      1.743      2.338
REMARK INTER + INTRA:          -9.038
REMARK INTER:                  -8.029
REMARK INTRA:                  -1.009
REMARK UNBOUND:                -0.874
REMARK  Name = 
REMARK  6 active torsions:
REMARK  status: ('A' for Active; 'I' for Inactive)
REMARK    1  A    between atoms: C_2  and  C_25
REMARK    2  A    between atoms: N_3  and  C_4
REMARK    3  A    between atoms: C_4  and  C_5
REMARK    4  A    between atoms: C_8  and  C_9
REMARK    5  A    between atoms: C_9  and  N_10
REMARK    6  A    between atoms: C_11  and  C_13
REMARK                            x       y       z     vdW  Elec       q    Type
REMARK                         _______ _______ _______ _____ _____    ______ ____
ROOT
ATOM      1  C   UNL     1      46.148   7.606  12.071  0.00  0.00    +0.000 A 
ATOM      2  C   UNL     1      47.416   7.082  11.785  0.00  0.00    +0.000 A 
ATOM      3  C   UNL     1      48.530   7.445  12.554  0.00  0.00    +0.000 A 
ATOM      4  C   UNL     1      48.394   8.323  13.638  0.00  0.00    +0.000 A 
ATOM      5  C   UNL     1      47.129   8.857  13.913  0.00  0.00    +0.000 A 
ATOM      6  C   UNL     1      46.016   8.493  13.147  0.00  0.00    +0.000 A 
ENDROOT
BRANCH   1   7
ATOM      7  C   UNL     1      44.959   7.254  11.218  0.00  0.00    +0.000 C 
BRANCH   7  10
ATOM      8  O   UNL     1      44.077   4.706  11.637  0.00  0.00    +0.000 OA
ATOM      9  C   UNL     1      44.720   4.902  10.605  0.00  0.00    +0.000 C 
ATOM     10  N   UNL     1      45.207   6.161  10.308  0.00  0.00    +0.000 N 
ATOM     11  H   UNL     1      45.711   6.314   9.445  0.00  0.00    +0.000 HD
BRANCH   9  12
ATOM     12  C   UNL     1      44.993   3.834   9.650  0.00  0.00    +0.000 A 
ATOM     13  C   UNL     1      44.645   2.501   9.801  0.00  0.00    +0.000 A 
ATOM     14  C   UNL     1      45.070   1.690   8.713  0.00  0.00    +0.000 A 
ATOM     15  C   UNL     1      45.733   2.426   7.758  0.00  0.00    +0.000 A 
ATOM     16  S   UNL     1      45.822   4.086   8.174  0.00  0.00    +0.000 S 
ENDBRANCH   9  12
ENDBRANCH   7  10
ENDBRANCH   1   7
BRANCH   4  17
ATOM     17  C   UNL     1      49.584   8.718  14.477  0.00  0.00    +0.000 C 
BRANCH  17  18
ATOM     18  N   UNL     1      49.678   7.923  15.674  0.00  0.00    +0.000 N 
ATOM     19  C   UNL     1      49.192   8.379  16.873  0.00  0.00    +0.000 C 
ATOM     20  O   UNL     1      48.617   9.459  16.975  0.00  0.00    +0.000 OA
ATOM     21  H   UNL     1      50.350   7.162  15.664  0.00  0.00    +0.000 HD
BRANCH  19  22
ATOM     22  C   UNL     1      49.345   7.481  18.026  0.00  0.00    +0.000 A 
ATOM     23  C   UNL     1      49.843   7.973  19.225  0.00  0.00    +0.000 A 
ATOM     24  S   UNL     1      49.902   6.811  20.471  0.00  0.00    +0.000 S 
ATOM     25  C   UNL     1      49.317   5.593  19.436  0.00  0.00    +0.000 A 
ATOM     26  N   UNL     1      49.154   4.317  19.880  0.00  0.00    +0.000 NA
ATOM     27  C   UNL     1      48.733   3.491  18.981  0.00  0.00    +0.000 A 
ATOM     28  N   UNL     1      48.454   3.825  17.682  0.00  0.00    +0.000 N 
ATOM     29  C   UNL     1      48.578   5.105  17.196  0.00  0.00    +0.000 A 
ATOM     30  O   UNL     1      48.285   5.375  16.037  0.00  0.00    +0.000 OA
ATOM     31  C   UNL     1      49.061   6.072  18.163  0.00  0.00    +0.000 A 
ATOM     32  H   UNL     1      48.122   3.130  17.029  0.00  0.00    +0.000 HD
ENDBRANCH  19  22
ENDBRANCH  17  18
ENDBRANCH   4  17
TORSDOF 6
ENDMDL
MODEL 5
REMARK VINA RESULT:    -5.880      5.116      9.837
REMARK INTER + INTRA:          -8.816
REMARK INTER:                  -7.981
REMARK INTRA:                  -0.834
REMARK UNBOUND:                -0.874
REMARK  Name = 
REMARK  6 active torsions:
REMARK  status: ('A' for Active; 'I' for Inactive)
REMARK    1  A    between atoms: C_2  and  C_25
REMARK    2  A    between atoms: N_3  and  C_4
REMARK    3  A    between atoms: C_4  and  C_5
REMARK    4  A    between atoms: C_8  and  C_9
REMARK    5  A    between atoms: C_9  and  N_10
REMARK    6  A    between atoms: C_11  and  C_13
REMARK                            x       y       z     vdW  Elec       q    Type
REMARK                         _______ _______ _______ _____ _____    ______ ____
ROOT
ATOM      1  C   UNL     1      52.511   2.232  17.783  0.00  0.00    +0.000 A 
ATOM      2  C   UNL     1      51.396   1.491  17.367  0.00  0.00    +0.000 A 
ATOM      3  C   UNL     1      50.134   2.092  17.270  0.00  0.00    +0.000 A 
ATOM      4  C   UNL     1      49.966   3.451  17.566  0.00  0.00    +0.000 A 
ATOM      5  C   UNL     1      51.077   4.186  17.996  0.00  0.00    +0.000 A 
ATOM      6  C   UNL     1      52.339   3.588  18.090  0.00  0.00    +0.000 A 
ENDROOT
BRANCH   1   7
ATOM      7  C   UNL     1      53.858   1.579  17.932  0.00  0.00    +0.000 C 
BRANCH   7  10
ATOM      8  O   UNL     1      54.551  -0.949  17.172  0.00  0.00    +0.000 OA
ATOM      9  C   UNL     1      54.218  -0.801  18.348  0.00  0.00    +0.000 C 
ATOM     10  N   UNL     1      53.851   0.443  18.824  0.00  0.00    +0.000 N 
ATOM     11  H   UNL     1      53.604   0.556  19.798  0.00  0.00    +0.000 HD
BRANCH   9  12
ATOM     12  C   UNL     1      54.199  -1.913  19.290  0.00  0.00    +0.000 A 
ATOM     13  C   UNL     1      53.298  -2.967  19.285  0.00  0.00    +0.000 A 
ATOM     14  C   UNL     1      53.515  -3.888  20.348  0.00  0.00    +0.000 A 
ATOM     15  C   UNL     1      54.578  -3.512  21.138  0.00  0.00    +0.000 A 
ATOM     16  S   UNL     1      55.311  -2.066  20.583  0.00  0.00    +0.000 S 
ENDBRANCH   9  12
ENDBRANCH   7  10
ENDBRANCH   1   7
BRANCH   4  17
ATOM     17  C   UNL     1      48.613   4.111  17.461  0.00  0.00    +0.000 C 
BRANCH  17  18
ATOM     18  N   UNL     1      48.393   4.666  16.150  0.00  0.00    +0.000 N 
ATOM     19  C   UNL     1      48.477   6.015  15.923  0.00  0.00    +0.000 C 
ATOM     20  O   UNL     1      48.788   6.807  16.809  0.00  0.00    +0.000 OA
ATOM     21  H   UNL     1      47.905   4.077  15.482  0.00  0.00    +0.000 HD
BRANCH  19  22
ATOM     22  C   UNL     1      48.232   6.465  14.546  0.00  0.00    +0.000 A 
ATOM     23  C   UNL     1      48.969   7.518  14.020  0.00  0.00    +0.000 A 
ATOM     24  S   UNL     1      48.594   7.872  12.395  0.00  0.00    +0.000 S 
ATOM     25  C   UNL     1      47.392   6.667  12.353  0.00  0.00    +0.000 A 
ATOM     26  N   UNL     1      46.651   6.459  11.232  0.00  0.00    +0.000 NA
ATOM     27  C   UNL     1      45.755   5.536  11.351  0.00  0.00    +0.000 A 
ATOM     28  N   UNL     1      45.537   4.799  12.485  0.00  0.00    +0.000 N 
ATOM     29  C   UNL     1      46.279   4.956  13.632  0.00  0.00    +0.000 A 
ATOM     30  O   UNL     1      46.081   4.255  14.617  0.00  0.00    +0.000 OA
ATOM     31  C   UNL     1      47.293   5.991  13.556  0.00  0.00    +0.000 A 
ATOM     32  H   UNL     1      44.823   4.087  12.511  0.00  0.00    +0.000 HD
ENDBRANCH  19  22
ENDBRANCH  17  18
ENDBRANCH   4  17
TORSDOF 6
ENDMDL
MODEL 6
REMARK VINA RESULT:    -5.237      3.086      4.221
REMARK INTER + INTRA:          -7.947
REMARK INTER:                  -7.035
REMARK INTRA:                  -0.912
REMARK UNBOUND:                -0.874
REMARK  Name = 
REMARK  6 active torsions:
REMARK  status: ('A' for Active; 'I' for Inactive)
REMARK    1  A    between atoms: C_2  and  C_25
REMARK    2  A    between atoms: N_3  and  C_4
REMARK    3  A    between atoms: C_4  and  C_5
REMARK    4  A    between atoms: C_8  and  C_9
REMARK    5  A    between atoms: C_9  and  N_10
REMARK    6  A    between atoms: C_11  and  C_13
REMARK                            x       y       z     vdW  Elec       q    Type
REMARK                         _______ _______ _______ _____ _____    ______ ____
ROOT
ATOM      1  C   UNL     1      47.704   7.326  13.622  0.00  0.00    +0.000 A 
ATOM      2  C   UNL     1      48.882   7.251  12.868  0.00  0.00    +0.000 A 
ATOM      3  C   UNL     1      50.135   7.352  13.486  0.00  0.00    +0.000 A 
ATOM      4  C   UNL     1      50.235   7.508  14.875  0.00  0.00    +0.000 A 
ATOM      5  C   UNL     1      49.056   7.598  15.626  0.00  0.00    +0.000 A 
ATOM      6  C   UNL     1      47.805   7.495  15.009  0.00  0.00    +0.000 A 
ENDROOT
BRANCH   1   7
ATOM      7  C   UNL     1      46.356   7.265  12.955  0.00  0.00    +0.000 C 
BRANCH   7  10
ATOM      8  O   UNL     1      44.056   5.910  12.387  0.00  0.00    +0.000 OA
ATOM      9  C   UNL     1      45.050   5.605  11.728  0.00  0.00    +0.000 C 
ATOM     10  N   UNL     1      46.260   6.237  11.946  0.00  0.00    +0.000 N 
ATOM     11  H   UNL     1      47.063   5.995  11.381  0.00  0.00    +0.000 HD
BRANCH   9  12
ATOM     12  C   UNL     1      45.006   4.578  10.693  0.00  0.00    +0.000 A 
ATOM     13  C   UNL     1      44.527   3.287  10.850  0.00  0.00    +0.000 A 
ATOM     14  C   UNL     1      44.639   2.506   9.666  0.00  0.00    +0.000 A 
ATOM     15  C   UNL     1      45.200   3.224   8.635  0.00  0.00    +0.000 A 
ATOM     16  S   UNL     1      45.572   4.831   9.098  0.00  0.00    +0.000 S 
ENDBRANCH   9  12
ENDBRANCH   7  10
ENDBRANCH   1   7
BRANCH   4  17
ATOM     17  C   UNL     1      51.579   7.613  15.554  0.00  0.00    +0.000 C 
BRANCH  17  18
ATOM     18  N   UNL     1      52.051   6.327  15.998  0.00  0.00    +0.000 N 
ATOM     19  C   UNL     1      52.666   6.174  17.214  0.00  0.00    +0.000 C 
ATOM     20  O   UNL     1      52.801   7.108  17.999  0.00  0.00    +0.000 OA
ATOM     21  H   UNL     1      52.172   5.615  15.284  0.00  0.00    +0.000 HD
BRANCH  19  22
ATOM     22  C   UNL     1      53.107   4.815  17.559  0.00  0.00    +0.000 A 
ATOM     23  C   UNL     1      54.437   4.580  17.881  0.00  0.00    +0.000 A 
ATOM     24  S   UNL     1      54.763   2.962  18.308  0.00  0.00    +0.000 S 
ATOM     25  C   UNL     1      53.149   2.505  18.023  0.00  0.00    +0.000 A 
ATOM     26  N   UNL     1      52.750   1.214  18.181  0.00  0.00    +0.000 NA
ATOM     27  C   UNL     1      51.507   1.003  17.901  0.00  0.00    +0.000 A 
ATOM     28  N   UNL     1      50.625   1.966  17.485  0.00  0.00    +0.000 N 
ATOM     29  C   UNL     1      50.976   3.287  17.338  0.00  0.00    +0.000 A 
ATOM     30  O   UNL     1      50.152   4.129  16.999  0.00  0.00    +0.000 OA
ATOM     31  C   UNL     1      52.368   3.576  17.628  0.00  0.00    +0.000 A 
ATOM     32  H   UNL     1      49.662   1.736  17.287  0.00  0.00    +0.000 HD
ENDBRANCH  19  22
ENDBRANCH  17  18
ENDBRANCH   4  17
TORSDOF 6
ENDMDL
MODEL 7
REMARK VINA RESULT:    -5.025      7.552     10.893
REMARK INTER + INTRA:          -7.661
REMARK INTER:                  -6.575
REMARK INTRA:                  -1.086
REMARK UNBOUND:                -0.874
REMARK  Name = 
REMARK  6 active torsions:
REMARK  status: ('A' for Active; 'I' for Inactive)
REMARK    1  A    between atoms: C_2  and  C_25
REMARK    2  A    between atoms: N_3  and  C_4
REMARK    3  A    between atoms: C_4  and  C_5
REMARK    4  A    between atoms: C_8  and  C_9
REMARK    5  A    between atoms: C_9  and  N_10
REMARK    6  A    between atoms: C_11  and  C_13
REMARK                            x       y       z     vdW  Elec       q    Type
REMARK                         _______ _______ _______ _____ _____    ______ ____
ROOT
ATOM      1  C   UNL     1      55.034  -2.231  16.830  0.00  0.00    +0.000 A 
ATOM      2  C   UNL     1      54.709  -1.814  18.128  0.00  0.00    +0.000 A 
ATOM      3  C   UNL     1      54.759  -0.459  18.478  0.00  0.00    +0.000 A 
ATOM      4  C   UNL     1      55.115   0.511  17.530  0.00  0.00    +0.000 A 
ATOM      5  C   UNL     1      55.453   0.091  16.237  0.00  0.00    +0.000 A 
ATOM      6  C   UNL     1      55.401  -1.262  15.886  0.00  0.00    +0.000 A 
ENDROOT
BRANCH   1   7
ATOM      7  C   UNL     1      55.026  -3.690  16.464  0.00  0.00    +0.000 C 
BRANCH   7  10
ATOM      8  O   UNL     1      53.132  -5.350  15.412  0.00  0.00    +0.000 OA
ATOM      9  C   UNL     1      53.190  -5.293  16.641  0.00  0.00    +0.000 C 
ATOM     10  N   UNL     1      54.118  -4.479  17.263  0.00  0.00    +0.000 N 
ATOM     11  H   UNL     1      54.173  -4.460  18.273  0.00  0.00    +0.000 HD
BRANCH   9  12
ATOM     12  C   UNL     1      52.301  -6.072  17.494  0.00  0.00    +0.000 A 
ATOM     13  C   UNL     1      51.978  -5.782  18.811  0.00  0.00    +0.000 A 
ATOM     14  C   UNL     1      51.105  -6.743  19.393  0.00  0.00    +0.000 A 
ATOM     15  C   UNL     1      50.784  -7.743  18.503  0.00  0.00    +0.000 A 
ATOM     16  S   UNL     1      51.523  -7.506  16.976  0.00  0.00    +0.000 S 
ENDBRANCH   9  12
ENDBRANCH   7  10
ENDBRANCH   1   7
BRANCH   4  17
ATOM     17  C   UNL     1      55.168   1.974  17.893  0.00  0.00    +0.000 C 
BRANCH  17  18
ATOM     18  N   UNL     1      53.903   2.624  17.666  0.00  0.00    +0.000 N 
ATOM     19  C   UNL     1      53.124   3.053  18.710  0.00  0.00    +0.000 C 
ATOM     20  O   UNL     1      53.484   2.948  19.879  0.00  0.00    +0.000 OA
ATOM     21  H   UNL     1      53.484   2.500  16.749  0.00  0.00    +0.000 HD
BRANCH  19  22
ATOM     22  C   UNL     1      51.853   3.701  18.356  0.00  0.00    +0.000 A 
ATOM     23  C   UNL     1      51.600   5.002  18.772  0.00  0.00    +0.000 A 
ATOM     24  S   UNL     1      50.106   5.617  18.229  0.00  0.00    +0.000 S 
ATOM     25  C   UNL     1      49.717   4.146  17.465  0.00  0.00    +0.000 A 
ATOM     26  N   UNL     1      48.531   3.987  16.817  0.00  0.00    +0.000 NA
ATOM     27  C   UNL     1      48.356   2.812  16.311  0.00  0.00    +0.000 A 
ATOM     28  N   UNL     1      49.259   1.784  16.387  0.00  0.00    +0.000 N 
ATOM     29  C   UNL     1      50.479   1.907  17.008  0.00  0.00    +0.000 A 
ATOM     30  O   UNL     1      51.279   0.978  17.025  0.00  0.00    +0.000 OA
ATOM     31  C   UNL     1      50.723   3.206  17.606  0.00  0.00    +0.000 A 
ATOM     32  H   UNL     1      49.062   0.889  15.964  0.00  0.00    +0.000 HD
ENDBRANCH  19  22
ENDBRANCH  17  18
ENDBRANCH   4  17
TORSDOF 6
ENDMDL
MODEL 8
REMARK VINA RESULT:    -5.007      9.968     11.145
REMARK INTER + INTRA:          -7.636
REMARK INTER:                  -6.793
REMARK INTRA:                  -0.843
REMARK UNBOUND:                -0.874
REMARK  Name = 
REMARK  6 active torsions:
REMARK  status: ('A' for Active; 'I' for Inactive)
REMARK    1  A    between atoms: C_2  and  C_25
REMARK    2  A    between atoms: N_3  and  C_4
REMARK    3  A    between atoms: C_4  and  C_5
REMARK    4  A    between atoms: C_8  and  C_9
REMARK    5  A    between atoms: C_9  and  N_10
REMARK    6  A    between atoms: C_11  and  C_13
REMARK                            x       y       z     vdW  Elec       q    Type
REMARK                         _______ _______ _______ _____ _____    ______ ____
ROOT
ATOM      1  C   UNL     1      41.285  -3.772  14.823  0.00  0.00    +0.000 A 
ATOM      2  C   UNL     1      41.836  -4.531  15.864  0.00  0.00    +0.000 A 
ATOM      3  C   UNL     1      41.568  -4.211  17.202  0.00  0.00    +0.000 A 
ATOM      4  C   UNL     1      40.727  -3.138  17.524  0.00  0.00    +0.000 A 
ATOM      5  C   UNL     1      40.189  -2.371  16.483  0.00  0.00    +0.000 A 
ATOM      6  C   UNL     1      40.454  -2.692  15.147  0.00  0.00    +0.000 A 
ENDROOT
BRANCH   1   7
ATOM      7  C   UNL     1      41.608  -4.085  13.387  0.00  0.00    +0.000 C 
BRANCH   7  10
ATOM      8  O   UNL     1      41.403  -1.879  11.794  0.00  0.00    +0.000 OA
ATOM      9  C   UNL     1      40.488  -2.699  11.716  0.00  0.00    +0.000 C 
ATOM     10  N   UNL     1      40.506  -3.847  12.485  0.00  0.00    +0.000 N 
ATOM     11  H   UNL     1      39.760  -4.525  12.393  0.00  0.00    +0.000 HD
BRANCH   9  12
ATOM     12  C   UNL     1      39.355  -2.510  10.818  0.00  0.00    +0.000 A 
ATOM     13  C   UNL     1      39.052  -3.295   9.715  0.00  0.00    +0.000 A 
ATOM     14  C   UNL     1      37.898  -2.846   9.016  0.00  0.00    +0.000 A 
ATOM     15  C   UNL     1      37.348  -1.730   9.604  0.00  0.00    +0.000 A 
ATOM     16  S   UNL     1      38.217  -1.244  10.998  0.00  0.00    +0.000 S 
ENDBRANCH   9  12
ENDBRANCH   7  10
ENDBRANCH   1   7
BRANCH   4  17
ATOM     17  C   UNL     1      40.427  -2.786  18.961  0.00  0.00    +0.000 C 
BRANCH  17  18
ATOM     18  N   UNL     1      40.213  -1.372  19.128  0.00  0.00    +0.000 N 
ATOM     19  C   UNL     1      38.978  -0.870  19.450  0.00  0.00    +0.000 C 
ATOM     20  O   UNL     1      38.012  -1.598  19.656  0.00  0.00    +0.000 OA
ATOM     21  H   UNL     1      40.914  -0.755  18.729  0.00  0.00    +0.000 HD
BRANCH  19  22
ATOM     22  C   UNL     1      38.880   0.590  19.593  0.00  0.00    +0.000 A 
ATOM     23  C   UNL     1      39.155   1.185  20.817  0.00  0.00    +0.000 A 
ATOM     24  S   UNL     1      39.047   2.886  20.791  0.00  0.00    +0.000 S 
ATOM     25  C   UNL     1      38.574   2.885  19.156  0.00  0.00    +0.000 A 
ATOM     26  N   UNL     1      38.292   4.048  18.509  0.00  0.00    +0.000 NA
ATOM     27  C   UNL     1      37.917   3.897  17.283  0.00  0.00    +0.000 A 
ATOM     28  N   UNL     1      37.803   2.691  16.642  0.00  0.00    +0.000 N 
ATOM     29  C   UNL     1      38.103   1.493  17.247  0.00  0.00    +0.000 A 
ATOM     30  O   UNL     1      38.026   0.436  16.633  0.00  0.00    +0.000 OA
ATOM     31  C   UNL     1      38.519   1.606  18.632  0.00  0.00    +0.000 A 
ATOM     32  H   UNL     1      37.509   2.643  15.678  0.00  0.00    +0.000 HD
ENDBRANCH  19  22
ENDBRANCH  17  18
ENDBRANCH   4  17
TORSDOF 6
ENDMDL
MODEL 9
REMARK VINA RESULT:    -4.894     10.215     12.544
REMARK INTER + INTRA:          -7.485
REMARK INTER:                  -6.461
REMARK INTRA:                  -1.024
REMARK UNBOUND:                -0.874
REMARK  Name = 
REMARK  6 active torsions:
REMARK  status: ('A' for Active; 'I' for Inactive)
REMARK    1  A    between atoms: C_2  and  C_25
REMARK    2  A    between atoms: N_3  and  C_4
REMARK    3  A    between atoms: C_4  and  C_5
REMARK    4  A    between atoms: C_8  and  C_9
REMARK    5  A    between atoms: C_9  and  N_10
REMARK    6  A    between atoms: C_11  and  C_13
REMARK                            x       y       z     vdW  Elec       q    Type
REMARK                         _______ _______ _______ _____ _____    ______ ____
ROOT
ATOM      1  C   UNL     1      36.877   1.160  14.570  0.00  0.00    +0.000 A 
ATOM      2  C   UNL     1      37.266  -0.118  14.992  0.00  0.00    +0.000 A 
ATOM      3  C   UNL     1      37.529  -1.130  14.060  0.00  0.00    +0.000 A 
ATOM      4  C   UNL     1      37.430  -0.878  12.685  0.00  0.00    +0.000 A 
ATOM      5  C   UNL     1      37.027   0.395  12.265  0.00  0.00    +0.000 A 
ATOM      6  C   UNL     1      36.766   1.407  13.195  0.00  0.00    +0.000 A 
ENDROOT
BRANCH   1   7
ATOM      7  C   UNL     1      36.547   2.235  15.570  0.00  0.00    +0.000 C 
BRANCH   7  10
ATOM      8  O   UNL     1      38.698   3.508  16.666  0.00  0.00    +0.000 OA
ATOM      9  C   UNL     1      38.148   2.658  17.366  0.00  0.00    +0.000 C 
ATOM     10  N   UNL     1      37.050   1.962  16.895  0.00  0.00    +0.000 N 
ATOM     11  H   UNL     1      36.592   1.284  17.490  0.00  0.00    +0.000 HD
BRANCH   9  12
ATOM     12  C   UNL     1      38.612   2.347  18.713  0.00  0.00    +0.000 A 
ATOM     13  C   UNL     1      39.235   3.231  19.581  0.00  0.00    +0.000 A 
ATOM     14  C   UNL     1      39.598   2.629  20.818  0.00  0.00    +0.000 A 
ATOM     15  C   UNL     1      39.241   1.300  20.862  0.00  0.00    +0.000 A 
ATOM     16  S   UNL     1      38.461   0.797  19.423  0.00  0.00    +0.000 S 
ENDBRANCH   9  12
ENDBRANCH   7  10
ENDBRANCH   1   7
BRANCH   4  17
ATOM     17  C   UNL     1      37.716  -1.958  11.671  0.00  0.00    +0.000 C 
BRANCH  17  18
ATOM     18  N   UNL     1      38.524  -3.011  12.230  0.00  0.00    +0.000 N 
ATOM     19  C   UNL     1      39.889  -3.009  12.101  0.00  0.00    +0.000 C 
ATOM     20  O   UNL     1      40.490  -2.093  11.546  0.00  0.00    +0.000 OA
ATOM     21  H   UNL     1      38.046  -3.876  12.465  0.00  0.00    +0.000 HD
BRANCH  19  22
ATOM     22  C   UNL     1      40.607  -4.137  12.711  0.00  0.00    +0.000 A 
ATOM     23  C   UNL     1      40.833  -5.293  11.976  0.00  0.00    +0.000 A 
ATOM     24  S   UNL     1      41.727  -6.476  12.818  0.00  0.00    +0.000 S 
ATOM     25  C   UNL     1      41.795  -5.507  14.216  0.00  0.00    +0.000 A 
ATOM     26  N   UNL     1      42.413  -5.951  15.344  0.00  0.00    +0.000 NA
ATOM     27  C   UNL     1      42.363  -5.126  16.337  0.00  0.00    +0.000 A 
ATOM     28  N   UNL     1      41.758  -3.897  16.303  0.00  0.00    +0.000 N 
ATOM     29  C   UNL     1      41.146  -3.396  15.179  0.00  0.00    +0.000 A 
ATOM     30  O   UNL     1      40.647  -2.277  15.172  0.00  0.00    +0.000 OA
ATOM     31  C   UNL     1      41.163  -4.290  14.035  0.00  0.00    +0.000 A 
ATOM     32  H   UNL     1      41.759  -3.297  17.115  0.00  0.00    +0.000 HD
ENDBRANCH  19  22
ENDBRANCH  17  18
ENDBRANCH   4  17
TORSDOF 6
ENDMDL
