MODEL 1
REMARK VINA RESULT:    -8.154      0.000      0.000
REMARK INTER + INTRA:         -12.024
REMARK INTER:                 -11.014
REMARK INTRA:                  -1.010
REMARK UNBOUND:                -1.010
REMARK  Name = 
REMARK  7 active torsions:
REMARK  status: ('A' for Active; 'I' for Inactive)
REMARK    1  A    between atoms: C_1  and  N_2
REMARK    2  A    between atoms: C_6  and  C_7
REMARK    3  A    between atoms: N_9  and  C_10
REMARK    4  A    between atoms: C_10  and  C_11
REMARK    5  A    between atoms: C_14  and  C_15
REMARK    6  A    between atoms: C_15  and  N_16
REMARK    7  A    between atoms: C_17  and  C_19
REMARK                            x       y       z     vdW  Elec       q    Type
REMARK                         _______ _______ _______ _____ _____    ______ ____
ROOT
ATOM      1  C   UNL     1      44.756   5.487  10.788  0.00  0.00    +0.000 A 
ATOM      2  C   UNL     1      44.196   5.896  12.006  0.00  0.00    +0.000 A 
ATOM      3  C   UNL     1      44.917   6.706  12.893  0.00  0.00    +0.000 A 
ATOM      4  C   UNL     1      46.217   7.122  12.584  0.00  0.00    +0.000 A 
ATOM      5  C   UNL     1      46.766   6.718  11.362  0.00  0.00    +0.000 A 
ATOM      6  F   UNL     1      48.005   7.108  11.024  0.00  0.00    +0.000 F 
ATOM      7  C   UNL     1      46.053   5.912  10.472  0.00  0.00    +0.000 A 
ENDROOT
BRANCH   1   8
ATOM      8  C   UNL     1      43.959   4.623   9.842  0.00  0.00    +0.000 C 
BRANCH   8  11
ATOM      9  C   UNL     1      45.415   2.962   8.679  0.00  0.00    +0.000 C 
ATOM     10  O   UNL     1      45.386   2.144   9.594  0.00  0.00    +0.000 OA
ATOM     11  N   UNL     1      44.741   4.164   8.721  0.00  0.00    +0.000 N 
ATOM     12  H   UNL     1      44.830   4.745   7.892  0.00  0.00    +0.000 HD
BRANCH   9  18
ATOM     13  C   UNL     1      46.847   0.359   7.660  0.00  0.00    +0.000 C 
ATOM     14  N   UNL     1      46.794   1.638   6.995  0.00  0.00    +0.000 N 
ATOM     15  C   UNL     1      47.373   1.915   5.786  0.00  0.00    +0.000 A 
ATOM     16  C   UNL     1      47.085   3.235   5.544  0.00  0.00    +0.000 A 
ATOM     17  N   UNL     1      46.336   3.763   6.561  0.00  0.00    +0.000 NA
ATOM     18  C   UNL     1      46.165   2.781   7.440  0.00  0.00    +0.000 A 
ENDBRANCH   9  18
ENDBRANCH   8  11
ENDBRANCH   1   8
BRANCH   4  19
ATOM     19  C   UNL     1      46.980   8.028  13.515  0.00  0.00    +0.000 C 
BRANCH  19  20
ATOM     20  N   UNL     1      47.451   7.309  14.674  0.00  0.00    +0.000 N 
ATOM     21  C   UNL     1      48.723   6.805  14.747  0.00  0.00    +0.000 C 
ATOM     22  O   UNL     1      49.539   6.955  13.842  0.00  0.00    +0.000 OA
ATOM     23  H   UNL     1      46.752   6.998  15.340  0.00  0.00    +0.000 HD
BRANCH  21  24
ATOM     24  C   UNL     1      49.082   6.122  15.997  0.00  0.00    +0.000 A 
ATOM     25  C   UNL     1      50.166   6.564  16.743  0.00  0.00    +0.000 A 
ATOM     26  S   UNL     1      50.408   5.685  18.186  0.00  0.00    +0.000 S 
ATOM     27  C   UNL     1      49.106   4.651  17.839  0.00  0.00    +0.000 A 
ATOM     28  N   UNL     1      48.773   3.633  18.682  0.00  0.00    +0.000 NA
ATOM     29  C   UNL     1      47.783   2.913  18.282  0.00  0.00    +0.000 A 
ATOM     30  N   UNL     1      47.089   3.111  17.114  0.00  0.00    +0.000 N 
ATOM     31  C   UNL     1      47.366   4.145  16.251  0.00  0.00    +0.000 A 
ATOM     32  O   UNL     1      46.691   4.326  15.244  0.00  0.00    +0.000 OA
ATOM     33  C   UNL     1      48.485   4.982  16.649  0.00  0.00    +0.000 A 
ATOM     34  H   UNL     1      46.315   2.514  16.864  0.00  0.00    +0.000 HD
ENDBRANCH  21  24
ENDBRANCH  19  20
ENDBRANCH   4  19
TORSDOF 6
ENDMDL
MODEL 2
REMARK VINA RESULT:    -7.804      2.149      2.663
REMARK INTER + INTRA:         -11.551
REMARK INTER:                 -10.445
REMARK INTRA:                  -1.106
REMARK UNBOUND:                -1.010
REMARK  Name = 
REMARK  7 active torsions:
REMARK  status: ('A' for Active; 'I' for Inactive)
REMARK    1  A    between atoms: C_1  and  N_2
REMARK    2  A    between atoms: C_6  and  C_7
REMARK    3  A    between atoms: N_9  and  C_10
REMARK    4  A    between atoms: C_10  and  C_11
REMARK    5  A    between atoms: C_14  and  C_15
REMARK    6  A    between atoms: C_15  and  N_16
REMARK    7  A    between atoms: C_17  and  C_19
REMARK                            x       y       z     vdW  Elec       q    Type
REMARK                         _______ _______ _______ _____ _____    ______ ____
ROOT
ATOM      1  C   UNL     1      44.816   4.981  11.717  0.00  0.00    +0.000 A 
ATOM      2  C   UNL     1      45.965   4.977  12.521  0.00  0.00    +0.000 A 
ATOM      3  C   UNL     1      46.552   6.177  12.943  0.00  0.00    +0.000 A 
ATOM      4  C   UNL     1      46.006   7.409  12.569  0.00  0.00    +0.000 A 
ATOM      5  C   UNL     1      44.854   7.407  11.775  0.00  0.00    +0.000 A 
ATOM      6  F   UNL     1      44.294   8.569  11.406  0.00  0.00    +0.000 F 
ATOM      7  C   UNL     1      44.262   6.215  11.351  0.00  0.00    +0.000 A 
ENDROOT
BRANCH   1   8
ATOM      8  C   UNL     1      44.194   3.678  11.281  0.00  0.00    +0.000 C 
BRANCH   8  11
ATOM      9  C   UNL     1      44.970   3.098   8.981  0.00  0.00    +0.000 C 
ATOM     10  O   UNL     1      44.219   3.889   8.418  0.00  0.00    +0.000 OA
ATOM     11  N   UNL     1      45.024   2.954  10.351  0.00  0.00    +0.000 N 
ATOM     12  H   UNL     1      45.702   2.279  10.694  0.00  0.00    +0.000 HD
BRANCH   9  18
ATOM     13  C   UNL     1      47.248   3.873   6.962  0.00  0.00    +0.000 C 
ATOM     14  N   UNL     1      46.889   2.546   7.399  0.00  0.00    +0.000 N 
ATOM     15  C   UNL     1      47.507   1.394   6.989  0.00  0.00    +0.000 A 
ATOM     16  C   UNL     1      46.844   0.381   7.637  0.00  0.00    +0.000 A 
ATOM     17  N   UNL     1      45.855   0.884   8.439  0.00  0.00    +0.000 NA
ATOM     18  C   UNL     1      45.891   2.204   8.285  0.00  0.00    +0.000 A 
ENDBRANCH   9  18
ENDBRANCH   8  11
ENDBRANCH   1   8
BRANCH   4  19
ATOM     19  C   UNL     1      46.609   8.701  13.056  0.00  0.00    +0.000 C 
BRANCH  19  20
ATOM     20  N   UNL     1      47.010   8.602  14.438  0.00  0.00    +0.000 N 
ATOM     21  C   UNL     1      48.190   9.131  14.891  0.00  0.00    +0.000 C 
ATOM     22  O   UNL     1      48.960   9.739  14.153  0.00  0.00    +0.000 OA
ATOM     23  H   UNL     1      46.504   7.943  15.020  0.00  0.00    +0.000 HD
BRANCH  21  24
ATOM     24  C   UNL     1      48.461   8.986  16.327  0.00  0.00    +0.000 A 
ATOM     25  C   UNL     1      48.483  10.107  17.146  0.00  0.00    +0.000 A 
ATOM     26  S   UNL     1      48.765   9.748  18.791  0.00  0.00    +0.000 S 
ATOM     27  C   UNL     1      48.918   8.089  18.459  0.00  0.00    +0.000 A 
ATOM     28  N   UNL     1      49.188   7.195  19.452  0.00  0.00    +0.000 NA
ATOM     29  C   UNL     1      49.304   5.976  19.054  0.00  0.00    +0.000 A 
ATOM     30  N   UNL     1      49.176   5.559  17.752  0.00  0.00    +0.000 N 
ATOM     31  C   UNL     1      48.868   6.419  16.724  0.00  0.00    +0.000 A 
ATOM     32  O   UNL     1      48.706   6.004  15.581  0.00  0.00    +0.000 OA
ATOM     33  C   UNL     1      48.739   7.811  17.117  0.00  0.00    +0.000 A 
ATOM     34  H   UNL     1      49.269   4.585  17.509  0.00  0.00    +0.000 HD
ENDBRANCH  21  24
ENDBRANCH  19  20
ENDBRANCH   4  19
TORSDOF 6
ENDMDL
MODEL 3
REMARK VINA RESULT:    -7.341      2.357      2.920
REMARK INTER + INTRA:         -10.926
REMARK INTER:                 -10.142
REMARK INTRA:                  -0.784
REMARK UNBOUND:                -1.010
REMARK  Name = 
REMARK  7 active torsions:
REMARK  status: ('A' for Active; 'I' for Inactive)
REMARK    1  A    between atoms: C_1  and  N_2
REMARK    2  A    between atoms: C_6  and  C_7
REMARK    3  A    between atoms: N_9  and  C_10
REMARK    4  A    between atoms: C_10  and  C_11
REMARK    5  A    between atoms: C_14  and  C_15
REMARK    6  A    between atoms: C_15  and  N_16
REMARK    7  A    between atoms: C_17  and  C_19
REMARK                            x       y       z     vdW  Elec       q    Type
REMARK                         _______ _______ _______ _____ _____    ______ ____
ROOT
ATOM      1  C   UNL     1      45.932   4.548  12.754  0.00  0.00    +0.000 A 
ATOM      2  C   UNL     1      46.493   4.054  13.940  0.00  0.00    +0.000 A 
ATOM      3  C   UNL     1      47.349   4.845  14.715  0.00  0.00    +0.000 A 
ATOM      4  C   UNL     1      47.670   6.149  14.320  0.00  0.00    +0.000 A 
ATOM      5  C   UNL     1      47.101   6.640  13.140  0.00  0.00    +0.000 A 
ATOM      6  F   UNL     1      47.374   7.889  12.735  0.00  0.00    +0.000 F 
ATOM      7  C   UNL     1      46.243   5.857  12.363  0.00  0.00    +0.000 A 
ENDROOT
BRANCH   1   8
ATOM      8  C   UNL     1      45.003   3.683  11.938  0.00  0.00    +0.000 C 
BRANCH   8  11
ATOM      9  C   UNL     1      44.951   2.541   9.719  0.00  0.00    +0.000 C 
ATOM     10  O   UNL     1      43.741   2.333   9.740  0.00  0.00    +0.000 OA
ATOM     11  N   UNL     1      45.622   3.196  10.730  0.00  0.00    +0.000 N 
ATOM     12  H   UNL     1      46.619   3.322  10.583  0.00  0.00    +0.000 HD
BRANCH   9  18
ATOM     13  C   UNL     1      46.447   4.355   7.637  0.00  0.00    +0.000 C 
ATOM     14  N   UNL     1      46.492   2.916   7.726  0.00  0.00    +0.000 N 
ATOM     15  C   UNL     1      47.215   2.104   6.893  0.00  0.00    +0.000 A 
ATOM     16  C   UNL     1      46.959   0.827   7.326  0.00  0.00    +0.000 A 
ATOM     17  N   UNL     1      46.116   0.839   8.404  0.00  0.00    +0.000 NA
ATOM     18  C   UNL     1      45.837   2.118   8.639  0.00  0.00    +0.000 A 
ENDBRANCH   9  18
ENDBRANCH   8  11
ENDBRANCH   1   8
BRANCH   4  19
ATOM     19  C   UNL     1      48.557   7.018  15.173  0.00  0.00    +0.000 C 
BRANCH  19  20
ATOM     20  N   UNL     1      49.652   6.261  15.729  0.00  0.00    +0.000 N 
ATOM     21  C   UNL     1      49.642   5.818  17.026  0.00  0.00    +0.000 C 
ATOM     22  O   UNL     1      48.694   6.020  17.779  0.00  0.00    +0.000 OA
ATOM     23  H   UNL     1      50.521   6.251  15.206  0.00  0.00    +0.000 HD
BRANCH  21  24
ATOM     24  C   UNL     1      50.806   5.032  17.455  0.00  0.00    +0.000 A 
ATOM     25  C   UNL     1      51.933   5.674  17.950  0.00  0.00    +0.000 A 
ATOM     26  S   UNL     1      53.170   4.606  18.443  0.00  0.00    +0.000 S 
ATOM     27  C   UNL     1      52.264   3.251  17.965  0.00  0.00    +0.000 A 
ATOM     28  N   UNL     1      52.763   1.989  18.099  0.00  0.00    +0.000 NA
ATOM     29  C   UNL     1      51.981   1.060  17.672  0.00  0.00    +0.000 A 
ATOM     30  N   UNL     1      50.741   1.268  17.120  0.00  0.00    +0.000 N 
ATOM     31  C   UNL     1      50.182   2.519  16.998  0.00  0.00    +0.000 A 
ATOM     32  O   UNL     1      49.050   2.665  16.551  0.00  0.00    +0.000 OA
ATOM     33  C   UNL     1      51.030   3.607  17.454  0.00  0.00    +0.000 A 
ATOM     34  H   UNL     1      50.173   0.493  16.814  0.00  0.00    +0.000 HD
ENDBRANCH  21  24
ENDBRANCH  19  20
ENDBRANCH   4  19
TORSDOF 6
ENDMDL
MODEL 4
REMARK VINA RESULT:    -7.249      3.574      4.874
REMARK INTER + INTRA:         -10.802
REMARK INTER:                  -9.784
REMARK INTRA:                  -1.018
REMARK UNBOUND:                -1.010
REMARK  Name = 
REMARK  7 active torsions:
REMARK  status: ('A' for Active; 'I' for Inactive)
REMARK    1  A    between atoms: C_1  and  N_2
REMARK    2  A    between atoms: C_6  and  C_7
REMARK    3  A    between atoms: N_9  and  C_10
REMARK    4  A    between atoms: C_10  and  C_11
REMARK    5  A    between atoms: C_14  and  C_15
REMARK    6  A    between atoms: C_15  and  N_16
REMARK    7  A    between atoms: C_17  and  C_19
REMARK                            x       y       z     vdW  Elec       q    Type
REMARK                         _______ _______ _______ _____ _____    ______ ____
ROOT
ATOM      1  C   UNL     1      47.247   6.151  13.738  0.00  0.00    +0.000 A 
ATOM      2  C   UNL     1      46.713   4.915  14.129  0.00  0.00    +0.000 A 
ATOM      3  C   UNL     1      47.128   4.294  15.314  0.00  0.00    +0.000 A 
ATOM      4  C   UNL     1      48.090   4.893  16.135  0.00  0.00    +0.000 A 
ATOM      5  C   UNL     1      48.612   6.131  15.745  0.00  0.00    +0.000 A 
ATOM      6  F   UNL     1      49.527   6.743  16.512  0.00  0.00    +0.000 F 
ATOM      7  C   UNL     1      48.201   6.757  14.565  0.00  0.00    +0.000 A 
ENDROOT
BRANCH   1   8
ATOM      8  C   UNL     1      46.779   6.808  12.463  0.00  0.00    +0.000 C 
BRANCH   8  11
ATOM      9  C   UNL     1      45.128   5.741  10.925  0.00  0.00    +0.000 C 
ATOM     10  O   UNL     1      44.202   6.483  11.239  0.00  0.00    +0.000 OA
ATOM     11  N   UNL     1      46.395   5.849  11.457  0.00  0.00    +0.000 N 
ATOM     12  H   UNL     1      47.078   5.187  11.099  0.00  0.00    +0.000 HD
BRANCH   9  18
ATOM     13  C   UNL     1      43.709   2.966  11.318  0.00  0.00    +0.000 C 
ATOM     14  N   UNL     1      44.392   3.433  10.135  0.00  0.00    +0.000 N 
ATOM     15  C   UNL     1      44.525   2.718   8.976  0.00  0.00    +0.000 A 
ATOM     16  C   UNL     1      45.244   3.529   8.133  0.00  0.00    +0.000 A 
ATOM     17  N   UNL     1      45.538   4.720   8.741  0.00  0.00    +0.000 NA
ATOM     18  C   UNL     1      45.014   4.651   9.961  0.00  0.00    +0.000 A 
ENDBRANCH   9  18
ENDBRANCH   8  11
ENDBRANCH   1   8
BRANCH   4  19
ATOM     19  C   UNL     1      48.508   4.250  17.431  0.00  0.00    +0.000 C 
BRANCH  19  20
ATOM     20  N   UNL     1      49.908   3.901  17.415  0.00  0.00    +0.000 N 
ATOM     21  C   UNL     1      50.743   4.199  18.460  0.00  0.00    +0.000 C 
ATOM     22  O   UNL     1      50.342   4.758  19.477  0.00  0.00    +0.000 OA
ATOM     23  H   UNL     1      50.305   3.627  16.522  0.00  0.00    +0.000 HD
BRANCH  21  24
ATOM     24  C   UNL     1      52.137   3.760  18.326  0.00  0.00    +0.000 A 
ATOM     25  C   UNL     1      53.173   4.641  18.608  0.00  0.00    +0.000 A 
ATOM     26  S   UNL     1      54.725   3.950  18.444  0.00  0.00    +0.000 S 
ATOM     27  C   UNL     1      54.069   2.465  17.940  0.00  0.00    +0.000 A 
ATOM     28  N   UNL     1      54.875   1.415  17.614  0.00  0.00    +0.000 NA
ATOM     29  C   UNL     1      54.246   0.362  17.224  0.00  0.00    +0.000 A 
ATOM     30  N   UNL     1      52.880   0.253  17.127  0.00  0.00    +0.000 N 
ATOM     31  C   UNL     1      52.027   1.273  17.480  0.00  0.00    +0.000 A 
ATOM     32  O   UNL     1      50.811   1.123  17.434  0.00  0.00    +0.000 OA
ATOM     33  C   UNL     1      52.687   2.491  17.915  0.00  0.00    +0.000 A 
ATOM     34  H   UNL     1      52.449  -0.606  16.824  0.00  0.00    +0.000 HD
ENDBRANCH  21  24
ENDBRANCH  19  20
ENDBRANCH   4  19
TORSDOF 6
ENDMDL
MODEL 5
REMARK VINA RESULT:    -6.607      2.969      9.010
REMARK INTER + INTRA:          -9.934
REMARK INTER:                  -8.638
REMARK INTRA:                  -1.296
REMARK UNBOUND:                -1.010
REMARK  Name = 
REMARK  7 active torsions:
REMARK  status: ('A' for Active; 'I' for Inactive)
REMARK    1  A    between atoms: C_1  and  N_2
REMARK    2  A    between atoms: C_6  and  C_7
REMARK    3  A    between atoms: N_9  and  C_10
REMARK    4  A    between atoms: C_10  and  C_11
REMARK    5  A    between atoms: C_14  and  C_15
REMARK    6  A    between atoms: C_15  and  N_16
REMARK    7  A    between atoms: C_17  and  C_19
REMARK                            x       y       z     vdW  Elec       q    Type
REMARK                         _______ _______ _______ _____ _____    ______ ____
ROOT
ATOM      1  C   UNL     1      49.913   8.392  15.389  0.00  0.00    +0.000 A 
ATOM      2  C   UNL     1      50.551   7.905  14.240  0.00  0.00    +0.000 A 
ATOM      3  C   UNL     1      49.849   7.749  13.038  0.00  0.00    +0.000 A 
ATOM      4  C   UNL     1      48.490   8.072  12.958  0.00  0.00    +0.000 A 
ATOM      5  C   UNL     1      47.861   8.567  14.105  0.00  0.00    +0.000 A 
ATOM      6  F   UNL     1      46.562   8.901  14.064  0.00  0.00    +0.000 F 
ATOM      7  C   UNL     1      48.555   8.728  15.307  0.00  0.00    +0.000 A 
ENDROOT
BRANCH   1   8
ATOM      8  C   UNL     1      50.690   8.563  16.671  0.00  0.00    +0.000 C 
BRANCH   8  11
ATOM      9  C   UNL     1      50.680   6.360  17.845  0.00  0.00    +0.000 C 
ATOM     10  O   UNL     1      51.515   5.848  17.107  0.00  0.00    +0.000 OA
ATOM     11  N   UNL     1      50.248   7.663  17.707  0.00  0.00    +0.000 N 
ATOM     12  H   UNL     1      49.568   7.974  18.394  0.00  0.00    +0.000 HD
BRANCH   9  18
ATOM     13  C   UNL     1      47.910   4.879  17.827  0.00  0.00    +0.000 C 
ATOM     14  N   UNL     1      48.813   5.018  18.944  0.00  0.00    +0.000 N 
ATOM     15  C   UNL     1      48.593   4.511  20.196  0.00  0.00    +0.000 A 
ATOM     16  C   UNL     1      49.688   4.885  20.934  0.00  0.00    +0.000 A 
ATOM     17  N   UNL     1      50.573   5.592  20.164  0.00  0.00    +0.000 NA
ATOM     18  C   UNL     1      50.029   5.667  18.953  0.00  0.00    +0.000 A 
ENDBRANCH   9  18
ENDBRANCH   8  11
ENDBRANCH   1   8
BRANCH   4  19
ATOM     19  C   UNL     1      47.742   7.947  11.657  0.00  0.00    +0.000 C 
BRANCH  19  20
ATOM     20  N   UNL     1      47.002   6.709  11.597  0.00  0.00    +0.000 N 
ATOM     21  C   UNL     1      45.632   6.679  11.643  0.00  0.00    +0.000 C 
ATOM     22  O   UNL     1      44.958   7.703  11.715  0.00  0.00    +0.000 OA
ATOM     23  H   UNL     1      47.524   5.851  11.739  0.00  0.00    +0.000 HD
BRANCH  21  24
ATOM     24  C   UNL     1      45.006   5.355  11.541  0.00  0.00    +0.000 A 
ATOM     25  C   UNL     1      44.329   4.822  12.630  0.00  0.00    +0.000 A 
ATOM     26  S   UNL     1      43.625   3.299  12.321  0.00  0.00    +0.000 S 
ATOM     27  C   UNL     1      44.243   3.274  10.738  0.00  0.00    +0.000 A 
ATOM     28  N   UNL     1      44.018   2.214   9.912  0.00  0.00    +0.000 NA
ATOM     29  C   UNL     1      44.567   2.317   8.752  0.00  0.00    +0.000 A 
ATOM     30  N   UNL     1      45.324   3.383   8.333  0.00  0.00    +0.000 N 
ATOM     31  C   UNL     1      45.548   4.490   9.118  0.00  0.00    +0.000 A 
ATOM     32  O   UNL     1      46.183   5.449   8.693  0.00  0.00    +0.000 OA
ATOM     33  C   UNL     1      44.960   4.419  10.445  0.00  0.00    +0.000 A 
ATOM     34  H   UNL     1      45.719   3.406   7.405  0.00  0.00    +0.000 HD
ENDBRANCH  21  24
ENDBRANCH  19  20
ENDBRANCH   4  19
TORSDOF 6
ENDMDL
MODEL 6
REMARK VINA RESULT:    -6.539      2.921      8.817
REMARK INTER + INTRA:          -9.842
REMARK INTER:                  -8.845
REMARK INTRA:                  -0.997
REMARK UNBOUND:                -1.010
REMARK  Name = 
REMARK  7 active torsions:
REMARK  status: ('A' for Active; 'I' for Inactive)
REMARK    1  A    between atoms: C_1  and  N_2
REMARK    2  A    between atoms: C_6  and  C_7
REMARK    3  A    between atoms: N_9  and  C_10
REMARK    4  A    between atoms: C_10  and  C_11
REMARK    5  A    between atoms: C_14  and  C_15
REMARK    6  A    between atoms: C_15  and  N_16
REMARK    7  A    between atoms: C_17  and  C_19
REMARK                            x       y       z     vdW  Elec       q    Type
REMARK                         _______ _______ _______ _____ _____    ______ ____
ROOT
ATOM      1  C   UNL     1      48.098   7.625  14.226  0.00  0.00    +0.000 A 
ATOM      2  C   UNL     1      48.092   6.399  13.546  0.00  0.00    +0.000 A 
ATOM      3  C   UNL     1      47.142   6.132  12.552  0.00  0.00    +0.000 A 
ATOM      4  C   UNL     1      46.172   7.083  12.218  0.00  0.00    +0.000 A 
ATOM      5  C   UNL     1      46.189   8.309  12.893  0.00  0.00    +0.000 A 
ATOM      6  F   UNL     1      45.283   9.251  12.591  0.00  0.00    +0.000 F 
ATOM      7  C   UNL     1      47.135   8.583  13.884  0.00  0.00    +0.000 A 
ENDROOT
BRANCH   1   8
ATOM      8  C   UNL     1      49.137   7.897  15.286  0.00  0.00    +0.000 C 
BRANCH   8  11
ATOM      9  C   UNL     1      49.354   6.156  17.061  0.00  0.00    +0.000 C 
ATOM     10  O   UNL     1      48.508   6.655  17.797  0.00  0.00    +0.000 OA
ATOM     11  N   UNL     1      49.695   6.687  15.835  0.00  0.00    +0.000 N 
ATOM     12  H   UNL     1      50.395   6.168  15.313  0.00  0.00    +0.000 HD
BRANCH   9  18
ATOM     13  C   UNL     1      48.375   3.174  16.927  0.00  0.00    +0.000 C 
ATOM     14  N   UNL     1      49.681   3.643  17.323  0.00  0.00    +0.000 N 
ATOM     15  C   UNL     1      50.717   2.835  17.709  0.00  0.00    +0.000 A 
ATOM     16  C   UNL     1      51.749   3.691  18.005  0.00  0.00    +0.000 A 
ATOM     17  N   UNL     1      51.375   4.992  17.796  0.00  0.00    +0.000 NA
ATOM     18  C   UNL     1      50.112   4.950  17.382  0.00  0.00    +0.000 A 
ENDBRANCH   9  18
ENDBRANCH   8  11
ENDBRANCH   1   8
BRANCH   4  19
ATOM     19  C   UNL     1      45.175   6.817  11.121  0.00  0.00    +0.000 C 
BRANCH  19  20
ATOM     20  N   UNL     1      45.444   5.560  10.465  0.00  0.00    +0.000 N 
ATOM     21  C   UNL     1      44.437   4.720  10.064  0.00  0.00    +0.000 C 
ATOM     22  O   UNL     1      43.252   5.000  10.221  0.00  0.00    +0.000 OA
ATOM     23  H   UNL     1      46.396   5.213  10.502  0.00  0.00    +0.000 HD
BRANCH  21  24
ATOM     24  C   UNL     1      44.850   3.488   9.381  0.00  0.00    +0.000 A 
ATOM     25  C   UNL     1      44.228   2.285   9.684  0.00  0.00    +0.000 A 
ATOM     26  S   UNL     1      44.800   0.966   8.763  0.00  0.00    +0.000 S 
ATOM     27  C   UNL     1      45.934   1.947   7.964  0.00  0.00    +0.000 A 
ATOM     28  N   UNL     1      46.781   1.426   7.032  0.00  0.00    +0.000 NA
ATOM     29  C   UNL     1      47.605   2.277   6.527  0.00  0.00    +0.000 A 
ATOM     30  N   UNL     1      47.666   3.607   6.863  0.00  0.00    +0.000 N 
ATOM     31  C   UNL     1      46.807   4.184   7.769  0.00  0.00    +0.000 A 
ATOM     32  O   UNL     1      46.852   5.386   8.005  0.00  0.00    +0.000 OA
ATOM     33  C   UNL     1      45.864   3.264   8.381  0.00  0.00    +0.000 A 
ATOM     34  H   UNL     1      48.330   4.223   6.420  0.00  0.00    +0.000 HD
ENDBRANCH  21  24
ENDBRANCH  19  20
ENDBRANCH   4  19
TORSDOF 6
ENDMDL
MODEL 7
REMARK VINA RESULT:    -6.491      2.227      3.671
REMARK INTER + INTRA:          -9.778
REMARK INTER:                  -9.359
REMARK INTRA:                  -0.419
REMARK UNBOUND:                -1.010
REMARK  Name = 
REMARK  7 active torsions:
REMARK  status: ('A' for Active; 'I' for Inactive)
REMARK    1  A    between atoms: C_1  and  N_2
REMARK    2  A    between atoms: C_6  and  C_7
REMARK    3  A    between atoms: N_9  and  C_10
REMARK    4  A    between atoms: C_10  and  C_11
REMARK    5  A    between atoms: C_14  and  C_15
REMARK    6  A    between atoms: C_15  and  N_16
REMARK    7  A    between atoms: C_17  and  C_19
REMARK                            x       y       z     vdW  Elec       q    Type
REMARK                         _______ _______ _______ _____ _____    ______ ____
ROOT
ATOM      1  C   UNL     1      44.491   4.447  10.843  0.00  0.00    +0.000 A 
ATOM      2  C   UNL     1      44.997   3.310  11.486  0.00  0.00    +0.000 A 
ATOM      3  C   UNL     1      45.651   3.413  12.721  0.00  0.00    +0.000 A 
ATOM      4  C   UNL     1      45.818   4.657  13.339  0.00  0.00    +0.000 A 
ATOM      5  C   UNL     1      45.301   5.787  12.697  0.00  0.00    +0.000 A 
ATOM      6  F   UNL     1      45.429   6.996  13.265  0.00  0.00    +0.000 F 
ATOM      7  C   UNL     1      44.646   5.692  11.466  0.00  0.00    +0.000 A 
ENDROOT
BRANCH   1   8
ATOM      8  C   UNL     1      43.781   4.314   9.518  0.00  0.00    +0.000 C 
BRANCH   8  11
ATOM      9  C   UNL     1      45.794   4.226   8.045  0.00  0.00    +0.000 C 
ATOM     10  O   UNL     1      46.280   5.267   8.475  0.00  0.00    +0.000 OA
ATOM     11  N   UNL     1      44.607   3.699   8.509  0.00  0.00    +0.000 N 
ATOM     12  H   UNL     1      44.322   2.821   8.085  0.00  0.00    +0.000 HD
BRANCH   9  18
ATOM     13  C   UNL     1      46.400   1.144   8.093  0.00  0.00    +0.000 C 
ATOM     14  N   UNL     1      46.659   2.064   7.012  0.00  0.00    +0.000 N 
ATOM     15  C   UNL     1      47.221   1.720   5.812  0.00  0.00    +0.000 A 
ATOM     16  C   UNL     1      47.291   2.892   5.099  0.00  0.00    +0.000 A 
ATOM     17  N   UNL     1      46.775   3.932   5.824  0.00  0.00    +0.000 NA
ATOM     18  C   UNL     1      46.393   3.416   6.989  0.00  0.00    +0.000 A 
ENDBRANCH   9  18
ENDBRANCH   8  11
ENDBRANCH   1   8
BRANCH   4  19
ATOM     19  C   UNL     1      46.482   4.767  14.687  0.00  0.00    +0.000 C 
BRANCH  19  20
ATOM     20  N   UNL     1      47.400   5.879  14.728  0.00  0.00    +0.000 N 
ATOM     21  C   UNL     1      48.502   5.881  15.541  0.00  0.00    +0.000 C 
ATOM     22  O   UNL     1      48.783   4.928  16.263  0.00  0.00    +0.000 OA
ATOM     23  H   UNL     1      47.092   6.748  14.304  0.00  0.00    +0.000 HD
BRANCH  21  24
ATOM     24  C   UNL     1      49.369   7.063  15.461  0.00  0.00    +0.000 A 
ATOM     25  C   UNL     1      49.795   7.691  16.624  0.00  0.00    +0.000 A 
ATOM     26  S   UNL     1      50.832   9.018  16.346  0.00  0.00    +0.000 S 
ATOM     27  C   UNL     1      50.707   8.832  14.661  0.00  0.00    +0.000 A 
ATOM     28  N   UNL     1      51.353   9.678  13.811  0.00  0.00    +0.000 NA
ATOM     29  C   UNL     1      51.148   9.437  12.563  0.00  0.00    +0.000 A 
ATOM     30  N   UNL     1      50.355   8.427  12.077  0.00  0.00    +0.000 N 
ATOM     31  C   UNL     1      49.713   7.528  12.896  0.00  0.00    +0.000 A 
ATOM     32  O   UNL     1      49.057   6.603  12.429  0.00  0.00    +0.000 OA
ATOM     33  C   UNL     1      49.900   7.763  14.318  0.00  0.00    +0.000 A 
ATOM     34  H   UNL     1      50.244   8.286  11.085  0.00  0.00    +0.000 HD
ENDBRANCH  21  24
ENDBRANCH  19  20
ENDBRANCH   4  19
TORSDOF 6
ENDMDL
MODEL 8
REMARK VINA RESULT:    -6.413      2.844      9.170
REMARK INTER + INTRA:          -9.673
REMARK INTER:                  -9.242
REMARK INTRA:                  -0.431
REMARK UNBOUND:                -1.010
REMARK  Name = 
REMARK  7 active torsions:
REMARK  status: ('A' for Active; 'I' for Inactive)
REMARK    1  A    between atoms: C_1  and  N_2
REMARK    2  A    between atoms: C_6  and  C_7
REMARK    3  A    between atoms: N_9  and  C_10
REMARK    4  A    between atoms: C_10  and  C_11
REMARK    5  A    between atoms: C_14  and  C_15
REMARK    6  A    between atoms: C_15  and  N_16
REMARK    7  A    between atoms: C_17  and  C_19
REMARK                            x       y       z     vdW  Elec       q    Type
REMARK                         _______ _______ _______ _____ _____    ______ ____
ROOT
ATOM      1  C   UNL     1      46.964   7.066  13.374  0.00  0.00    +0.000 A 
ATOM      2  C   UNL     1      46.932   5.671  13.245  0.00  0.00    +0.000 A 
ATOM      3  C   UNL     1      46.062   5.052  12.338  0.00  0.00    +0.000 A 
ATOM      4  C   UNL     1      45.200   5.814  11.541  0.00  0.00    +0.000 A 
ATOM      5  C   UNL     1      45.244   7.207  11.668  0.00  0.00    +0.000 A 
ATOM      6  F   UNL     1      44.442   7.973  10.912  0.00  0.00    +0.000 F 
ATOM      7  C   UNL     1      46.110   7.831  12.569  0.00  0.00    +0.000 A 
ENDROOT
BRANCH   1   8
ATOM      8  C   UNL     1      47.915   7.714  14.350  0.00  0.00    +0.000 C 
BRANCH   8  11
ATOM      9  C   UNL     1      49.480   6.495  15.866  0.00  0.00    +0.000 C 
ATOM     10  O   UNL     1      50.495   6.882  15.296  0.00  0.00    +0.000 OA
ATOM     11  N   UNL     1      48.209   6.866  15.478  0.00  0.00    +0.000 N 
ATOM     12  H   UNL     1      47.453   6.494  16.045  0.00  0.00    +0.000 HD
BRANCH   9  18
ATOM     13  C   UNL     1      50.063   7.200  18.871  0.00  0.00    +0.000 C 
ATOM     14  N   UNL     1      49.733   5.903  18.331  0.00  0.00    +0.000 N 
ATOM     15  C   UNL     1      49.620   4.755  19.068  0.00  0.00    +0.000 A 
ATOM     16  C   UNL     1      49.309   3.774  18.160  0.00  0.00    +0.000 A 
ATOM     17  N   UNL     1      49.215   4.294  16.897  0.00  0.00    +0.000 NA
ATOM     18  C   UNL     1      49.476   5.593  17.013  0.00  0.00    +0.000 A 
ENDBRANCH   9  18
ENDBRANCH   8  11
ENDBRANCH   1   8
BRANCH   4  19
ATOM     19  C   UNL     1      44.294   5.156  10.534  0.00  0.00    +0.000 C 
BRANCH  19  20
ATOM     20  N   UNL     1      45.024   4.230   9.702  0.00  0.00    +0.000 N 
ATOM     21  C   UNL     1      44.678   2.907   9.612  0.00  0.00    +0.000 C 
ATOM     22  O   UNL     1      43.717   2.440  10.217  0.00  0.00    +0.000 OA
ATOM     23  H   UNL     1      45.928   4.534   9.355  0.00  0.00    +0.000 HD
BRANCH  21  24
ATOM     24  C   UNL     1      45.486   2.083   8.704  0.00  0.00    +0.000 A 
ATOM     25  C   UNL     1      45.411   0.698   8.771  0.00  0.00    +0.000 A 
ATOM     26  S   UNL     1      46.380  -0.098   7.613  0.00  0.00    +0.000 S 
ATOM     27  C   UNL     1      46.974   1.378   7.016  0.00  0.00    +0.000 A 
ATOM     28  N   UNL     1      47.883   1.411   6.002  0.00  0.00    +0.000 NA
ATOM     29  C   UNL     1      48.266   2.594   5.669  0.00  0.00    +0.000 A 
ATOM     30  N   UNL     1      47.827   3.756   6.254  0.00  0.00    +0.000 N 
ATOM     31  C   UNL     1      46.884   3.773   7.255  0.00  0.00    +0.000 A 
ATOM     32  O   UNL     1      46.473   4.832   7.718  0.00  0.00    +0.000 OA
ATOM     33  C   UNL     1      46.427   2.461   7.679  0.00  0.00    +0.000 A 
ATOM     34  H   UNL     1      48.161   4.654   5.938  0.00  0.00    +0.000 HD
ENDBRANCH  21  24
ENDBRANCH  19  20
ENDBRANCH   4  19
TORSDOF 6
ENDMDL
MODEL 9
REMARK VINA RESULT:    -6.176      2.519      3.564
REMARK INTER + INTRA:          -9.353
REMARK INTER:                  -8.326
REMARK INTRA:                  -1.027
REMARK UNBOUND:                -1.010
REMARK  Name = 
REMARK  7 active torsions:
REMARK  status: ('A' for Active; 'I' for Inactive)
REMARK    1  A    between atoms: C_1  and  N_2
REMARK    2  A    between atoms: C_6  and  C_7
REMARK    3  A    between atoms: N_9  and  C_10
REMARK    4  A    between atoms: C_10  and  C_11
REMARK    5  A    between atoms: C_14  and  C_15
REMARK    6  A    between atoms: C_15  and  N_16
REMARK    7  A    between atoms: C_17  and  C_19
REMARK                            x       y       z     vdW  Elec       q    Type
REMARK                         _______ _______ _______ _____ _____    ______ ____
ROOT
ATOM      1  C   UNL     1      46.222   8.022  12.032  0.00  0.00    +0.000 A 
ATOM      2  C   UNL     1      47.272   7.101  12.145  0.00  0.00    +0.000 A 
ATOM      3  C   UNL     1      48.543   7.507  12.571  0.00  0.00    +0.000 A 
ATOM      4  C   UNL     1      48.795   8.846  12.890  0.00  0.00    +0.000 A 
ATOM      5  C   UNL     1      47.740   9.759  12.784  0.00  0.00    +0.000 A 
ATOM      6  F   UNL     1      47.938  11.049  13.095  0.00  0.00    +0.000 F 
ATOM      7  C   UNL     1      46.469   9.361  12.362  0.00  0.00    +0.000 A 
ENDROOT
BRANCH   1   8
ATOM      8  C   UNL     1      44.857   7.561  11.580  0.00  0.00    +0.000 C 
BRANCH   8  11
ATOM      9  C   UNL     1      43.810   5.507  10.625  0.00  0.00    +0.000 C 
ATOM     10  O   UNL     1      42.670   5.805  10.968  0.00  0.00    +0.000 OA
ATOM     11  N   UNL     1      44.905   6.308  10.869  0.00  0.00    +0.000 N 
ATOM     12  H   UNL     1      45.791   5.958  10.516  0.00  0.00    +0.000 HD
BRANCH   9  18
ATOM     13  C   UNL     1      43.471   2.555  11.643  0.00  0.00    +0.000 C 
ATOM     14  N   UNL     1      44.012   2.980  10.375  0.00  0.00    +0.000 N 
ATOM     15  C   UNL     1      44.469   2.136   9.398  0.00  0.00    +0.000 A 
ATOM     16  C   UNL     1      44.897   2.957   8.385  0.00  0.00    +0.000 A 
ATOM     17  N   UNL     1      44.700   4.272   8.711  0.00  0.00    +0.000 NA
ATOM     18  C   UNL     1      44.161   4.274   9.926  0.00  0.00    +0.000 A 
ENDBRANCH   9  18
ENDBRANCH   8  11
ENDBRANCH   1   8
BRANCH   4  19
ATOM     19  C   UNL     1      50.148   9.280  13.389  0.00  0.00    +0.000 C 
BRANCH  19  20
ATOM     20  N   UNL     1      50.491   8.607  14.618  0.00  0.00    +0.000 N 
ATOM     21  C   UNL     1      51.722   8.035  14.813  0.00  0.00    +0.000 C 
ATOM     22  O   UNL     1      52.606   8.082  13.963  0.00  0.00    +0.000 OA
ATOM     23  H   UNL     1      49.730   8.378  15.249  0.00  0.00    +0.000 HD
BRANCH  21  24
ATOM     24  C   UNL     1      51.949   7.409  16.122  0.00  0.00    +0.000 A 
ATOM     25  C   UNL     1      53.126   7.657  16.815  0.00  0.00    +0.000 A 
ATOM     26  S   UNL     1      53.202   6.888  18.336  0.00  0.00    +0.000 S 
ATOM     27  C   UNL     1      51.688   6.154  18.101  0.00  0.00    +0.000 A 
ATOM     28  N   UNL     1      51.154   5.326  19.042  0.00  0.00    +0.000 NA
ATOM     29  C   UNL     1      50.014   4.820  18.721  0.00  0.00    +0.000 A 
ATOM     30  N   UNL     1      49.351   5.061  17.543  0.00  0.00    +0.000 N 
ATOM     31  C   UNL     1      49.834   5.917  16.581  0.00  0.00    +0.000 A 
ATOM     32  O   UNL     1      49.190   6.152  15.564  0.00  0.00    +0.000 OA
ATOM     33  C   UNL     1      51.125   6.506  16.887  0.00  0.00    +0.000 A 
ATOM     34  H   UNL     1      48.454   4.639  17.358  0.00  0.00    +0.000 HD
ENDBRANCH  21  24
ENDBRANCH  19  20
ENDBRANCH   4  19
TORSDOF 6
ENDMDL
