MODEL 1
REMARK VINA RESULT:    -7.900      0.000      0.000
REMARK INTER + INTRA:         -11.580
REMARK INTER:                 -10.671
REMARK INTRA:                  -0.910
REMARK UNBOUND:                -0.910
REMARK  Name = 
REMARK  6 active torsions:
REMARK  status: ('A' for Active; 'I' for Inactive)
REMARK    1  A    between atoms: C_2  and  C_19
REMARK    2  A    between atoms: N_3  and  C_4
REMARK    3  A    between atoms: C_4  and  C_5
REMARK    4  A    between atoms: C_8  and  C_9
REMARK    5  A    between atoms: C_9  and  N_10
REMARK    6  A    between atoms: N_10  and  C_11
REMARK                            x       y       z     vdW  Elec       q    Type
REMARK                         _______ _______ _______ _____ _____    ______ ____
ROOT
ATOM      1  C   UNL     1      47.939   7.207  13.787  0.00  0.00    +0.000 C 
ENDROOT
BRANCH   1   2
ATOM      2  C   UNL     1      46.899   6.444  12.996  0.00  0.00    +0.000 A 
ATOM      3  C   UNL     1      46.463   5.176  13.405  0.00  0.00    +0.000 A 
ATOM      4  C   UNL     1      45.564   4.446  12.620  0.00  0.00    +0.000 A 
ATOM      5  C   UNL     1      45.102   4.958  11.397  0.00  0.00    +0.000 A 
ATOM      6  C   UNL     1      45.532   6.232  10.998  0.00  0.00    +0.000 A 
ATOM      7  C   UNL     1      46.427   6.959  11.785  0.00  0.00    +0.000 A 
BRANCH   5   8
ATOM      8  C   UNL     1      44.171   4.151  10.523  0.00  0.00    +0.000 C 
BRANCH   8   9
ATOM      9  N   UNL     1      44.503   4.351   9.117  0.00  0.00    +0.000 N 
ATOM     10  H   UNL     1      44.817   5.303   8.932  0.00  0.00    +0.000 HD
BRANCH   9  11
ATOM     11  C   UNL     1      45.286   3.392   8.473  0.00  0.00    +0.000 A 
ATOM     12  C   UNL     1      46.225   3.647   7.482  0.00  0.00    +0.000 A 
ATOM     13  N   UNL     1      47.040   2.724   6.920  0.00  0.00    +0.000 NA
ATOM     14  C   UNL     1      46.927   1.482   7.407  0.00  0.00    +0.000 A 
ATOM     15  N   UNL     1      46.096   1.094   8.382  0.00  0.00    +0.000 NA
ATOM     16  C   UNL     1      45.312   2.072   8.899  0.00  0.00    +0.000 A 
ENDBRANCH   9  11
ENDBRANCH   8   9
ENDBRANCH   5   8
ENDBRANCH   1   2
BRANCH   1  19
ATOM     17  O   UNL     1      48.479   8.159  16.455  0.00  0.00    +0.000 OA
ATOM     18  C   UNL     1      48.678   6.993  16.142  0.00  0.00    +0.000 C 
ATOM     19  N   UNL     1      48.324   6.427  14.934  0.00  0.00    +0.000 N 
ATOM     20  H   UNL     1      48.726   5.534  14.710  0.00  0.00    +0.000 HD
BRANCH  18  21
ATOM     21  C   UNL     1      49.512   6.082  16.919  0.00  0.00    +0.000 A 
ATOM     22  C   UNL     1      50.723   6.462  17.477  0.00  0.00    +0.000 A 
ATOM     23  S   UNL     1      51.721   5.100  17.800  0.00  0.00    +0.000 S 
ATOM     24  C   UNL     1      50.491   4.013  17.329  0.00  0.00    +0.000 A 
ATOM     25  N   UNL     1      50.696   2.677  17.201  0.00  0.00    +0.000 NA
ATOM     26  C   UNL     1      49.644   2.002  16.878  0.00  0.00    +0.000 A 
ATOM     27  N   UNL     1      48.383   2.536  16.731  0.00  0.00    +0.000 N 
ATOM     28  C   UNL     1      48.117   3.878  16.871  0.00  0.00    +0.000 A 
ATOM     29  O   UNL     1      46.983   4.325  16.804  0.00  0.00    +0.000 OA
ATOM     30  C   UNL     1      49.306   4.674  17.093  0.00  0.00    +0.000 A 
ATOM     31  H   UNL     1      47.581   1.941  16.571  0.00  0.00    +0.000 HD
ENDBRANCH  18  21
ENDBRANCH   1  19
TORSDOF 6
ENDMDL
MODEL 2
REMARK VINA RESULT:    -7.892      1.450      1.810
REMARK INTER + INTRA:         -11.570
REMARK INTER:                 -10.649
REMARK INTRA:                  -0.921
REMARK UNBOUND:                -0.910
REMARK  Name = 
REMARK  6 active torsions:
REMARK  status: ('A' for Active; 'I' for Inactive)
REMARK    1  A    between atoms: C_2  and  C_19
REMARK    2  A    between atoms: N_3  and  C_4
REMARK    3  A    between atoms: C_4  and  C_5
REMARK    4  A    between atoms: C_8  and  C_9
REMARK    5  A    between atoms: C_9  and  N_10
REMARK    6  A    between atoms: N_10  and  C_11
REMARK                            x       y       z     vdW  Elec       q    Type
REMARK                         _______ _______ _______ _____ _____    ______ ____
ROOT
ATOM      1  C   UNL     1      48.363   6.585  13.305  0.00  0.00    +0.000 C 
ENDROOT
BRANCH   1   2
ATOM      2  C   UNL     1      47.110   6.091  12.615  0.00  0.00    +0.000 A 
ATOM      3  C   UNL     1      46.396   4.990  13.108  0.00  0.00    +0.000 A 
ATOM      4  C   UNL     1      45.288   4.492  12.414  0.00  0.00    +0.000 A 
ATOM      5  C   UNL     1      44.886   5.069  11.199  0.00  0.00    +0.000 A 
ATOM      6  C   UNL     1      45.596   6.178  10.715  0.00  0.00    +0.000 A 
ATOM      7  C   UNL     1      46.700   6.673  11.412  0.00  0.00    +0.000 A 
BRANCH   5   8
ATOM      8  C   UNL     1      43.722   4.502  10.422  0.00  0.00    +0.000 C 
BRANCH   8   9
ATOM      9  N   UNL     1      44.064   4.400   9.007  0.00  0.00    +0.000 N 
ATOM     10  H   UNL     1      44.226   5.315   8.589  0.00  0.00    +0.000 HD
BRANCH   9  11
ATOM     11  C   UNL     1      45.012   3.455   8.616  0.00  0.00    +0.000 A 
ATOM     12  C   UNL     1      45.022   2.116   8.987  0.00  0.00    +0.000 A 
ATOM     13  N   UNL     1      45.897   1.186   8.539  0.00  0.00    +0.000 NA
ATOM     14  C   UNL     1      46.791   1.620   7.642  0.00  0.00    +0.000 A 
ATOM     15  N   UNL     1      46.882   2.868   7.165  0.00  0.00    +0.000 NA
ATOM     16  C   UNL     1      45.972   3.745   7.657  0.00  0.00    +0.000 A 
ENDBRANCH   9  11
ENDBRANCH   8   9
ENDBRANCH   5   8
ENDBRANCH   1   2
BRANCH   1  19
ATOM     17  O   UNL     1      50.232   7.219  15.406  0.00  0.00    +0.000 OA
ATOM     18  C   UNL     1      49.051   7.008  15.647  0.00  0.00    +0.000 C 
ATOM     19  N   UNL     1      48.070   6.831  14.693  0.00  0.00    +0.000 N 
ATOM     20  H   UNL     1      47.191   6.455  15.003  0.00  0.00    +0.000 HD
BRANCH  18  21
ATOM     21  C   UNL     1      48.543   6.701  16.980  0.00  0.00    +0.000 A 
ATOM     22  C   UNL     1      48.341   7.671  17.949  0.00  0.00    +0.000 A 
ATOM     23  S   UNL     1      48.319   6.988  19.526  0.00  0.00    +0.000 S 
ATOM     24  C   UNL     1      48.438   5.402  18.905  0.00  0.00    +0.000 A 
ATOM     25  N   UNL     1      48.628   4.313  19.694  0.00  0.00    +0.000 NA
ATOM     26  C   UNL     1      48.651   3.189  19.059  0.00  0.00    +0.000 A 
ATOM     27  N   UNL     1      48.437   3.048  17.705  0.00  0.00    +0.000 N 
ATOM     28  C   UNL     1      48.218   4.115  16.866  0.00  0.00    +0.000 A 
ATOM     29  O   UNL     1      47.964   3.967  15.681  0.00  0.00    +0.000 OA
ATOM     30  C   UNL     1      48.330   5.395  17.532  0.00  0.00    +0.000 A 
ATOM     31  H   UNL     1      48.373   2.132  17.282  0.00  0.00    +0.000 HD
ENDBRANCH  18  21
ENDBRANCH   1  19
TORSDOF 6
ENDMDL
MODEL 3
REMARK VINA RESULT:    -7.256      3.193      8.352
REMARK INTER + INTRA:         -10.711
REMARK INTER:                  -9.838
REMARK INTRA:                  -0.872
REMARK UNBOUND:                -0.910
REMARK  Name = 
REMARK  6 active torsions:
REMARK  status: ('A' for Active; 'I' for Inactive)
REMARK    1  A    between atoms: C_2  and  C_19
REMARK    2  A    between atoms: N_3  and  C_4
REMARK    3  A    between atoms: C_4  and  C_5
REMARK    4  A    between atoms: C_8  and  C_9
REMARK    5  A    between atoms: C_9  and  N_10
REMARK    6  A    between atoms: N_10  and  C_11
REMARK                            x       y       z     vdW  Elec       q    Type
REMARK                         _______ _______ _______ _____ _____    ______ ____
ROOT
ATOM      1  C   UNL     1      47.649   6.776  12.782  0.00  0.00    +0.000 C 
ENDROOT
BRANCH   1   2
ATOM      2  C   UNL     1      47.779   6.181  14.166  0.00  0.00    +0.000 A 
ATOM      3  C   UNL     1      48.620   6.757  15.128  0.00  0.00    +0.000 A 
ATOM      4  C   UNL     1      48.796   6.148  16.376  0.00  0.00    +0.000 A 
ATOM      5  C   UNL     1      48.153   4.938  16.679  0.00  0.00    +0.000 A 
ATOM      6  C   UNL     1      47.302   4.371  15.718  0.00  0.00    +0.000 A 
ATOM      7  C   UNL     1      47.128   4.982  14.475  0.00  0.00    +0.000 A 
BRANCH   5   8
ATOM      8  C   UNL     1      48.379   4.253  18.006  0.00  0.00    +0.000 C 
BRANCH   8   9
ATOM      9  N   UNL     1      49.772   4.398  18.414  0.00  0.00    +0.000 N 
ATOM     10  H   UNL     1      49.855   4.652  19.398  0.00  0.00    +0.000 HD
BRANCH   9  11
ATOM     11  C   UNL     1      50.686   3.415  18.034  0.00  0.00    +0.000 A 
ATOM     12  C   UNL     1      52.028   3.376  18.389  0.00  0.00    +0.000 A 
ATOM     13  N   UNL     1      52.889   2.377  18.085  0.00  0.00    +0.000 NA
ATOM     14  C   UNL     1      52.361   1.344  17.416  0.00  0.00    +0.000 A 
ATOM     15  N   UNL     1      51.083   1.225  17.038  0.00  0.00    +0.000 NA
ATOM     16  C   UNL     1      50.278   2.262  17.378  0.00  0.00    +0.000 A 
ENDBRANCH   9  11
ENDBRANCH   8   9
ENDBRANCH   5   8
ENDBRANCH   1   2
BRANCH   1  19
ATOM     17  O   UNL     1      45.294   7.530  11.299  0.00  0.00    +0.000 OA
ATOM     18  C   UNL     1      45.632   6.359  11.406  0.00  0.00    +0.000 C 
ATOM     19  N   UNL     1      46.809   5.925  11.979  0.00  0.00    +0.000 N 
ATOM     20  H   UNL     1      46.879   4.948  12.202  0.00  0.00    +0.000 HD
BRANCH  18  21
ATOM     21  C   UNL     1      44.742   5.235  11.131  0.00  0.00    +0.000 A 
ATOM     22  C   UNL     1      43.718   4.861  11.987  0.00  0.00    +0.000 A 
ATOM     23  S   UNL     1      43.248   3.228  11.729  0.00  0.00    +0.000 S 
ATOM     24  C   UNL     1      44.305   3.073  10.398  0.00  0.00    +0.000 A 
ATOM     25  N   UNL     1      44.544   1.888   9.779  0.00  0.00    +0.000 NA
ATOM     26  C   UNL     1      45.338   1.964   8.763  0.00  0.00    +0.000 A 
ATOM     27  N   UNL     1      45.869   3.134   8.268  0.00  0.00    +0.000 N 
ATOM     28  C   UNL     1      45.642   4.363   8.844  0.00  0.00    +0.000 A 
ATOM     29  O   UNL     1      46.065   5.398   8.353  0.00  0.00    +0.000 OA
ATOM     30  C   UNL     1      44.871   4.284  10.066  0.00  0.00    +0.000 A 
ATOM     31  H   UNL     1      46.407   3.140   7.412  0.00  0.00    +0.000 HD
ENDBRANCH  18  21
ENDBRANCH   1  19
TORSDOF 6
ENDMDL
MODEL 4
REMARK VINA RESULT:    -7.256      2.500      4.297
REMARK INTER + INTRA:         -10.711
REMARK INTER:                  -9.872
REMARK INTRA:                  -0.838
REMARK UNBOUND:                -0.910
REMARK  Name = 
REMARK  6 active torsions:
REMARK  status: ('A' for Active; 'I' for Inactive)
REMARK    1  A    between atoms: C_2  and  C_19
REMARK    2  A    between atoms: N_3  and  C_4
REMARK    3  A    between atoms: C_4  and  C_5
REMARK    4  A    between atoms: C_8  and  C_9
REMARK    5  A    between atoms: C_9  and  N_10
REMARK    6  A    between atoms: N_10  and  C_11
REMARK                            x       y       z     vdW  Elec       q    Type
REMARK                         _______ _______ _______ _____ _____    ______ ____
ROOT
ATOM      1  C   UNL     1      47.142   5.147  14.613  0.00  0.00    +0.000 C 
ENDROOT
BRANCH   1   2
ATOM      2  C   UNL     1      46.428   4.857  13.311  0.00  0.00    +0.000 A 
ATOM      3  C   UNL     1      46.275   5.848  12.331  0.00  0.00    +0.000 A 
ATOM      4  C   UNL     1      45.540   5.591  11.169  0.00  0.00    +0.000 A 
ATOM      5  C   UNL     1      44.922   4.346  10.973  0.00  0.00    +0.000 A 
ATOM      6  C   UNL     1      45.088   3.354  11.950  0.00  0.00    +0.000 A 
ATOM      7  C   UNL     1      45.823   3.613  13.109  0.00  0.00    +0.000 A 
BRANCH   5   8
ATOM      8  C   UNL     1      44.086   4.083   9.743  0.00  0.00    +0.000 C 
BRANCH   8   9
ATOM      9  N   UNL     1      44.859   4.368   8.540  0.00  0.00    +0.000 N 
ATOM     10  H   UNL     1      45.320   5.276   8.591  0.00  0.00    +0.000 HD
BRANCH   9  11
ATOM     11  C   UNL     1      45.690   3.371   8.029  0.00  0.00    +0.000 A 
ATOM     12  C   UNL     1      46.766   3.573   7.173  0.00  0.00    +0.000 A 
ATOM     13  N   UNL     1      47.618   2.613   6.746  0.00  0.00    +0.000 NA
ATOM     14  C   UNL     1      47.396   1.386   7.235  0.00  0.00    +0.000 A 
ATOM     15  N   UNL     1      46.425   1.047   8.092  0.00  0.00    +0.000 NA
ATOM     16  C   UNL     1      45.611   2.061   8.477  0.00  0.00    +0.000 A 
ENDBRANCH   9  11
ENDBRANCH   8   9
ENDBRANCH   5   8
ENDBRANCH   1   2
BRANCH   1  19
ATOM     17  O   UNL     1      49.486   5.868  16.130  0.00  0.00    +0.000 OA
ATOM     18  C   UNL     1      49.000   6.631  15.306  0.00  0.00    +0.000 C 
ATOM     19  N   UNL     1      47.967   6.315  14.448  0.00  0.00    +0.000 N 
ATOM     20  H   UNL     1      47.514   7.077  13.974  0.00  0.00    +0.000 HD
BRANCH  18  21
ATOM     21  C   UNL     1      49.301   8.058  15.256  0.00  0.00    +0.000 A 
ATOM     22  C   UNL     1      49.449   8.836  16.393  0.00  0.00    +0.000 A 
ATOM     23  S   UNL     1      49.207  10.503  16.050  0.00  0.00    +0.000 S 
ATOM     24  C   UNL     1      49.046  10.196  14.379  0.00  0.00    +0.000 A 
ATOM     25  N   UNL     1      48.668  11.148  13.487  0.00  0.00    +0.000 NA
ATOM     26  C   UNL     1      48.640  10.750  12.258  0.00  0.00    +0.000 A 
ATOM     27  N   UNL     1      49.020   9.497  11.830  0.00  0.00    +0.000 N 
ATOM     28  C   UNL     1      49.432   8.505  12.689  0.00  0.00    +0.000 A 
ATOM     29  O   UNL     1      49.829   7.423  12.287  0.00  0.00    +0.000 OA
ATOM     30  C   UNL     1      49.335   8.883  14.083  0.00  0.00    +0.000 A 
ATOM     31  H   UNL     1      49.067   9.277  10.845  0.00  0.00    +0.000 HD
ENDBRANCH  18  21
ENDBRANCH   1  19
TORSDOF 6
ENDMDL
MODEL 5
REMARK VINA RESULT:    -7.210      2.216      3.112
REMARK INTER + INTRA:         -10.649
REMARK INTER:                  -9.700
REMARK INTRA:                  -0.949
REMARK UNBOUND:                -0.910
REMARK  Name = 
REMARK  6 active torsions:
REMARK  status: ('A' for Active; 'I' for Inactive)
REMARK    1  A    between atoms: C_2  and  C_19
REMARK    2  A    between atoms: N_3  and  C_4
REMARK    3  A    between atoms: C_4  and  C_5
REMARK    4  A    between atoms: C_8  and  C_9
REMARK    5  A    between atoms: C_9  and  N_10
REMARK    6  A    between atoms: N_10  and  C_11
REMARK                            x       y       z     vdW  Elec       q    Type
REMARK                         _______ _______ _______ _____ _____    ______ ____
ROOT
ATOM      1  C   UNL     1      48.006   7.700  13.654  0.00  0.00    +0.000 C 
ENDROOT
BRANCH   1   2
ATOM      2  C   UNL     1      46.914   6.950  12.925  0.00  0.00    +0.000 A 
ATOM      3  C   UNL     1      45.942   7.629  12.176  0.00  0.00    +0.000 A 
ATOM      4  C   UNL     1      44.889   6.931  11.576  0.00  0.00    +0.000 A 
ATOM      5  C   UNL     1      44.771   5.541  11.733  0.00  0.00    +0.000 A 
ATOM      6  C   UNL     1      45.752   4.863  12.472  0.00  0.00    +0.000 A 
ATOM      7  C   UNL     1      46.802   5.564  13.068  0.00  0.00    +0.000 A 
BRANCH   5   8
ATOM      8  C   UNL     1      43.607   4.790  11.129  0.00  0.00    +0.000 C 
BRANCH   8   9
ATOM      9  N   UNL     1      43.768   4.695   9.682  0.00  0.00    +0.000 N 
ATOM     10  H   UNL     1      43.884   5.612   9.252  0.00  0.00    +0.000 HD
BRANCH   9  11
ATOM     11  C   UNL     1      44.652   3.746   9.170  0.00  0.00    +0.000 A 
ATOM     12  C   UNL     1      44.589   2.377   9.396  0.00  0.00    +0.000 A 
ATOM     13  N   UNL     1      45.400   1.452   8.830  0.00  0.00    +0.000 NA
ATOM     14  C   UNL     1      46.301   1.929   7.962  0.00  0.00    +0.000 A 
ATOM     15  N   UNL     1      46.456   3.213   7.618  0.00  0.00    +0.000 NA
ATOM     16  C   UNL     1      45.609   4.082   8.223  0.00  0.00    +0.000 A 
ENDBRANCH   9  11
ENDBRANCH   8   9
ENDBRANCH   5   8
ENDBRANCH   1   2
BRANCH   1  19
ATOM     17  O   UNL     1      50.268   6.799  15.199  0.00  0.00    +0.000 OA
ATOM     18  C   UNL     1      49.131   6.760  15.651  0.00  0.00    +0.000 C 
ATOM     19  N   UNL     1      48.018   7.292  15.035  0.00  0.00    +0.000 N 
ATOM     20  H   UNL     1      47.119   7.014  15.390  0.00  0.00    +0.000 HD
BRANCH  18  21
ATOM     21  C   UNL     1      48.753   5.959  16.810  0.00  0.00    +0.000 A 
ATOM     22  C   UNL     1      48.233   4.678  16.702  0.00  0.00    +0.000 A 
ATOM     23  S   UNL     1      47.358   4.234  18.113  0.00  0.00    +0.000 S 
ATOM     24  C   UNL     1      47.790   5.681  18.908  0.00  0.00    +0.000 A 
ATOM     25  N   UNL     1      47.264   6.052  20.104  0.00  0.00    +0.000 NA
ATOM     26  C   UNL     1      47.738   7.155  20.580  0.00  0.00    +0.000 A 
ATOM     27  N   UNL     1      48.741   7.895  19.994  0.00  0.00    +0.000 N 
ATOM     28  C   UNL     1      49.322   7.553  18.795  0.00  0.00    +0.000 A 
ATOM     29  O   UNL     1      50.256   8.183  18.324  0.00  0.00    +0.000 OA
ATOM     30  C   UNL     1      48.709   6.398  18.174  0.00  0.00    +0.000 A 
ATOM     31  H   UNL     1      49.135   8.700  20.462  0.00  0.00    +0.000 HD
ENDBRANCH  18  21
ENDBRANCH   1  19
TORSDOF 6
ENDMDL
MODEL 6
REMARK VINA RESULT:    -7.151      2.666      3.275
REMARK INTER + INTRA:         -10.569
REMARK INTER:                  -9.257
REMARK INTRA:                  -1.312
REMARK UNBOUND:                -0.910
REMARK  Name = 
REMARK  6 active torsions:
REMARK  status: ('A' for Active; 'I' for Inactive)
REMARK    1  A    between atoms: C_2  and  C_19
REMARK    2  A    between atoms: N_3  and  C_4
REMARK    3  A    between atoms: C_4  and  C_5
REMARK    4  A    between atoms: C_8  and  C_9
REMARK    5  A    between atoms: C_9  and  N_10
REMARK    6  A    between atoms: N_10  and  C_11
REMARK                            x       y       z     vdW  Elec       q    Type
REMARK                         _______ _______ _______ _____ _____    ______ ____
ROOT
ATOM      1  C   UNL     1      49.296   8.175  13.987  0.00  0.00    +0.000 C 
ENDROOT
BRANCH   1   2
ATOM      2  C   UNL     1      47.979   7.940  13.280  0.00  0.00    +0.000 A 
ATOM      3  C   UNL     1      47.876   7.028  12.221  0.00  0.00    +0.000 A 
ATOM      4  C   UNL     1      46.673   6.882  11.521  0.00  0.00    +0.000 A 
ATOM      5  C   UNL     1      45.555   7.664  11.850  0.00  0.00    +0.000 A 
ATOM      6  C   UNL     1      45.658   8.567  12.919  0.00  0.00    +0.000 A 
ATOM      7  C   UNL     1      46.860   8.708  13.616  0.00  0.00    +0.000 A 
BRANCH   5   8
ATOM      8  C   UNL     1      44.270   7.545  11.064  0.00  0.00    +0.000 C 
BRANCH   8   9
ATOM      9  N   UNL     1      43.286   6.781  11.823  0.00  0.00    +0.000 N 
ATOM     10  H   UNL     1      42.333   7.066  11.603  0.00  0.00    +0.000 HD
BRANCH   9  11
ATOM     11  C   UNL     1      43.430   5.396  11.898  0.00  0.00    +0.000 A 
ATOM     12  C   UNL     1      43.433   4.644  13.066  0.00  0.00    +0.000 A 
ATOM     13  N   UNL     1      43.491   3.294  13.128  0.00  0.00    +0.000 NA
ATOM     14  C   UNL     1      43.512   2.663  11.947  0.00  0.00    +0.000 A 
ATOM     15  N   UNL     1      43.478   3.249  10.744  0.00  0.00    +0.000 NA
ATOM     16  C   UNL     1      43.419   4.603  10.759  0.00  0.00    +0.000 A 
ENDBRANCH   9  11
ENDBRANCH   8   9
ENDBRANCH   5   8
ENDBRANCH   1   2
BRANCH   1  19
ATOM     17  O   UNL     1      51.106   6.639  15.623  0.00  0.00    +0.000 OA
ATOM     18  C   UNL     1      50.014   6.996  16.044  0.00  0.00    +0.000 C 
ATOM     19  N   UNL     1      49.149   7.841  15.380  0.00  0.00    +0.000 N 
ATOM     20  H   UNL     1      48.204   7.890  15.719  0.00  0.00    +0.000 HD
BRANCH  18  21
ATOM     21  C   UNL     1      49.373   6.411  17.217  0.00  0.00    +0.000 A 
ATOM     22  C   UNL     1      49.632   6.843  18.509  0.00  0.00    +0.000 A 
ATOM     23  S   UNL     1      49.224   5.639  19.667  0.00  0.00    +0.000 S 
ATOM     24  C   UNL     1      48.581   4.615  18.462  0.00  0.00    +0.000 A 
ATOM     25  N   UNL     1      48.190   3.339  18.711  0.00  0.00    +0.000 NA
ATOM     26  C   UNL     1      47.687   2.724  17.693  0.00  0.00    +0.000 A 
ATOM     27  N   UNL     1      47.480   3.293  16.456  0.00  0.00    +0.000 N 
ATOM     28  C   UNL     1      47.838   4.588  16.158  0.00  0.00    +0.000 A 
ATOM     29  O   UNL     1      47.586   5.098  15.077  0.00  0.00    +0.000 OA
ATOM     30  C   UNL     1      48.533   5.250  17.241  0.00  0.00    +0.000 A 
ATOM     31  H   UNL     1      46.995   2.790  15.726  0.00  0.00    +0.000 HD
ENDBRANCH  18  21
ENDBRANCH   1  19
TORSDOF 6
ENDMDL
MODEL 7
REMARK VINA RESULT:    -7.144      2.354      3.230
REMARK INTER + INTRA:         -10.559
REMARK INTER:                  -9.871
REMARK INTRA:                  -0.688
REMARK UNBOUND:                -0.910
REMARK  Name = 
REMARK  6 active torsions:
REMARK  status: ('A' for Active; 'I' for Inactive)
REMARK    1  A    between atoms: C_2  and  C_19
REMARK    2  A    between atoms: N_3  and  C_4
REMARK    3  A    between atoms: C_4  and  C_5
REMARK    4  A    between atoms: C_8  and  C_9
REMARK    5  A    between atoms: C_9  and  N_10
REMARK    6  A    between atoms: N_10  and  C_11
REMARK                            x       y       z     vdW  Elec       q    Type
REMARK                         _______ _______ _______ _____ _____    ______ ____
ROOT
ATOM      1  C   UNL     1      47.064   4.376  14.985  0.00  0.00    +0.000 C 
ENDROOT
BRANCH   1   2
ATOM      2  C   UNL     1      46.429   4.444  13.614  0.00  0.00    +0.000 A 
ATOM      3  C   UNL     1      46.304   5.663  12.932  0.00  0.00    +0.000 A 
ATOM      4  C   UNL     1      45.640   5.725  11.702  0.00  0.00    +0.000 A 
ATOM      5  C   UNL     1      45.066   4.574  11.140  0.00  0.00    +0.000 A 
ATOM      6  C   UNL     1      45.204   3.355  11.819  0.00  0.00    +0.000 A 
ATOM      7  C   UNL     1      45.869   3.296  13.046  0.00  0.00    +0.000 A 
BRANCH   5   8
ATOM      8  C   UNL     1      44.305   4.647   9.837  0.00  0.00    +0.000 C 
BRANCH   8   9
ATOM      9  N   UNL     1      44.176   3.315   9.255  0.00  0.00    +0.000 N 
ATOM     10  H   UNL     1      43.261   3.173   8.830  0.00  0.00    +0.000 HD
BRANCH   9  11
ATOM     11  C   UNL     1      45.217   2.829   8.465  0.00  0.00    +0.000 A 
ATOM     12  C   UNL     1      46.043   3.595   7.651  0.00  0.00    +0.000 A 
ATOM     13  N   UNL     1      47.103   3.129   6.951  0.00  0.00    +0.000 NA
ATOM     14  C   UNL     1      47.367   1.826   7.105  0.00  0.00    +0.000 A 
ATOM     15  N   UNL     1      46.685   0.972   7.878  0.00  0.00    +0.000 NA
ATOM     16  C   UNL     1      45.638   1.509   8.551  0.00  0.00    +0.000 A 
ENDBRANCH   9  11
ENDBRANCH   8   9
ENDBRANCH   5   8
ENDBRANCH   1   2
BRANCH   1  19
ATOM     17  O   UNL     1      49.395   4.893  16.602  0.00  0.00    +0.000 OA
ATOM     18  C   UNL     1      48.694   5.805  16.184  0.00  0.00    +0.000 C 
ATOM     19  N   UNL     1      47.646   5.655  15.300  0.00  0.00    +0.000 N 
ATOM     20  H   UNL     1      47.016   6.431  15.197  0.00  0.00    +0.000 HD
BRANCH  18  21
ATOM     21  C   UNL     1      48.730   7.161  16.723  0.00  0.00    +0.000 A 
ATOM     22  C   UNL     1      49.223   8.242  16.009  0.00  0.00    +0.000 A 
ATOM     23  S   UNL     1      49.681   9.528  17.053  0.00  0.00    +0.000 S 
ATOM     24  C   UNL     1      49.095   8.701  18.426  0.00  0.00    +0.000 A 
ATOM     25  N   UNL     1      49.297   9.141  19.695  0.00  0.00    +0.000 NA
ATOM     26  C   UNL     1      48.746   8.413  20.609  0.00  0.00    +0.000 A 
ATOM     27  N   UNL     1      47.955   7.312  20.364  0.00  0.00    +0.000 N 
ATOM     28  C   UNL     1      47.702   6.837  19.099  0.00  0.00    +0.000 A 
ATOM     29  O   UNL     1      46.944   5.902  18.896  0.00  0.00    +0.000 OA
ATOM     30  C   UNL     1      48.424   7.553  18.068  0.00  0.00    +0.000 A 
ATOM     31  H   UNL     1      47.474   6.840  21.118  0.00  0.00    +0.000 HD
ENDBRANCH  18  21
ENDBRANCH   1  19
TORSDOF 6
ENDMDL
MODEL 8
REMARK VINA RESULT:    -7.132      2.739      3.917
REMARK INTER + INTRA:         -10.544
REMARK INTER:                  -9.574
REMARK INTRA:                  -0.969
REMARK UNBOUND:                -0.910
REMARK  Name = 
REMARK  6 active torsions:
REMARK  status: ('A' for Active; 'I' for Inactive)
REMARK    1  A    between atoms: C_2  and  C_19
REMARK    2  A    between atoms: N_3  and  C_4
REMARK    3  A    between atoms: C_4  and  C_5
REMARK    4  A    between atoms: C_8  and  C_9
REMARK    5  A    between atoms: C_9  and  N_10
REMARK    6  A    between atoms: N_10  and  C_11
REMARK                            x       y       z     vdW  Elec       q    Type
REMARK                         _______ _______ _______ _____ _____    ______ ____
ROOT
ATOM      1  C   UNL     1      47.383   5.457  14.386  0.00  0.00    +0.000 C 
ENDROOT
BRANCH   1   2
ATOM      2  C   UNL     1      46.591   5.119  13.142  0.00  0.00    +0.000 A 
ATOM      3  C   UNL     1      46.421   6.055  12.112  0.00  0.00    +0.000 A 
ATOM      4  C   UNL     1      45.617   5.758  11.007  0.00  0.00    +0.000 A 
ATOM      5  C   UNL     1      44.946   4.528  10.919  0.00  0.00    +0.000 A 
ATOM      6  C   UNL     1      45.129   3.590  11.945  0.00  0.00    +0.000 A 
ATOM      7  C   UNL     1      45.933   3.889  13.047  0.00  0.00    +0.000 A 
BRANCH   5   8
ATOM      8  C   UNL     1      44.037   4.225   9.751  0.00  0.00    +0.000 C 
BRANCH   8   9
ATOM      9  N   UNL     1      44.777   4.330   8.499  0.00  0.00    +0.000 N 
ATOM     10  H   UNL     1      45.179   5.258   8.372  0.00  0.00    +0.000 HD
BRANCH   9  11
ATOM     11  C   UNL     1      45.665   3.308   8.161  0.00  0.00    +0.000 A 
ATOM     12  C   UNL     1      45.539   1.973   8.523  0.00  0.00    +0.000 A 
ATOM     13  N   UNL     1      46.359   0.973   8.124  0.00  0.00    +0.000 NA
ATOM     14  C   UNL     1      47.339   1.331   7.285  0.00  0.00    +0.000 A 
ATOM     15  N   UNL     1      47.564   2.567   6.822  0.00  0.00    +0.000 NA
ATOM     16  C   UNL     1      46.702   3.517   7.263  0.00  0.00    +0.000 A 
ENDBRANCH   9  11
ENDBRANCH   8   9
ENDBRANCH   5   8
ENDBRANCH   1   2
BRANCH   1  19
ATOM     17  O   UNL     1      49.764   6.971  13.793  0.00  0.00    +0.000 OA
ATOM     18  C   UNL     1      48.773   7.505  14.273  0.00  0.00    +0.000 C 
ATOM     19  N   UNL     1      47.555   6.885  14.461  0.00  0.00    +0.000 N 
ATOM     20  H   UNL     1      46.889   7.350  15.053  0.00  0.00    +0.000 HD
BRANCH  18  21
ATOM     21  C   UNL     1      48.794   8.816  14.912  0.00  0.00    +0.000 A 
ATOM     22  C   UNL     1      48.690  10.001  14.201  0.00  0.00    +0.000 A 
ATOM     23  S   UNL     1      49.322  11.327  15.094  0.00  0.00    +0.000 S 
ATOM     24  C   UNL     1      49.601  10.348  16.464  0.00  0.00    +0.000 A 
ATOM     25  N   UNL     1      50.273  10.786  17.559  0.00  0.00    +0.000 NA
ATOM     26  C   UNL     1      50.353   9.925  18.519  0.00  0.00    +0.000 A 
ATOM     27  N   UNL     1      49.762   8.681  18.508  0.00  0.00    +0.000 N 
ATOM     28  C   UNL     1      49.053   8.198  17.433  0.00  0.00    +0.000 A 
ATOM     29  O   UNL     1      48.479   7.120  17.466  0.00  0.00    +0.000 OA
ATOM     30  C   UNL     1      49.071   9.088  16.293  0.00  0.00    +0.000 A 
ATOM     31  H   UNL     1      49.780   8.089  19.327  0.00  0.00    +0.000 HD
ENDBRANCH  18  21
ENDBRANCH   1  19
TORSDOF 6
ENDMDL
MODEL 9
REMARK VINA RESULT:    -6.540      3.352      9.316
REMARK INTER + INTRA:          -9.744
REMARK INTER:                  -8.820
REMARK INTRA:                  -0.923
REMARK UNBOUND:                -0.910
REMARK  Name = 
REMARK  6 active torsions:
REMARK  status: ('A' for Active; 'I' for Inactive)
REMARK    1  A    between atoms: C_2  and  C_19
REMARK    2  A    between atoms: N_3  and  C_4
REMARK    3  A    between atoms: C_4  and  C_5
REMARK    4  A    between atoms: C_8  and  C_9
REMARK    5  A    between atoms: C_9  and  N_10
REMARK    6  A    between atoms: N_10  and  C_11
REMARK                            x       y       z     vdW  Elec       q    Type
REMARK                         _______ _______ _______ _____ _____    ______ ____
ROOT
ATOM      1  C   UNL     1      47.208   3.921  17.131  0.00  0.00    +0.000 C 
ENDROOT
BRANCH   1   2
ATOM      2  C   UNL     1      48.675   4.257  17.287  0.00  0.00    +0.000 A 
ATOM      3  C   UNL     1      49.142   5.567  17.112  0.00  0.00    +0.000 A 
ATOM      4  C   UNL     1      50.511   5.849  17.175  0.00  0.00    +0.000 A 
ATOM      5  C   UNL     1      51.444   4.822  17.391  0.00  0.00    +0.000 A 
ATOM      6  C   UNL     1      50.971   3.515  17.577  0.00  0.00    +0.000 A 
ATOM      7  C   UNL     1      49.604   3.238  17.515  0.00  0.00    +0.000 A 
BRANCH   5   8
ATOM      8  C   UNL     1      52.926   5.115  17.409  0.00  0.00    +0.000 C 
BRANCH   8   9
ATOM      9  N   UNL     1      53.422   5.105  18.781  0.00  0.00    +0.000 N 
ATOM     10  H   UNL     1      52.714   5.418  19.443  0.00  0.00    +0.000 HD
BRANCH   9  11
ATOM     11  C   UNL     1      54.120   3.984  19.230  0.00  0.00    +0.000 A 
ATOM     12  C   UNL     1      53.915   3.334  20.440  0.00  0.00    +0.000 A 
ATOM     13  N   UNL     1      54.538   2.199  20.834  0.00  0.00    +0.000 NA
ATOM     14  C   UNL     1      55.389   1.670  19.946  0.00  0.00    +0.000 A 
ATOM     15  N   UNL     1      55.661   2.162  18.731  0.00  0.00    +0.000 NA
ATOM     16  C   UNL     1      55.000   3.299  18.404  0.00  0.00    +0.000 A 
ENDBRANCH   9  11
ENDBRANCH   8   9
ENDBRANCH   5   8
ENDBRANCH   1   2
BRANCH   1  19
ATOM     17  O   UNL     1      47.542   2.915  14.450  0.00  0.00    +0.000 OA
ATOM     18  C   UNL     1      47.035   4.008  14.661  0.00  0.00    +0.000 C 
ATOM     19  N   UNL     1      46.718   4.504  15.909  0.00  0.00    +0.000 N 
ATOM     20  H   UNL     1      46.510   5.485  15.975  0.00  0.00    +0.000 HD
BRANCH  18  21
ATOM     21  C   UNL     1      46.885   5.038  13.639  0.00  0.00    +0.000 A 
ATOM     22  C   UNL     1      47.736   6.129  13.539  0.00  0.00    +0.000 A 
ATOM     23  S   UNL     1      47.001   7.422  12.677  0.00  0.00    +0.000 S 
ATOM     24  C   UNL     1      45.621   6.480  12.324  0.00  0.00    +0.000 A 
ATOM     25  N   UNL     1      44.506   6.994  11.745  0.00  0.00    +0.000 NA
ATOM     26  C   UNL     1      43.576   6.129  11.511  0.00  0.00    +0.000 A 
ATOM     27  N   UNL     1      43.685   4.776  11.748  0.00  0.00    +0.000 N 
ATOM     28  C   UNL     1      44.800   4.202  12.313  0.00  0.00    +0.000 A 
ATOM     29  O   UNL     1      44.907   2.994  12.454  0.00  0.00    +0.000 OA
ATOM     30  C   UNL     1      45.798   5.171  12.714  0.00  0.00    +0.000 A 
ATOM     31  H   UNL     1      42.959   4.137  11.456  0.00  0.00    +0.000 HD
ENDBRANCH  18  21
ENDBRANCH   1  19
TORSDOF 6
ENDMDL
