MODEL 1
REMARK VINA RESULT:    -8.220      0.000      0.000
REMARK INTER + INTRA:         -10.891
REMARK INTER:                 -10.622
REMARK INTRA:                  -0.268
REMARK UNBOUND:                -0.268
REMARK  Name = 
REMARK  5 active torsions:
REMARK  status: ('A' for Active; 'I' for Inactive)
REMARK    1  A    between atoms: C_2  and  C_17
REMARK    2  A    between atoms: N_3  and  C_4
REMARK    3  A    between atoms: C_4  and  C_5
REMARK    4  A    between atoms: C_8  and  C_9
REMARK    5  A    between atoms: C_9  and  N_10
REMARK                            x       y       z     vdW  Elec       q    Type
REMARK                         _______ _______ _______ _____ _____    ______ ____
ROOT
ATOM      1  O   UNL     1      46.442   3.336  13.733  0.00  0.00    +0.000 OA
ATOM      2  C   UNL     1      46.321   4.536  13.973  0.00  0.00    +0.000 C 
ATOM      3  N   UNL     1      45.178   5.223  13.658  0.00  0.00    +0.000 N 
ATOM      4  H   UNL     1      45.159   6.234  13.751  0.00  0.00    +0.000 HD
ENDROOT
BRANCH   2   5
ATOM      5  C   UNL     1      47.393   5.291  14.634  0.00  0.00    +0.000 A 
ATOM      6  C   UNL     1      48.087   6.262  13.923  0.00  0.00    +0.000 A 
ATOM      7  S   UNL     1      49.258   7.086  14.847  0.00  0.00    +0.000 S 
ATOM      8  C   UNL     1      48.849   6.209  16.246  0.00  0.00    +0.000 A 
ATOM      9  N   UNL     1      49.438   6.485  17.440  0.00  0.00    +0.000 NA
ATOM     10  C   UNL     1      49.023   5.757  18.421  0.00  0.00    +0.000 A 
ATOM     11  N   UNL     1      48.096   4.754  18.311  0.00  0.00    +0.000 N 
ATOM     12  C   UNL     1      47.510   4.407  17.114  0.00  0.00    +0.000 A 
ATOM     13  O   UNL     1      46.767   3.434  17.030  0.00  0.00    +0.000 OA
ATOM     14  C   UNL     1      47.887   5.246  15.993  0.00  0.00    +0.000 A 
ATOM     15  H   UNL     1      47.851   4.189  19.110  0.00  0.00    +0.000 HD
ENDBRANCH   2   5
BRANCH   3  16
ATOM     16  C   UNL     1      44.096   4.618  12.919  0.00  0.00    +0.000 C 
BRANCH  16  17
ATOM     17  C   UNL     1      44.462   4.424  11.476  0.00  0.00    +0.000 A 
ATOM     18  C   UNL     1      45.263   5.339  10.788  0.00  0.00    +0.000 A 
ATOM     19  C   UNL     1      45.592   5.108   9.452  0.00  0.00    +0.000 A 
ATOM     20  C   UNL     1      45.112   3.957   8.828  0.00  0.00    +0.000 A 
ATOM     21  N   UNL     1      44.338   3.054   9.480  0.00  0.00    +0.000 NA
ATOM     22  C   UNL     1      44.041   3.299  10.779  0.00  0.00    +0.000 A 
BRANCH  20  23
ATOM     23  C   UNL     1      45.423   3.672   7.382  0.00  0.00    +0.000 C 
BRANCH  23  24
ATOM     24  N   UNL     1      46.348   2.561   7.221  0.00  0.00    +0.000 N 
ATOM     25  C   UNL     1      46.263   1.341   7.836  0.00  0.00    +0.000 A 
ATOM     26  C   UNL     1      47.438   0.700   7.518  0.00  0.00    +0.000 A 
ATOM     27  N   UNL     1      48.215   1.485   6.708  0.00  0.00    +0.000 NA
ATOM     28  C   UNL     1      47.540   2.600   6.551  0.00  0.00    +0.000 A 
ENDBRANCH  23  24
ENDBRANCH  20  23
ENDBRANCH  16  17
ENDBRANCH   3  16
TORSDOF 5
ENDMDL
MODEL 2
REMARK VINA RESULT:    -8.146      1.441      2.054
REMARK INTER + INTRA:         -10.795
REMARK INTER:                 -10.187
REMARK INTRA:                  -0.608
REMARK UNBOUND:                -0.268
REMARK  Name = 
REMARK  5 active torsions:
REMARK  status: ('A' for Active; 'I' for Inactive)
REMARK    1  A    between atoms: C_2  and  C_17
REMARK    2  A    between atoms: N_3  and  C_4
REMARK    3  A    between atoms: C_4  and  C_5
REMARK    4  A    between atoms: C_8  and  C_9
REMARK    5  A    between atoms: C_9  and  N_10
REMARK                            x       y       z     vdW  Elec       q    Type
REMARK                         _______ _______ _______ _____ _____    ______ ____
ROOT
ATOM      1  O   UNL     1      48.184   6.806  12.347  0.00  0.00    +0.000 OA
ATOM      2  C   UNL     1      47.500   6.586  13.344  0.00  0.00    +0.000 C 
ATOM      3  N   UNL     1      46.132   6.540  13.286  0.00  0.00    +0.000 N 
ATOM      4  H   UNL     1      45.595   6.484  14.146  0.00  0.00    +0.000 HD
ENDROOT
BRANCH   2   5
ATOM      5  C   UNL     1      48.121   6.337  14.652  0.00  0.00    +0.000 A 
ATOM      6  C   UNL     1      49.007   7.268  15.179  0.00  0.00    +0.000 A 
ATOM      7  S   UNL     1      49.595   6.860  16.725  0.00  0.00    +0.000 S 
ATOM      8  C   UNL     1      48.650   5.446  16.770  0.00  0.00    +0.000 A 
ATOM      9  N   UNL     1      48.627   4.657  17.877  0.00  0.00    +0.000 NA
ATOM     10  C   UNL     1      47.856   3.626  17.782  0.00  0.00    +0.000 A 
ATOM     11  N   UNL     1      47.132   3.294  16.668  0.00  0.00    +0.000 N 
ATOM     12  C   UNL     1      47.162   4.036  15.508  0.00  0.00    +0.000 A 
ATOM     13  O   UNL     1      46.589   3.652  14.494  0.00  0.00    +0.000 OA
ATOM     14  C   UNL     1      47.956   5.247  15.589  0.00  0.00    +0.000 A 
ATOM     15  H   UNL     1      46.585   2.446  16.642  0.00  0.00    +0.000 HD
ENDBRANCH   2   5
BRANCH   3  16
ATOM     16  C   UNL     1      45.403   6.865  12.084  0.00  0.00    +0.000 C 
BRANCH  16  17
ATOM     17  C   UNL     1      45.271   5.669  11.185  0.00  0.00    +0.000 A 
ATOM     18  C   UNL     1      44.721   4.465  11.634  0.00  0.00    +0.000 A 
ATOM     19  C   UNL     1      44.602   3.386  10.758  0.00  0.00    +0.000 A 
ATOM     20  C   UNL     1      45.035   3.534   9.442  0.00  0.00    +0.000 A 
ATOM     21  N   UNL     1      45.566   4.696   8.985  0.00  0.00    +0.000 NA
ATOM     22  C   UNL     1      45.662   5.731   9.855  0.00  0.00    +0.000 A 
BRANCH  20  23
ATOM     23  C   UNL     1      44.946   2.394   8.463  0.00  0.00    +0.000 C 
BRANCH  23  24
ATOM     24  N   UNL     1      46.129   2.285   7.625  0.00  0.00    +0.000 N 
ATOM     25  C   UNL     1      46.446   3.090   6.563  0.00  0.00    +0.000 A 
ATOM     26  C   UNL     1      47.545   2.498   5.985  0.00  0.00    +0.000 A 
ATOM     27  N   UNL     1      47.917   1.379   6.681  0.00  0.00    +0.000 NA
ATOM     28  C   UNL     1      47.045   1.270   7.657  0.00  0.00    +0.000 A 
ENDBRANCH  23  24
ENDBRANCH  20  23
ENDBRANCH  16  17
ENDBRANCH   3  16
TORSDOF 5
ENDMDL
MODEL 3
REMARK VINA RESULT:    -7.891      2.122      3.306
REMARK INTER + INTRA:         -10.466
REMARK INTER:                  -9.732
REMARK INTRA:                  -0.734
REMARK UNBOUND:                -0.268
REMARK  Name = 
REMARK  5 active torsions:
REMARK  status: ('A' for Active; 'I' for Inactive)
REMARK    1  A    between atoms: C_2  and  C_17
REMARK    2  A    between atoms: N_3  and  C_4
REMARK    3  A    between atoms: C_4  and  C_5
REMARK    4  A    between atoms: C_8  and  C_9
REMARK    5  A    between atoms: C_9  and  N_10
REMARK                            x       y       z     vdW  Elec       q    Type
REMARK                         _______ _______ _______ _____ _____    ______ ____
ROOT
ATOM      1  O   UNL     1      47.097   4.047  14.253  0.00  0.00    +0.000 OA
ATOM      2  C   UNL     1      46.985   5.254  14.050  0.00  0.00    +0.000 C 
ATOM      3  N   UNL     1      45.805   5.809  13.629  0.00  0.00    +0.000 N 
ATOM      4  H   UNL     1      45.781   6.784  13.349  0.00  0.00    +0.000 HD
ENDROOT
BRANCH   2   5
ATOM      5  C   UNL     1      48.110   6.171  14.274  0.00  0.00    +0.000 A 
ATOM      6  C   UNL     1      48.700   6.238  15.531  0.00  0.00    +0.000 A 
ATOM      7  S   UNL     1      50.026   7.306  15.611  0.00  0.00    +0.000 S 
ATOM      8  C   UNL     1      49.893   7.681  13.957  0.00  0.00    +0.000 A 
ATOM      9  N   UNL     1      50.797   8.497  13.353  0.00  0.00    +0.000 NA
ATOM     10  C   UNL     1      50.588   8.684  12.093  0.00  0.00    +0.000 A 
ATOM     11  N   UNL     1      49.538   8.156  11.390  0.00  0.00    +0.000 N 
ATOM     12  C   UNL     1      48.573   7.364  11.970  0.00  0.00    +0.000 A 
ATOM     13  O   UNL     1      47.588   6.997  11.337  0.00  0.00    +0.000 OA
ATOM     14  C   UNL     1      48.804   7.062  13.370  0.00  0.00    +0.000 A 
ATOM     15  H   UNL     1      49.406   8.381  10.415  0.00  0.00    +0.000 HD
ENDBRANCH   2   5
BRANCH   3  16
ATOM     16  C   UNL     1      44.659   5.004  13.280  0.00  0.00    +0.000 C 
BRANCH  16  17
ATOM     17  C   UNL     1      44.742   4.522  11.860  0.00  0.00    +0.000 A 
ATOM     18  C   UNL     1      44.353   3.231  11.495  0.00  0.00    +0.000 A 
ATOM     19  C   UNL     1      44.431   2.832  10.160  0.00  0.00    +0.000 A 
ATOM     20  C   UNL     1      44.897   3.740   9.211  0.00  0.00    +0.000 A 
ATOM     21  N   UNL     1      45.273   5.000   9.544  0.00  0.00    +0.000 NA
ATOM     22  C   UNL     1      45.180   5.363  10.846  0.00  0.00    +0.000 A 
BRANCH  20  23
ATOM     23  C   UNL     1      45.017   3.353   7.761  0.00  0.00    +0.000 C 
BRANCH  23  24
ATOM     24  N   UNL     1      46.296   2.731   7.455  0.00  0.00    +0.000 N 
ATOM     25  C   UNL     1      47.341   3.314   6.790  0.00  0.00    +0.000 A 
ATOM     26  C   UNL     1      48.244   2.296   6.587  0.00  0.00    +0.000 A 
ATOM     27  N   UNL     1      47.788   1.126   7.133  0.00  0.00    +0.000 NA
ATOM     28  C   UNL     1      46.612   1.414   7.642  0.00  0.00    +0.000 A 
ENDBRANCH  23  24
ENDBRANCH  20  23
ENDBRANCH  16  17
ENDBRANCH   3  16
TORSDOF 5
ENDMDL
MODEL 4
REMARK VINA RESULT:    -7.842      1.797      2.252
REMARK INTER + INTRA:         -10.402
REMARK INTER:                  -9.935
REMARK INTRA:                  -0.468
REMARK UNBOUND:                -0.268
REMARK  Name = 
REMARK  5 active torsions:
REMARK  status: ('A' for Active; 'I' for Inactive)
REMARK    1  A    between atoms: C_2  and  C_17
REMARK    2  A    between atoms: N_3  and  C_4
REMARK    3  A    between atoms: C_4  and  C_5
REMARK    4  A    between atoms: C_8  and  C_9
REMARK    5  A    between atoms: C_9  and  N_10
REMARK                            x       y       z     vdW  Elec       q    Type
REMARK                         _______ _______ _______ _____ _____    ______ ____
ROOT
ATOM      1  O   UNL     1      48.296   5.962  13.542  0.00  0.00    +0.000 OA
ATOM      2  C   UNL     1      47.419   5.543  14.294  0.00  0.00    +0.000 C 
ATOM      3  N   UNL     1      46.089   5.646  13.980  0.00  0.00    +0.000 N 
ATOM      4  H   UNL     1      45.390   5.408  14.677  0.00  0.00    +0.000 HD
ENDROOT
BRANCH   2   5
ATOM      5  C   UNL     1      47.756   4.885  15.563  0.00  0.00    +0.000 A 
ATOM      6  C   UNL     1      47.385   3.562  15.769  0.00  0.00    +0.000 A 
ATOM      7  S   UNL     1      47.899   2.928  17.266  0.00  0.00    +0.000 S 
ATOM      8  C   UNL     1      48.679   4.384  17.674  0.00  0.00    +0.000 A 
ATOM      9  N   UNL     1      49.398   4.490  18.823  0.00  0.00    +0.000 NA
ATOM     10  C   UNL     1      49.951   5.643  19.002  0.00  0.00    +0.000 A 
ATOM     11  N   UNL     1      49.822   6.710  18.152  0.00  0.00    +0.000 N 
ATOM     12  C   UNL     1      49.065   6.663  17.003  0.00  0.00    +0.000 A 
ATOM     13  O   UNL     1      48.881   7.667  16.322  0.00  0.00    +0.000 OA
ATOM     14  C   UNL     1      48.483   5.365  16.718  0.00  0.00    +0.000 A 
ATOM     15  H   UNL     1      50.242   7.600  18.375  0.00  0.00    +0.000 HD
ENDBRANCH   2   5
BRANCH   3  16
ATOM     16  C   UNL     1      45.628   6.358  12.813  0.00  0.00    +0.000 C 
BRANCH  16  17
ATOM     17  C   UNL     1      45.439   5.430  11.647  0.00  0.00    +0.000 A 
ATOM     18  C   UNL     1      45.681   5.838  10.333  0.00  0.00    +0.000 A 
ATOM     19  C   UNL     1      45.510   4.936   9.283  0.00  0.00    +0.000 A 
ATOM     20  C   UNL     1      45.099   3.636   9.570  0.00  0.00    +0.000 A 
ATOM     21  N   UNL     1      44.865   3.218  10.839  0.00  0.00    +0.000 NA
ATOM     22  C   UNL     1      45.047   4.113  11.841  0.00  0.00    +0.000 A 
BRANCH  20  23
ATOM     23  C   UNL     1      44.881   2.630   8.470  0.00  0.00    +0.000 C 
BRANCH  23  24
ATOM     24  N   UNL     1      46.097   2.351   7.723  0.00  0.00    +0.000 N 
ATOM     25  C   UNL     1      46.638   3.132   6.737  0.00  0.00    +0.000 A 
ATOM     26  C   UNL     1      47.666   2.382   6.214  0.00  0.00    +0.000 A 
ATOM     27  N   UNL     1      47.777   1.185   6.871  0.00  0.00    +0.000 NA
ATOM     28  C   UNL     1      46.818   1.190   7.768  0.00  0.00    +0.000 A 
ENDBRANCH  23  24
ENDBRANCH  20  23
ENDBRANCH  16  17
ENDBRANCH   3  16
TORSDOF 5
ENDMDL
MODEL 5
REMARK VINA RESULT:    -7.619      1.407      1.709
REMARK INTER + INTRA:         -10.114
REMARK INTER:                  -9.340
REMARK INTRA:                  -0.774
REMARK UNBOUND:                -0.268
REMARK  Name = 
REMARK  5 active torsions:
REMARK  status: ('A' for Active; 'I' for Inactive)
REMARK    1  A    between atoms: C_2  and  C_17
REMARK    2  A    between atoms: N_3  and  C_4
REMARK    3  A    between atoms: C_4  and  C_5
REMARK    4  A    between atoms: C_8  and  C_9
REMARK    5  A    between atoms: C_9  and  N_10
REMARK                            x       y       z     vdW  Elec       q    Type
REMARK                         _______ _______ _______ _____ _____    ______ ____
ROOT
ATOM      1  O   UNL     1      46.139   7.748  13.252  0.00  0.00    +0.000 OA
ATOM      2  C   UNL     1      46.837   6.804  13.616  0.00  0.00    +0.000 C 
ATOM      3  N   UNL     1      46.402   5.507  13.525  0.00  0.00    +0.000 N 
ATOM      4  H   UNL     1      46.948   4.764  13.950  0.00  0.00    +0.000 HD
ENDROOT
BRANCH   2   5
ATOM      5  C   UNL     1      48.189   7.018  14.147  0.00  0.00    +0.000 A 
ATOM      6  C   UNL     1      49.034   7.928  13.523  0.00  0.00    +0.000 A 
ATOM      7  S   UNL     1      50.545   8.103  14.293  0.00  0.00    +0.000 S 
ATOM      8  C   UNL     1      50.107   7.005  15.518  0.00  0.00    +0.000 A 
ATOM      9  N   UNL     1      50.942   6.757  16.562  0.00  0.00    +0.000 NA
ATOM     10  C   UNL     1      50.480   5.918  17.427  0.00  0.00    +0.000 A 
ATOM     11  N   UNL     1      49.273   5.278  17.325  0.00  0.00    +0.000 N 
ATOM     12  C   UNL     1      48.418   5.461  16.262  0.00  0.00    +0.000 A 
ATOM     13  O   UNL     1      47.396   4.792  16.146  0.00  0.00    +0.000 OA
ATOM     14  C   UNL     1      48.858   6.453  15.299  0.00  0.00    +0.000 A 
ATOM     15  H   UNL     1      48.991   4.595  18.013  0.00  0.00    +0.000 HD
ENDBRANCH   2   5
BRANCH   3  16
ATOM     16  C   UNL     1      45.059   5.174  13.114  0.00  0.00    +0.000 C 
BRANCH  16  17
ATOM     17  C   UNL     1      45.024   4.719  11.684  0.00  0.00    +0.000 A 
ATOM     18  C   UNL     1      45.578   5.481  10.652  0.00  0.00    +0.000 A 
ATOM     19  C   UNL     1      45.537   5.009   9.340  0.00  0.00    +0.000 A 
ATOM     20  C   UNL     1      44.942   3.775   9.084  0.00  0.00    +0.000 A 
ATOM     21  N   UNL     1      44.404   3.017  10.072  0.00  0.00    +0.000 NA
ATOM     22  C   UNL     1      44.464   3.496  11.339  0.00  0.00    +0.000 A 
BRANCH  20  23
ATOM     23  C   UNL     1      44.856   3.231   7.683  0.00  0.00    +0.000 C 
BRANCH  23  24
ATOM     24  N   UNL     1      46.128   2.710   7.209  0.00  0.00    +0.000 N 
ATOM     25  C   UNL     1      46.808   3.125   6.096  0.00  0.00    +0.000 A 
ATOM     26  C   UNL     1      47.847   2.233   5.961  0.00  0.00    +0.000 A 
ATOM     27  N   UNL     1      47.830   1.311   6.975  0.00  0.00    +0.000 NA
ATOM     28  C   UNL     1      46.783   1.617   7.706  0.00  0.00    +0.000 A 
ENDBRANCH  23  24
ENDBRANCH  20  23
ENDBRANCH  16  17
ENDBRANCH   3  16
TORSDOF 5
ENDMDL
MODEL 6
REMARK VINA RESULT:    -7.315      2.100      3.319
REMARK INTER + INTRA:          -9.721
REMARK INTER:                  -8.850
REMARK INTRA:                  -0.871
REMARK UNBOUND:                -0.268
REMARK  Name = 
REMARK  5 active torsions:
REMARK  status: ('A' for Active; 'I' for Inactive)
REMARK    1  A    between atoms: C_2  and  C_17
REMARK    2  A    between atoms: N_3  and  C_4
REMARK    3  A    between atoms: C_4  and  C_5
REMARK    4  A    between atoms: C_8  and  C_9
REMARK    5  A    between atoms: C_9  and  N_10
REMARK                            x       y       z     vdW  Elec       q    Type
REMARK                         _______ _______ _______ _____ _____    ______ ____
ROOT
ATOM      1  O   UNL     1      50.028   7.309  14.264  0.00  0.00    +0.000 OA
ATOM      2  C   UNL     1      49.112   7.061  15.046  0.00  0.00    +0.000 C 
ATOM      3  N   UNL     1      47.802   7.298  14.722  0.00  0.00    +0.000 N 
ATOM      4  H   UNL     1      47.084   7.203  15.434  0.00  0.00    +0.000 HD
ENDROOT
BRANCH   2   5
ATOM      5  C   UNL     1      49.378   6.474  16.365  0.00  0.00    +0.000 A 
ATOM      6  C   UNL     1      50.209   7.140  17.258  0.00  0.00    +0.000 A 
ATOM      7  S   UNL     1      50.370   6.357  18.763  0.00  0.00    +0.000 S 
ATOM      8  C   UNL     1      49.295   5.124  18.297  0.00  0.00    +0.000 A 
ATOM      9  N   UNL     1      48.927   4.151  19.173  0.00  0.00    +0.000 NA
ATOM     10  C   UNL     1      48.094   3.289  18.695  0.00  0.00    +0.000 A 
ATOM     11  N   UNL     1      47.621   3.292  17.409  0.00  0.00    +0.000 N 
ATOM     12  C   UNL     1      48.003   4.228  16.475  0.00  0.00    +0.000 A 
ATOM     13  O   UNL     1      47.646   4.139  15.304  0.00  0.00    +0.000 OA
ATOM     14  C   UNL     1      48.881   5.264  16.984  0.00  0.00    +0.000 A 
ATOM     15  H   UNL     1      47.007   2.560  17.084  0.00  0.00    +0.000 HD
ENDBRANCH   2   5
BRANCH   3  16
ATOM     16  C   UNL     1      47.421   7.961  13.499  0.00  0.00    +0.000 C 
BRANCH  16  17
ATOM     17  C   UNL     1      46.397   7.166  12.742  0.00  0.00    +0.000 A 
ATOM     18  C   UNL     1      45.319   7.775  12.095  0.00  0.00    +0.000 A 
ATOM     19  C   UNL     1      44.402   6.996  11.388  0.00  0.00    +0.000 A 
ATOM     20  C   UNL     1      44.585   5.616  11.340  0.00  0.00    +0.000 A 
ATOM     21  N   UNL     1      45.628   5.005  11.956  0.00  0.00    +0.000 NA
ATOM     22  C   UNL     1      46.508   5.787  12.629  0.00  0.00    +0.000 A 
BRANCH  20  23
ATOM     23  C   UNL     1      43.613   4.729  10.606  0.00  0.00    +0.000 C 
BRANCH  23  24
ATOM     24  N   UNL     1      44.275   3.822   9.683  0.00  0.00    +0.000 N 
ATOM     25  C   UNL     1      44.371   2.463   9.812  0.00  0.00    +0.000 A 
ATOM     26  C   UNL     1      45.226   2.070   8.809  0.00  0.00    +0.000 A 
ATOM     27  N   UNL     1      45.626   3.146   8.062  0.00  0.00    +0.000 NA
ATOM     28  C   UNL     1      45.046   4.187   8.613  0.00  0.00    +0.000 A 
ENDBRANCH  23  24
ENDBRANCH  20  23
ENDBRANCH  16  17
ENDBRANCH   3  16
TORSDOF 5
ENDMDL
MODEL 7
REMARK VINA RESULT:    -7.001      3.906      8.550
REMARK INTER + INTRA:          -9.315
REMARK INTER:                  -8.548
REMARK INTRA:                  -0.767
REMARK UNBOUND:                -0.268
REMARK  Name = 
REMARK  5 active torsions:
REMARK  status: ('A' for Active; 'I' for Inactive)
REMARK    1  A    between atoms: C_2  and  C_17
REMARK    2  A    between atoms: N_3  and  C_4
REMARK    3  A    between atoms: C_4  and  C_5
REMARK    4  A    between atoms: C_8  and  C_9
REMARK    5  A    between atoms: C_9  and  N_10
REMARK                            x       y       z     vdW  Elec       q    Type
REMARK                         _______ _______ _______ _____ _____    ______ ____
ROOT
ATOM      1  O   UNL     1      47.163   3.081  13.991  0.00  0.00    +0.000 OA
ATOM      2  C   UNL     1      46.774   4.134  14.492  0.00  0.00    +0.000 C 
ATOM      3  N   UNL     1      46.814   4.348  15.845  0.00  0.00    +0.000 N 
ATOM      4  H   UNL     1      46.369   5.172  16.236  0.00  0.00    +0.000 HD
ENDROOT
BRANCH   2   5
ATOM      5  C   UNL     1      46.267   5.231  13.658  0.00  0.00    +0.000 A 
ATOM      6  C   UNL     1      47.076   6.333  13.408  0.00  0.00    +0.000 A 
ATOM      7  S   UNL     1      46.363   7.490  12.379  0.00  0.00    +0.000 S 
ATOM      8  C   UNL     1      44.965   6.539  12.189  0.00  0.00    +0.000 A 
ATOM      9  N   UNL     1      43.967   6.926  11.351  0.00  0.00    +0.000 NA
ATOM     10  C   UNL     1      42.974   6.104  11.289  0.00  0.00    +0.000 A 
ATOM     11  N   UNL     1      42.873   4.947  12.015  0.00  0.00    +0.000 N 
ATOM     12  C   UNL     1      43.835   4.541  12.912  0.00  0.00    +0.000 A 
ATOM     13  O   UNL     1      43.663   3.557  13.626  0.00  0.00    +0.000 OA
ATOM     14  C   UNL     1      45.008   5.392  12.963  0.00  0.00    +0.000 A 
ATOM     15  H   UNL     1      42.045   4.372  11.956  0.00  0.00    +0.000 HD
ENDBRANCH   2   5
BRANCH   3  16
ATOM     16  C   UNL     1      47.198   3.314  16.775  0.00  0.00    +0.000 C 
BRANCH  16  17
ATOM     17  C   UNL     1      48.578   3.550  17.315  0.00  0.00    +0.000 A 
ATOM     18  C   UNL     1      49.637   2.679  17.042  0.00  0.00    +0.000 A 
ATOM     19  C   UNL     1      50.908   2.948  17.550  0.00  0.00    +0.000 A 
ATOM     20  C   UNL     1      51.096   4.091  18.324  0.00  0.00    +0.000 A 
ATOM     21  N   UNL     1      50.084   4.952  18.596  0.00  0.00    +0.000 NA
ATOM     22  C   UNL     1      48.862   4.671  18.083  0.00  0.00    +0.000 A 
BRANCH  20  23
ATOM     23  C   UNL     1      52.445   4.417  18.912  0.00  0.00    +0.000 C 
BRANCH  23  24
ATOM     24  N   UNL     1      53.382   4.907  17.914  0.00  0.00    +0.000 N 
ATOM     25  C   UNL     1      53.223   6.019  17.131  0.00  0.00    +0.000 A 
ATOM     26  C   UNL     1      54.266   5.974  16.235  0.00  0.00    +0.000 A 
ATOM     27  N   UNL     1      55.063   4.885  16.471  0.00  0.00    +0.000 NA
ATOM     28  C   UNL     1      54.505   4.257  17.481  0.00  0.00    +0.000 A 
ENDBRANCH  23  24
ENDBRANCH  20  23
ENDBRANCH  16  17
ENDBRANCH   3  16
TORSDOF 5
ENDMDL
MODEL 8
REMARK VINA RESULT:    -6.859      3.013      4.550
REMARK INTER + INTRA:          -9.132
REMARK INTER:                  -8.072
REMARK INTRA:                  -1.060
REMARK UNBOUND:                -0.268
REMARK  Name = 
REMARK  5 active torsions:
REMARK  status: ('A' for Active; 'I' for Inactive)
REMARK    1  A    between atoms: C_2  and  C_17
REMARK    2  A    between atoms: N_3  and  C_4
REMARK    3  A    between atoms: C_4  and  C_5
REMARK    4  A    between atoms: C_8  and  C_9
REMARK    5  A    between atoms: C_9  and  N_10
REMARK                            x       y       z     vdW  Elec       q    Type
REMARK                         _______ _______ _______ _____ _____    ______ ____
ROOT
ATOM      1  O   UNL     1      48.264   8.805  16.192  0.00  0.00    +0.000 OA
ATOM      2  C   UNL     1      48.781   7.728  15.903  0.00  0.00    +0.000 C 
ATOM      3  N   UNL     1      49.122   7.414  14.613  0.00  0.00    +0.000 N 
ATOM      4  H   UNL     1      49.426   6.471  14.390  0.00  0.00    +0.000 HD
ENDROOT
BRANCH   2   5
ATOM      5  C   UNL     1      49.081   6.727  16.935  0.00  0.00    +0.000 A 
ATOM      6  C   UNL     1      49.872   7.080  18.022  0.00  0.00    +0.000 A 
ATOM      7  S   UNL     1      50.080   5.825  19.156  0.00  0.00    +0.000 S 
ATOM      8  C   UNL     1      49.081   4.778  18.262  0.00  0.00    +0.000 A 
ATOM      9  N   UNL     1      48.774   3.539  18.730  0.00  0.00    +0.000 NA
ATOM     10  C   UNL     1      47.993   2.856  17.960  0.00  0.00    +0.000 A 
ATOM     11  N   UNL     1      47.520   3.288  16.749  0.00  0.00    +0.000 N 
ATOM     12  C   UNL     1      47.845   4.514  16.214  0.00  0.00    +0.000 A 
ATOM     13  O   UNL     1      47.494   4.825  15.080  0.00  0.00    +0.000 OA
ATOM     14  C   UNL     1      48.659   5.351  17.075  0.00  0.00    +0.000 A 
ATOM     15  H   UNL     1      46.952   2.684  16.173  0.00  0.00    +0.000 HD
ENDBRANCH   2   5
BRANCH   3  16
ATOM     16  C   UNL     1      48.789   8.269  13.500  0.00  0.00    +0.000 C 
BRANCH  16  17
ATOM     17  C   UNL     1      47.517   7.829  12.834  0.00  0.00    +0.000 A 
ATOM     18  C   UNL     1      47.490   6.772  11.922  0.00  0.00    +0.000 A 
ATOM     19  C   UNL     1      46.281   6.386  11.341  0.00  0.00    +0.000 A 
ATOM     20  C   UNL     1      45.117   7.068  11.689  0.00  0.00    +0.000 A 
ATOM     21  N   UNL     1      45.121   8.093  12.577  0.00  0.00    +0.000 NA
ATOM     22  C   UNL     1      46.308   8.442  13.132  0.00  0.00    +0.000 A 
BRANCH  20  23
ATOM     23  C   UNL     1      43.791   6.703  11.076  0.00  0.00    +0.000 C 
BRANCH  23  24
ATOM     24  N   UNL     1      43.551   5.269  11.084  0.00  0.00    +0.000 N 
ATOM     25  C   UNL     1      43.185   4.515  12.167  0.00  0.00    +0.000 A 
ATOM     26  C   UNL     1      43.252   3.211  11.731  0.00  0.00    +0.000 A 
ATOM     27  N   UNL     1      43.620   3.159  10.412  0.00  0.00    +0.000 NA
ATOM     28  C   UNL     1      43.799   4.408  10.050  0.00  0.00    +0.000 A 
ENDBRANCH  23  24
ENDBRANCH  20  23
ENDBRANCH  16  17
ENDBRANCH   3  16
TORSDOF 5
ENDMDL
MODEL 9
REMARK VINA RESULT:    -6.401      3.787      4.785
REMARK INTER + INTRA:          -8.540
REMARK INTER:                  -7.701
REMARK INTRA:                  -0.839
REMARK UNBOUND:                -0.268
REMARK  Name = 
REMARK  5 active torsions:
REMARK  status: ('A' for Active; 'I' for Inactive)
REMARK    1  A    between atoms: C_2  and  C_17
REMARK    2  A    between atoms: N_3  and  C_4
REMARK    3  A    between atoms: C_4  and  C_5
REMARK    4  A    between atoms: C_8  and  C_9
REMARK    5  A    between atoms: C_9  and  N_10
REMARK                            x       y       z     vdW  Elec       q    Type
REMARK                         _______ _______ _______ _____ _____    ______ ____
ROOT
ATOM      1  O   UNL     1      47.182   8.711  14.096  0.00  0.00    +0.000 OA
ATOM      2  C   UNL     1      47.186   9.014  12.905  0.00  0.00    +0.000 C 
ATOM      3  N   UNL     1      46.082   8.837  12.112  0.00  0.00    +0.000 N 
ATOM      4  H   UNL     1      46.158   8.977  11.109  0.00  0.00    +0.000 HD
ENDROOT
BRANCH   2   5
ATOM      5  C   UNL     1      48.372   9.606  12.274  0.00  0.00    +0.000 A 
ATOM      6  C   UNL     1      48.436  10.982  12.090  0.00  0.00    +0.000 A 
ATOM      7  S   UNL     1      49.899  11.516  11.398  0.00  0.00    +0.000 S 
ATOM      8  C   UNL     1      50.523   9.933  11.364  0.00  0.00    +0.000 A 
ATOM      9  N   UNL     1      51.795   9.694  10.949  0.00  0.00    +0.000 NA
ATOM     10  C   UNL     1      52.145   8.452  10.990  0.00  0.00    +0.000 A 
ATOM     11  N   UNL     1      51.327   7.424  11.376  0.00  0.00    +0.000 N 
ATOM     12  C   UNL     1      50.018   7.613  11.757  0.00  0.00    +0.000 A 
ATOM     13  O   UNL     1      49.280   6.661  11.991  0.00  0.00    +0.000 OA
ATOM     14  C   UNL     1      49.598   9.001  11.801  0.00  0.00    +0.000 A 
ATOM     15  H   UNL     1      51.648   6.468  11.338  0.00  0.00    +0.000 HD
ENDBRANCH   2   5
BRANCH   3  16
ATOM     16  C   UNL     1      44.891   8.176  12.589  0.00  0.00    +0.000 C 
BRANCH  16  17
ATOM     17  C   UNL     1      44.745   6.810  11.982  0.00  0.00    +0.000 A 
ATOM     18  C   UNL     1      45.781   5.872  12.017  0.00  0.00    +0.000 A 
ATOM     19  C   UNL     1      45.593   4.609  11.456  0.00  0.00    +0.000 A 
ATOM     20  C   UNL     1      44.366   4.306  10.869  0.00  0.00    +0.000 A 
ATOM     21  N   UNL     1      43.346   5.200  10.830  0.00  0.00    +0.000 NA
ATOM     22  C   UNL     1      43.553   6.417  11.390  0.00  0.00    +0.000 A 
BRANCH  20  23
ATOM     23  C   UNL     1      44.120   2.963  10.233  0.00  0.00    +0.000 C 
BRANCH  23  24
ATOM     24  N   UNL     1      44.898   2.771   9.021  0.00  0.00    +0.000 N 
ATOM     25  C   UNL     1      45.694   1.695   8.732  0.00  0.00    +0.000 A 
ATOM     26  C   UNL     1      46.354   2.041   7.576  0.00  0.00    +0.000 A 
ATOM     27  N   UNL     1      45.961   3.281   7.145  0.00  0.00    +0.000 NA
ATOM     28  C   UNL     1      45.091   3.699   8.035  0.00  0.00    +0.000 A 
ENDBRANCH  23  24
ENDBRANCH  20  23
ENDBRANCH  16  17
ENDBRANCH   3  16
TORSDOF 5
ENDMDL
