MODEL 1
REMARK VINA RESULT:    -7.859      0.000      0.000
REMARK INTER + INTRA:         -11.938
REMARK INTER:                 -10.615
REMARK INTRA:                  -1.322
REMARK UNBOUND:                -1.322
REMARK  Name = 
REMARK  7 active torsions:
REMARK  status: ('A' for Active; 'I' for Inactive)
REMARK    1  A    between atoms: C_1  and  O_2
REMARK    2  A    between atoms: O_2  and  C_3
REMARK    3  A    between atoms: C_5  and  C_6
REMARK    4  A    between atoms: C_11  and  N_12
REMARK    5  A    between atoms: N_12  and  C_13
REMARK    6  A    between atoms: C_13  and  C_14
REMARK    7  A    between atoms: C_18  and  C_19
REMARK                            x       y       z     vdW  Elec       q    Type
REMARK                         _______ _______ _______ _____ _____    ______ ____
ROOT
ATOM      1  N   UNL     1      44.146   6.634  12.598  0.00  0.00    +0.000 N 
ATOM      2  H   UNL     1      43.764   6.061  13.347  0.00  0.00    +0.000 HD
ENDROOT
BRANCH   1   8
ATOM      3  C   UNL     1      46.457   5.944  13.296  0.00  0.00    +0.000 A 
ATOM      4  C   UNL     1      47.827   6.242  13.282  0.00  0.00    +0.000 A 
ATOM      5  C   UNL     1      48.316   7.421  12.705  0.00  0.00    +0.000 A 
ATOM      6  C   UNL     1      47.413   8.307  12.120  0.00  0.00    +0.000 A 
ATOM      7  C   UNL     1      46.041   8.012  12.127  0.00  0.00    +0.000 A 
ATOM      8  C   UNL     1      45.528   6.846  12.730  0.00  0.00    +0.000 A 
BRANCH   5   9
ATOM      9  C   UNL     1      49.791   7.634  12.747  0.00  0.00    +0.000 C 
ATOM     10  N   UNL     1      50.527   7.389  11.624  0.00  0.00    +0.000 N 
ATOM     11  O   UNL     1      50.351   8.026  13.764  0.00  0.00    +0.000 OA
ATOM     12  H   UNL     1      50.165   7.038  10.751  0.00  0.00    +0.000 HD
ATOM     13  H   UNL     1      51.526   7.532  11.702  0.00  0.00    +0.000 HD
ENDBRANCH   5   9
BRANCH   3  15
ATOM     14  C   UNL     1      46.469   3.555  13.273  0.00  0.00    +0.000 C 
ATOM     15  O   UNL     1      45.983   4.770  13.827  0.00  0.00    +0.000 OA
ENDBRANCH   3  15
ENDBRANCH   1   8
BRANCH   1  16
ATOM     16  C   UNL     1      43.558   6.331  11.303  0.00  0.00    +0.000 C 
BRANCH  16  17
ATOM     17  C   UNL     1      43.760   4.870  10.975  0.00  0.00    +0.000 A 
ATOM     18  C   UNL     1      43.114   3.876  11.715  0.00  0.00    +0.000 A 
ATOM     19  C   UNL     1      43.324   2.536  11.408  0.00  0.00    +0.000 A 
ATOM     20  C   UNL     1      44.169   2.181  10.352  0.00  0.00    +0.000 A 
ATOM     21  C   UNL     1      44.814   3.153   9.565  0.00  0.00    +0.000 A 
ATOM     22  C   UNL     1      44.594   4.500   9.904  0.00  0.00    +0.000 A 
BRANCH  21  23
ATOM     23  C   UNL     1      45.661   2.779   8.414  0.00  0.00    +0.000 A 
ATOM     24  C   UNL     1      45.966   3.670   7.375  0.00  0.00    +0.000 A 
ATOM     25  C   UNL     1      46.749   3.263   6.292  0.00  0.00    +0.000 A 
ATOM     26  C   UNL     1      47.223   1.964   6.276  0.00  0.00    +0.000 A 
ATOM     27  N   UNL     1      46.966   1.066   7.248  0.00  0.00    +0.000 NA
ATOM     28  C   UNL     1      46.193   1.493   8.278  0.00  0.00    +0.000 A 
ENDBRANCH  21  23
ENDBRANCH  16  17
ENDBRANCH   1  16
TORSDOF 6
ENDMDL
MODEL 2
REMARK VINA RESULT:    -7.741      2.663      6.836
REMARK INTER + INTRA:         -11.779
REMARK INTER:                 -10.995
REMARK INTRA:                  -0.785
REMARK UNBOUND:                -1.322
REMARK  Name = 
REMARK  7 active torsions:
REMARK  status: ('A' for Active; 'I' for Inactive)
REMARK    1  A    between atoms: C_1  and  O_2
REMARK    2  A    between atoms: O_2  and  C_3
REMARK    3  A    between atoms: C_5  and  C_6
REMARK    4  A    between atoms: C_11  and  N_12
REMARK    5  A    between atoms: N_12  and  C_13
REMARK    6  A    between atoms: C_13  and  C_14
REMARK    7  A    between atoms: C_18  and  C_19
REMARK                            x       y       z     vdW  Elec       q    Type
REMARK                         _______ _______ _______ _____ _____    ______ ____
ROOT
ATOM      1  N   UNL     1      43.785   5.484  10.220  0.00  0.00    +0.000 N 
ATOM      2  H   UNL     1      43.882   6.328   9.663  0.00  0.00    +0.000 HD
ENDROOT
BRANCH   1   8
ATOM      3  C   UNL     1      44.292   3.038   9.964  0.00  0.00    +0.000 A 
ATOM      4  C   UNL     1      45.050   2.057   9.309  0.00  0.00    +0.000 A 
ATOM      5  C   UNL     1      46.043   2.396   8.381  0.00  0.00    +0.000 A 
ATOM      6  C   UNL     1      46.266   3.742   8.096  0.00  0.00    +0.000 A 
ATOM      7  C   UNL     1      45.507   4.728   8.745  0.00  0.00    +0.000 A 
ATOM      8  C   UNL     1      44.525   4.407   9.704  0.00  0.00    +0.000 A 
BRANCH   5   9
ATOM      9  C   UNL     1      46.787   1.270   7.745  0.00  0.00    +0.000 C 
ATOM     10  N   UNL     1      47.800   1.555   6.876  0.00  0.00    +0.000 N 
ATOM     11  O   UNL     1      46.509   0.102   7.989  0.00  0.00    +0.000 OA
ATOM     12  H   UNL     1      48.084   2.478   6.589  0.00  0.00    +0.000 HD
ATOM     13  H   UNL     1      48.268   0.761   6.457  0.00  0.00    +0.000 HD
ENDBRANCH   5   9
BRANCH   3  15
ATOM     14  C   UNL     1      43.662   2.442  12.190  0.00  0.00    +0.000 C 
ATOM     15  O   UNL     1      43.292   2.704  10.843  0.00  0.00    +0.000 OA
ENDBRANCH   3  15
ENDBRANCH   1   8
BRANCH   1  16
ATOM     16  C   UNL     1      43.758   5.754  11.649  0.00  0.00    +0.000 C 
BRANCH  16  17
ATOM     17  C   UNL     1      45.133   6.163  12.122  0.00  0.00    +0.000 A 
ATOM     18  C   UNL     1      45.840   7.177  11.471  0.00  0.00    +0.000 A 
ATOM     19  C   UNL     1      47.111   7.530  11.912  0.00  0.00    +0.000 A 
ATOM     20  C   UNL     1      47.679   6.882  13.012  0.00  0.00    +0.000 A 
ATOM     21  C   UNL     1      46.987   5.875  13.712  0.00  0.00    +0.000 A 
ATOM     22  C   UNL     1      45.708   5.530  13.239  0.00  0.00    +0.000 A 
BRANCH  21  23
ATOM     23  C   UNL     1      47.564   5.229  14.909  0.00  0.00    +0.000 A 
ATOM     24  C   UNL     1      47.167   3.959  15.352  0.00  0.00    +0.000 A 
ATOM     25  C   UNL     1      47.720   3.400  16.505  0.00  0.00    +0.000 A 
ATOM     26  C   UNL     1      48.675   4.126  17.194  0.00  0.00    +0.000 A 
ATOM     27  N   UNL     1      49.098   5.348  16.814  0.00  0.00    +0.000 NA
ATOM     28  C   UNL     1      48.530   5.865  15.696  0.00  0.00    +0.000 A 
ENDBRANCH  21  23
ENDBRANCH  16  17
ENDBRANCH   1  16
TORSDOF 6
ENDMDL
MODEL 3
REMARK VINA RESULT:    -7.516      1.192      2.012
REMARK INTER + INTRA:         -11.475
REMARK INTER:                 -10.481
REMARK INTRA:                  -0.993
REMARK UNBOUND:                -1.322
REMARK  Name = 
REMARK  7 active torsions:
REMARK  status: ('A' for Active; 'I' for Inactive)
REMARK    1  A    between atoms: C_1  and  O_2
REMARK    2  A    between atoms: O_2  and  C_3
REMARK    3  A    between atoms: C_5  and  C_6
REMARK    4  A    between atoms: C_11  and  N_12
REMARK    5  A    between atoms: N_12  and  C_13
REMARK    6  A    between atoms: C_13  and  C_14
REMARK    7  A    between atoms: C_18  and  C_19
REMARK                            x       y       z     vdW  Elec       q    Type
REMARK                         _______ _______ _______ _____ _____    ______ ____
ROOT
ATOM      1  N   UNL     1      43.805   6.723  12.356  0.00  0.00    +0.000 N 
ATOM      2  H   UNL     1      43.354   6.271  13.147  0.00  0.00    +0.000 HD
ENDROOT
BRANCH   1   8
ATOM      3  C   UNL     1      45.941   8.042  12.291  0.00  0.00    +0.000 A 
ATOM      4  C   UNL     1      47.307   8.081  12.600  0.00  0.00    +0.000 A 
ATOM      5  C   UNL     1      47.965   6.980  13.162  0.00  0.00    +0.000 A 
ATOM      6  C   UNL     1      47.231   5.826  13.432  0.00  0.00    +0.000 A 
ATOM      7  C   UNL     1      45.862   5.782  13.129  0.00  0.00    +0.000 A 
ATOM      8  C   UNL     1      45.191   6.870  12.534  0.00  0.00    +0.000 A 
BRANCH   5   9
ATOM      9  C   UNL     1      49.420   7.134  13.450  0.00  0.00    +0.000 C 
ATOM     10  N   UNL     1      50.261   7.482  12.432  0.00  0.00    +0.000 N 
ATOM     11  O   UNL     1      49.871   6.959  14.575  0.00  0.00    +0.000 OA
ATOM     12  H   UNL     1      49.993   7.620  11.471  0.00  0.00    +0.000 HD
ATOM     13  H   UNL     1      51.242   7.562  12.669  0.00  0.00    +0.000 HD
ENDBRANCH   5   9
BRANCH   3  15
ATOM     14  C   UNL     1      45.941  10.394  11.871  0.00  0.00    +0.000 C 
ATOM     15  O   UNL     1      45.289   9.135  11.776  0.00  0.00    +0.000 OA
ENDBRANCH   3  15
ENDBRANCH   1   8
BRANCH   1  16
ATOM     16  C   UNL     1      43.259   6.293  11.078  0.00  0.00    +0.000 C 
BRANCH  16  17
ATOM     17  C   UNL     1      43.592   4.838  10.839  0.00  0.00    +0.000 A 
ATOM     18  C   UNL     1      43.046   3.838  11.648  0.00  0.00    +0.000 A 
ATOM     19  C   UNL     1      43.375   2.506  11.422  0.00  0.00    +0.000 A 
ATOM     20  C   UNL     1      44.242   2.163  10.380  0.00  0.00    +0.000 A 
ATOM     21  C   UNL     1      44.789   3.139   9.525  0.00  0.00    +0.000 A 
ATOM     22  C   UNL     1      44.449   4.479   9.782  0.00  0.00    +0.000 A 
BRANCH  21  23
ATOM     23  C   UNL     1      45.659   2.771   8.389  0.00  0.00    +0.000 A 
ATOM     24  C   UNL     1      46.007   3.676   7.376  0.00  0.00    +0.000 A 
ATOM     25  C   UNL     1      46.810   3.276   6.306  0.00  0.00    +0.000 A 
ATOM     26  C   UNL     1      47.259   1.968   6.276  0.00  0.00    +0.000 A 
ATOM     27  N   UNL     1      46.960   1.056   7.222  0.00  0.00    +0.000 NA
ATOM     28  C   UNL     1      46.169   1.478   8.240  0.00  0.00    +0.000 A 
ENDBRANCH  21  23
ENDBRANCH  16  17
ENDBRANCH   1  16
TORSDOF 6
ENDMDL
MODEL 4
REMARK VINA RESULT:    -7.332      2.529      6.513
REMARK INTER + INTRA:         -11.226
REMARK INTER:                 -10.990
REMARK INTRA:                  -0.237
REMARK UNBOUND:                -1.322
REMARK  Name = 
REMARK  7 active torsions:
REMARK  status: ('A' for Active; 'I' for Inactive)
REMARK    1  A    between atoms: C_1  and  O_2
REMARK    2  A    between atoms: O_2  and  C_3
REMARK    3  A    between atoms: C_5  and  C_6
REMARK    4  A    between atoms: C_11  and  N_12
REMARK    5  A    between atoms: N_12  and  C_13
REMARK    6  A    between atoms: C_13  and  C_14
REMARK    7  A    between atoms: C_18  and  C_19
REMARK                            x       y       z     vdW  Elec       q    Type
REMARK                         _______ _______ _______ _____ _____    ______ ____
ROOT
ATOM      1  N   UNL     1      43.894   5.015  10.160  0.00  0.00    +0.000 N 
ATOM      2  H   UNL     1      42.978   5.099   9.727  0.00  0.00    +0.000 HD
ENDROOT
BRANCH   1   8
ATOM      3  C   UNL     1      44.624   2.701   9.512  0.00  0.00    +0.000 A 
ATOM      4  C   UNL     1      45.469   1.915   8.716  0.00  0.00    +0.000 A 
ATOM      5  C   UNL     1      46.427   2.491   7.872  0.00  0.00    +0.000 A 
ATOM      6  C   UNL     1      46.525   3.880   7.816  0.00  0.00    +0.000 A 
ATOM      7  C   UNL     1      45.678   4.672   8.607  0.00  0.00    +0.000 A 
ATOM      8  C   UNL     1      44.730   4.110   9.485  0.00  0.00    +0.000 A 
BRANCH   5   9
ATOM      9  C   UNL     1      47.271   1.558   7.071  0.00  0.00    +0.000 C 
ATOM     10  N   UNL     1      48.325   2.062   6.365  0.00  0.00    +0.000 N 
ATOM     11  O   UNL     1      47.040   0.356   7.038  0.00  0.00    +0.000 OA
ATOM     12  H   UNL     1      48.579   3.035   6.304  0.00  0.00    +0.000 HD
ATOM     13  H   UNL     1      48.862   1.396   5.824  0.00  0.00    +0.000 HD
ENDBRANCH   5   9
BRANCH   3  15
ATOM     14  C   UNL     1      43.666   2.476  11.690  0.00  0.00    +0.000 C 
ATOM     15  O   UNL     1      43.659   2.137  10.309  0.00  0.00    +0.000 OA
ENDBRANCH   3  15
ENDBRANCH   1   8
BRANCH   1  16
ATOM     16  C   UNL     1      44.408   6.288  10.640  0.00  0.00    +0.000 C 
BRANCH  16  17
ATOM     17  C   UNL     1      45.421   6.054  11.737  0.00  0.00    +0.000 A 
ATOM     18  C   UNL     1      45.159   5.149  12.770  0.00  0.00    +0.000 A 
ATOM     19  C   UNL     1      46.097   4.957  13.779  0.00  0.00    +0.000 A 
ATOM     20  C   UNL     1      47.306   5.658  13.756  0.00  0.00    +0.000 A 
ATOM     21  C   UNL     1      47.619   6.556  12.718  0.00  0.00    +0.000 A 
ATOM     22  C   UNL     1      46.649   6.740  11.717  0.00  0.00    +0.000 A 
BRANCH  21  23
ATOM     23  C   UNL     1      48.920   7.253  12.664  0.00  0.00    +0.000 A 
ATOM     24  C   UNL     1      49.501   7.683  11.463  0.00  0.00    +0.000 A 
ATOM     25  C   UNL     1      50.747   8.314  11.458  0.00  0.00    +0.000 A 
ATOM     26  C   UNL     1      51.388   8.511  12.668  0.00  0.00    +0.000 A 
ATOM     27  N   UNL     1      50.877   8.122  13.853  0.00  0.00    +0.000 NA
ATOM     28  C   UNL     1      49.671   7.503  13.818  0.00  0.00    +0.000 A 
ENDBRANCH  21  23
ENDBRANCH  16  17
ENDBRANCH   1  16
TORSDOF 6
ENDMDL
MODEL 5
REMARK VINA RESULT:    -6.932      2.025      2.808
REMARK INTER + INTRA:         -10.685
REMARK INTER:                 -10.192
REMARK INTRA:                  -0.493
REMARK UNBOUND:                -1.322
REMARK  Name = 
REMARK  7 active torsions:
REMARK  status: ('A' for Active; 'I' for Inactive)
REMARK    1  A    between atoms: C_1  and  O_2
REMARK    2  A    between atoms: O_2  and  C_3
REMARK    3  A    between atoms: C_5  and  C_6
REMARK    4  A    between atoms: C_11  and  N_12
REMARK    5  A    between atoms: N_12  and  C_13
REMARK    6  A    between atoms: C_13  and  C_14
REMARK    7  A    between atoms: C_18  and  C_19
REMARK                            x       y       z     vdW  Elec       q    Type
REMARK                         _______ _______ _______ _____ _____    ______ ____
ROOT
ATOM      1  N   UNL     1      46.179   6.699  11.547  0.00  0.00    +0.000 N 
ATOM      2  H   UNL     1      46.458   7.613  11.201  0.00  0.00    +0.000 HD
ENDROOT
BRANCH   1   8
ATOM      3  C   UNL     1      47.833   7.105  13.393  0.00  0.00    +0.000 A 
ATOM      4  C   UNL     1      48.332   6.691  14.635  0.00  0.00    +0.000 A 
ATOM      5  C   UNL     1      47.851   5.540  15.273  0.00  0.00    +0.000 A 
ATOM      6  C   UNL     1      46.841   4.803  14.657  0.00  0.00    +0.000 A 
ATOM      7  C   UNL     1      46.334   5.216  13.415  0.00  0.00    +0.000 A 
ATOM      8  C   UNL     1      46.828   6.354  12.745  0.00  0.00    +0.000 A 
BRANCH   5   9
ATOM      9  C   UNL     1      48.455   5.194  16.592  0.00  0.00    +0.000 C 
ATOM     10  N   UNL     1      47.892   5.697  17.729  0.00  0.00    +0.000 N 
ATOM     11  O   UNL     1      49.440   4.470  16.673  0.00  0.00    +0.000 OA
ATOM     12  H   UNL     1      47.102   6.321  17.766  0.00  0.00    +0.000 HD
ATOM     13  H   UNL     1      48.343   5.449  18.601  0.00  0.00    +0.000 HD
ENDBRANCH   5   9
BRANCH   3  15
ATOM     14  C   UNL     1      49.240   8.122  11.751  0.00  0.00    +0.000 C 
ATOM     15  O   UNL     1      48.277   8.255  12.788  0.00  0.00    +0.000 OA
ENDBRANCH   3  15
ENDBRANCH   1   8
BRANCH   1  16
ATOM     16  C   UNL     1      44.760   6.437  11.365  0.00  0.00    +0.000 C 
BRANCH  16  17
ATOM     17  C   UNL     1      44.556   5.022  10.878  0.00  0.00    +0.000 A 
ATOM     18  C   UNL     1      43.614   4.186  11.485  0.00  0.00    +0.000 A 
ATOM     19  C   UNL     1      43.451   2.881  11.033  0.00  0.00    +0.000 A 
ATOM     20  C   UNL     1      44.216   2.407   9.964  0.00  0.00    +0.000 A 
ATOM     21  C   UNL     1      45.153   3.227   9.307  0.00  0.00    +0.000 A 
ATOM     22  C   UNL     1      45.308   4.538   9.792  0.00  0.00    +0.000 A 
BRANCH  21  23
ATOM     23  C   UNL     1      45.921   2.743   8.141  0.00  0.00    +0.000 A 
ATOM     24  C   UNL     1      46.189   3.546   7.023  0.00  0.00    +0.000 A 
ATOM     25  C   UNL     1      46.895   3.037   5.932  0.00  0.00    +0.000 A 
ATOM     26  C   UNL     1      47.331   1.725   5.985  0.00  0.00    +0.000 A 
ATOM     27  N   UNL     1      47.108   0.909   7.034  0.00  0.00    +0.000 NA
ATOM     28  C   UNL     1      46.408   1.434   8.071  0.00  0.00    +0.000 A 
ENDBRANCH  21  23
ENDBRANCH  16  17
ENDBRANCH   1  16
TORSDOF 6
ENDMDL
MODEL 6
REMARK VINA RESULT:    -6.863      1.630      2.124
REMARK INTER + INTRA:         -10.592
REMARK INTER:                  -9.768
REMARK INTRA:                  -0.825
REMARK UNBOUND:                -1.322
REMARK  Name = 
REMARK  7 active torsions:
REMARK  status: ('A' for Active; 'I' for Inactive)
REMARK    1  A    between atoms: C_1  and  O_2
REMARK    2  A    between atoms: O_2  and  C_3
REMARK    3  A    between atoms: C_5  and  C_6
REMARK    4  A    between atoms: C_11  and  N_12
REMARK    5  A    between atoms: N_12  and  C_13
REMARK    6  A    between atoms: C_13  and  C_14
REMARK    7  A    between atoms: C_18  and  C_19
REMARK                            x       y       z     vdW  Elec       q    Type
REMARK                         _______ _______ _______ _____ _____    ______ ____
ROOT
ATOM      1  N   UNL     1      46.144   5.853  13.637  0.00  0.00    +0.000 N 
ATOM      2  H   UNL     1      46.313   4.870  13.830  0.00  0.00    +0.000 HD
ENDROOT
BRANCH   1   8
ATOM      3  C   UNL     1      48.417   6.747  14.218  0.00  0.00    +0.000 A 
ATOM      4  C   UNL     1      49.576   7.394  13.767  0.00  0.00    +0.000 A 
ATOM      5  C   UNL     1      49.692   7.859  12.451  0.00  0.00    +0.000 A 
ATOM      6  C   UNL     1      48.631   7.656  11.571  0.00  0.00    +0.000 A 
ATOM      7  C   UNL     1      47.470   7.005  12.015  0.00  0.00    +0.000 A 
ATOM      8  C   UNL     1      47.323   6.558  13.345  0.00  0.00    +0.000 A 
BRANCH   5   9
ATOM      9  C   UNL     1      50.970   8.532  12.081  0.00  0.00    +0.000 C 
ATOM     10  N   UNL     1      52.139   8.068  12.611  0.00  0.00    +0.000 N 
ATOM     11  O   UNL     1      50.991   9.487  11.314  0.00  0.00    +0.000 OA
ATOM     12  H   UNL     1      52.224   7.310  13.270  0.00  0.00    +0.000 HD
ATOM     13  H   UNL     1      52.981   8.563  12.344  0.00  0.00    +0.000 HD
ENDBRANCH   5   9
BRANCH   3  15
ATOM     14  C   UNL     1      49.497   6.261  16.294  0.00  0.00    +0.000 C 
ATOM     15  O   UNL     1      48.320   6.257  15.497  0.00  0.00    +0.000 OA
ENDBRANCH   3  15
ENDBRANCH   1   8
BRANCH   1  16
ATOM     16  C   UNL     1      44.932   6.074  12.862  0.00  0.00    +0.000 C 
BRANCH  16  17
ATOM     17  C   UNL     1      44.573   4.820  12.100  0.00  0.00    +0.000 A 
ATOM     18  C   UNL     1      43.587   3.952  12.578  0.00  0.00    +0.000 A 
ATOM     19  C   UNL     1      43.279   2.794  11.870  0.00  0.00    +0.000 A 
ATOM     20  C   UNL     1      43.945   2.503  10.676  0.00  0.00    +0.000 A 
ATOM     21  C   UNL     1      44.923   3.367  10.148  0.00  0.00    +0.000 A 
ATOM     22  C   UNL     1      45.223   4.524  10.888  0.00  0.00    +0.000 A 
BRANCH  21  23
ATOM     23  C   UNL     1      45.586   3.088   8.857  0.00  0.00    +0.000 A 
ATOM     24  C   UNL     1      46.006   1.803   8.483  0.00  0.00    +0.000 A 
ATOM     25  C   UNL     1      46.654   1.592   7.264  0.00  0.00    +0.000 A 
ATOM     26  C   UNL     1      46.862   2.678   6.433  0.00  0.00    +0.000 A 
ATOM     27  N   UNL     1      46.476   3.932   6.738  0.00  0.00    +0.000 NA
ATOM     28  C   UNL     1      45.861   4.102   7.935  0.00  0.00    +0.000 A 
ENDBRANCH  21  23
ENDBRANCH  16  17
ENDBRANCH   1  16
TORSDOF 6
ENDMDL
MODEL 7
REMARK VINA RESULT:    -6.582      2.708      3.700
REMARK INTER + INTRA:         -10.212
REMARK INTER:                  -9.359
REMARK INTRA:                  -0.854
REMARK UNBOUND:                -1.322
REMARK  Name = 
REMARK  7 active torsions:
REMARK  status: ('A' for Active; 'I' for Inactive)
REMARK    1  A    between atoms: C_1  and  O_2
REMARK    2  A    between atoms: O_2  and  C_3
REMARK    3  A    between atoms: C_5  and  C_6
REMARK    4  A    between atoms: C_11  and  N_12
REMARK    5  A    between atoms: N_12  and  C_13
REMARK    6  A    between atoms: C_13  and  C_14
REMARK    7  A    between atoms: C_18  and  C_19
REMARK                            x       y       z     vdW  Elec       q    Type
REMARK                         _______ _______ _______ _____ _____    ______ ____
ROOT
ATOM      1  N   UNL     1      47.209   6.463  12.817  0.00  0.00    +0.000 N 
ATOM      2  H   UNL     1      47.914   7.016  12.338  0.00  0.00    +0.000 HD
ENDROOT
BRANCH   1   8
ATOM      3  C   UNL     1      48.551   6.640  14.931  0.00  0.00    +0.000 A 
ATOM      4  C   UNL     1      48.834   6.096  16.192  0.00  0.00    +0.000 A 
ATOM      5  C   UNL     1      48.232   4.911  16.633  0.00  0.00    +0.000 A 
ATOM      6  C   UNL     1      47.319   4.270  15.797  0.00  0.00    +0.000 A 
ATOM      7  C   UNL     1      47.028   4.812  14.535  0.00  0.00    +0.000 A 
ATOM      8  C   UNL     1      47.648   5.987  14.063  0.00  0.00    +0.000 A 
BRANCH   5   9
ATOM      9  C   UNL     1      48.609   4.425  17.992  0.00  0.00    +0.000 C 
ATOM     10  N   UNL     1      47.620   4.104  18.876  0.00  0.00    +0.000 N 
ATOM     11  O   UNL     1      49.781   4.308  18.326  0.00  0.00    +0.000 OA
ATOM     12  H   UNL     1      46.630   4.193  18.707  0.00  0.00    +0.000 HD
ATOM     13  H   UNL     1      47.920   3.793  19.791  0.00  0.00    +0.000 HD
ENDBRANCH   5   9
BRANCH   3  15
ATOM     14  C   UNL     1      50.530   7.913  14.515  0.00  0.00    +0.000 C 
ATOM     15  O   UNL     1      49.111   7.822  14.517  0.00  0.00    +0.000 OA
ENDBRANCH   3  15
ENDBRANCH   1   8
BRANCH   1  16
ATOM     16  C   UNL     1      45.867   7.001  12.654  0.00  0.00    +0.000 C 
BRANCH  16  17
ATOM     17  C   UNL     1      45.034   6.060  11.815  0.00  0.00    +0.000 A 
ATOM     18  C   UNL     1      43.650   5.979  11.994  0.00  0.00    +0.000 A 
ATOM     19  C   UNL     1      42.901   5.097  11.222  0.00  0.00    +0.000 A 
ATOM     20  C   UNL     1      43.527   4.301  10.259  0.00  0.00    +0.000 A 
ATOM     21  C   UNL     1      44.913   4.375  10.029  0.00  0.00    +0.000 A 
ATOM     22  C   UNL     1      45.649   5.266  10.830  0.00  0.00    +0.000 A 
BRANCH  21  23
ATOM     23  C   UNL     1      45.566   3.574   8.972  0.00  0.00    +0.000 A 
ATOM     24  C   UNL     1      46.161   4.152   7.841  0.00  0.00    +0.000 A 
ATOM     25  C   UNL     1      46.741   3.353   6.854  0.00  0.00    +0.000 A 
ATOM     26  C   UNL     1      46.722   1.981   7.024  0.00  0.00    +0.000 A 
ATOM     27  N   UNL     1      46.169   1.371   8.091  0.00  0.00    +0.000 NA
ATOM     28  C   UNL     1      45.604   2.177   9.024  0.00  0.00    +0.000 A 
ENDBRANCH  21  23
ENDBRANCH  16  17
ENDBRANCH   1  16
TORSDOF 6
ENDMDL
MODEL 8
REMARK VINA RESULT:    -6.512      2.078      2.194
REMARK INTER + INTRA:         -10.118
REMARK INTER:                  -9.157
REMARK INTRA:                  -0.961
REMARK UNBOUND:                -1.322
REMARK  Name = 
REMARK  7 active torsions:
REMARK  status: ('A' for Active; 'I' for Inactive)
REMARK    1  A    between atoms: C_1  and  O_2
REMARK    2  A    between atoms: O_2  and  C_3
REMARK    3  A    between atoms: C_5  and  C_6
REMARK    4  A    between atoms: C_11  and  N_12
REMARK    5  A    between atoms: N_12  and  C_13
REMARK    6  A    between atoms: C_13  and  C_14
REMARK    7  A    between atoms: C_18  and  C_19
REMARK                            x       y       z     vdW  Elec       q    Type
REMARK                         _______ _______ _______ _____ _____    ______ ____
ROOT
ATOM      1  N   UNL     1      46.507   7.340  11.777  0.00  0.00    +0.000 N 
ATOM      2  H   UNL     1      46.915   7.964  11.087  0.00  0.00    +0.000 HD
ENDROOT
BRANCH   1   8
ATOM      3  C   UNL     1      47.726   6.329  13.726  0.00  0.00    +0.000 A 
ATOM      4  C   UNL     1      48.426   6.555  14.919  0.00  0.00    +0.000 A 
ATOM      5  C   UNL     1      48.588   7.844  15.442  0.00  0.00    +0.000 A 
ATOM      6  C   UNL     1      48.052   8.924  14.744  0.00  0.00    +0.000 A 
ATOM      7  C   UNL     1      47.354   8.705  13.546  0.00  0.00    +0.000 A 
ATOM      8  C   UNL     1      47.154   7.412  13.022  0.00  0.00    +0.000 A 
BRANCH   5   9
ATOM      9  C   UNL     1      49.351   7.966  16.718  0.00  0.00    +0.000 C 
ATOM     10  N   UNL     1      48.856   7.370  17.843  0.00  0.00    +0.000 N 
ATOM     11  O   UNL     1      50.407   8.583  16.775  0.00  0.00    +0.000 OA
ATOM     12  H   UNL     1      47.986   6.867  17.905  0.00  0.00    +0.000 HD
ATOM     13  H   UNL     1      49.398   7.491  18.689  0.00  0.00    +0.000 HD
ENDBRANCH   5   9
BRANCH   3  15
ATOM     14  C   UNL     1      46.886   4.103  13.953  0.00  0.00    +0.000 C 
ATOM     15  O   UNL     1      47.601   5.070  13.194  0.00  0.00    +0.000 OA
ENDBRANCH   3  15
ENDBRANCH   1   8
BRANCH   1  16
ATOM     16  C   UNL     1      45.056   7.281  11.693  0.00  0.00    +0.000 C 
BRANCH  16  17
ATOM     17  C   UNL     1      44.620   5.895  11.280  0.00  0.00    +0.000 A 
ATOM     18  C   UNL     1      43.515   5.284  11.880  0.00  0.00    +0.000 A 
ATOM     19  C   UNL     1      43.137   4.002  11.497  0.00  0.00    +0.000 A 
ATOM     20  C   UNL     1      43.851   3.327  10.503  0.00  0.00    +0.000 A 
ATOM     21  C   UNL     1      44.951   3.919   9.854  0.00  0.00    +0.000 A 
ATOM     22  C   UNL     1      45.319   5.211  10.268  0.00  0.00    +0.000 A 
BRANCH  21  23
ATOM     23  C   UNL     1      45.670   3.227   8.764  0.00  0.00    +0.000 A 
ATOM     24  C   UNL     1      46.218   3.906   7.666  0.00  0.00    +0.000 A 
ATOM     25  C   UNL     1      46.866   3.207   6.646  0.00  0.00    +0.000 A 
ATOM     26  C   UNL     1      46.960   1.831   6.749  0.00  0.00    +0.000 A 
ATOM     27  N   UNL     1      46.456   1.126   7.782  0.00  0.00    +0.000 NA
ATOM     28  C   UNL     1      45.824   1.838   8.749  0.00  0.00    +0.000 A 
ENDBRANCH  21  23
ENDBRANCH  16  17
ENDBRANCH   1  16
TORSDOF 6
ENDMDL
MODEL 9
REMARK VINA RESULT:    -6.502      2.560      6.698
REMARK INTER + INTRA:         -10.104
REMARK INTER:                  -9.312
REMARK INTRA:                  -0.792
REMARK UNBOUND:                -1.322
REMARK  Name = 
REMARK  7 active torsions:
REMARK  status: ('A' for Active; 'I' for Inactive)
REMARK    1  A    between atoms: C_1  and  O_2
REMARK    2  A    between atoms: O_2  and  C_3
REMARK    3  A    between atoms: C_5  and  C_6
REMARK    4  A    between atoms: C_11  and  N_12
REMARK    5  A    between atoms: N_12  and  C_13
REMARK    6  A    between atoms: C_13  and  C_14
REMARK    7  A    between atoms: C_18  and  C_19
REMARK                            x       y       z     vdW  Elec       q    Type
REMARK                         _______ _______ _______ _____ _____    ______ ____
ROOT
ATOM      1  N   UNL     1      43.857   3.570  10.554  0.00  0.00    +0.000 N 
ATOM      2  H   UNL     1      43.556   4.540  10.584  0.00  0.00    +0.000 HD
ENDROOT
BRANCH   1   8
ATOM      3  C   UNL     1      45.465   4.257   8.752  0.00  0.00    +0.000 A 
ATOM      4  C   UNL     1      46.355   3.843   7.752  0.00  0.00    +0.000 A 
ATOM      5  C   UNL     1      46.537   2.489   7.445  0.00  0.00    +0.000 A 
ATOM      6  C   UNL     1      45.821   1.535   8.166  0.00  0.00    +0.000 A 
ATOM      7  C   UNL     1      44.932   1.942   9.172  0.00  0.00    +0.000 A 
ATOM      8  C   UNL     1      44.714   3.303   9.473  0.00  0.00    +0.000 A 
BRANCH   5   9
ATOM      9  C   UNL     1      47.510   2.164   6.362  0.00  0.00    +0.000 C 
ATOM     10  N   UNL     1      47.446   2.856   5.187  0.00  0.00    +0.000 N 
ATOM     11  O   UNL     1      48.362   1.296   6.507  0.00  0.00    +0.000 OA
ATOM     12  H   UNL     1      46.767   3.566   4.960  0.00  0.00    +0.000 HD
ATOM     13  H   UNL     1      48.116   2.594   4.474  0.00  0.00    +0.000 HD
ENDBRANCH   5   9
BRANCH   3  15
ATOM     14  C   UNL     1      46.468   6.278   9.538  0.00  0.00    +0.000 C 
ATOM     15  O   UNL     1      45.317   5.582   9.079  0.00  0.00    +0.000 OA
ENDBRANCH   3  15
ENDBRANCH   1   8
BRANCH   1  16
ATOM     16  C   UNL     1      44.129   3.024  11.874  0.00  0.00    +0.000 C 
BRANCH  16  17
ATOM     17  C   UNL     1      45.198   3.842  12.560  0.00  0.00    +0.000 A 
ATOM     18  C   UNL     1      46.180   3.224  13.339  0.00  0.00    +0.000 A 
ATOM     19  C   UNL     1      47.148   3.995  13.974  0.00  0.00    +0.000 A 
ATOM     20  C   UNL     1      47.148   5.385  13.826  0.00  0.00    +0.000 A 
ATOM     21  C   UNL     1      46.193   6.041  13.026  0.00  0.00    +0.000 A 
ATOM     22  C   UNL     1      45.219   5.240  12.404  0.00  0.00    +0.000 A 
BRANCH  21  23
ATOM     23  C   UNL     1      46.227   7.505  12.824  0.00  0.00    +0.000 A 
ATOM     24  C   UNL     1      45.099   8.245  12.444  0.00  0.00    +0.000 A 
ATOM     25  C   UNL     1      45.185   9.623  12.237  0.00  0.00    +0.000 A 
ATOM     26  C   UNL     1      46.409  10.240  12.425  0.00  0.00    +0.000 A 
ATOM     27  N   UNL     1      47.525   9.581  12.794  0.00  0.00    +0.000 NA
ATOM     28  C   UNL     1      47.406   8.242  12.974  0.00  0.00    +0.000 A 
ENDBRANCH  21  23
ENDBRANCH  16  17
ENDBRANCH   1  16
TORSDOF 6
ENDMDL
