MODEL 1
REMARK VINA RESULT:    -7.169      0.000      0.000
REMARK INTER + INTRA:          -9.698
REMARK INTER:                  -9.264
REMARK INTRA:                  -0.434
REMARK UNBOUND:                -0.434
REMARK  Name = 
REMARK  6 active torsions:
REMARK  status: ('A' for Active; 'I' for Inactive)
REMARK    1  A    between atoms: C_1  and  C_2
REMARK    2  A    between atoms: C_5  and  O_6
REMARK    3  A    between atoms: O_6  and  C_7
REMARK    4  A    between atoms: C_11  and  C_12
REMARK    5  A    between atoms: C_13  and  C_14
REMARK    6  A    between atoms: C_17  and  C_18
REMARK                            x       y       z     vdW  Elec       q    Type
REMARK                         _______ _______ _______ _____ _____    ______ ____
ROOT
ATOM      1  C   UNL     1      46.179   5.334  13.671  0.00  0.00    +0.000 C 
ATOM      2  C   UNL     1      46.490   4.337  14.518  0.00  0.00    +0.000 C 
ENDROOT
BRANCH   1   7
ATOM      3  C   UNL     1      44.921   4.845  10.148  0.00  0.00    +0.000 A 
ATOM      4  C   UNL     1      43.541   4.767  10.346  0.00  0.00    +0.000 A 
ATOM      5  C   UNL     1      43.016   4.911  11.630  0.00  0.00    +0.000 A 
ATOM      6  C   UNL     1      43.864   5.117  12.719  0.00  0.00    +0.000 A 
ATOM      7  C   UNL     1      45.251   5.175  12.541  0.00  0.00    +0.000 A 
ATOM      8  C   UNL     1      45.766   5.075  11.240  0.00  0.00    +0.000 A 
BRANCH   3   9
ATOM      9  O   UNL     1      45.545   4.726   8.929  0.00  0.00    +0.000 OA
BRANCH   9  14
ATOM     10  C   UNL     1      46.721   2.961   5.991  0.00  0.00    +0.000 C 
ATOM     11  C   UNL     1      46.655   2.942   7.505  0.00  0.00    +0.000 C 
ATOM     12  O   UNL     1      46.359   1.604   7.996  0.00  0.00    +0.000 OA
ATOM     13  C   UNL     1      45.425   2.169   8.953  0.00  0.00    +0.000 C 
ATOM     14  C   UNL     1      45.378   3.498   8.181  0.00  0.00    +0.000 C 
ENDBRANCH   9  14
ENDBRANCH   3   9
ENDBRANCH   1   7
BRANCH   2  15
ATOM     15  C   UNL     1      47.480   4.451  15.596  0.00  0.00    +0.000 A 
ATOM     16  C   UNL     1      47.626   3.423  16.525  0.00  0.00    +0.000 A 
ATOM     17  C   UNL     1      48.610   3.541  17.509  0.00  0.00    +0.000 A 
ATOM     18  C   UNL     1      49.426   4.673  17.543  0.00  0.00    +0.000 A 
ATOM     19  C   UNL     1      49.201   5.645  16.581  0.00  0.00    +0.000 A 
ATOM     20  N   UNL     1      48.252   5.561  15.616  0.00  0.00    +0.000 NA
BRANCH  18  21
ATOM     21  C   UNL     1      50.477   4.781  18.581  0.00  0.00    +0.000 C 
ATOM     22  N   UNL     1      51.329   3.730  18.778  0.00  0.00    +0.000 N 
ATOM     23  O   UNL     1      50.591   5.796  19.263  0.00  0.00    +0.000 OA
ATOM     24  H   UNL     1      51.325   2.858  18.272  0.00  0.00    +0.000 HD
ATOM     25  H   UNL     1      52.029   3.847  19.498  0.00  0.00    +0.000 HD
ENDBRANCH  18  21
ENDBRANCH   2  15
TORSDOF 5
ENDMDL
MODEL 2
REMARK VINA RESULT:    -6.380      2.754      3.390
REMARK INTER + INTRA:          -8.679
REMARK INTER:                  -8.371
REMARK INTRA:                  -0.308
REMARK UNBOUND:                -0.434
REMARK  Name = 
REMARK  6 active torsions:
REMARK  status: ('A' for Active; 'I' for Inactive)
REMARK    1  A    between atoms: C_1  and  C_2
REMARK    2  A    between atoms: C_5  and  O_6
REMARK    3  A    between atoms: O_6  and  C_7
REMARK    4  A    between atoms: C_11  and  C_12
REMARK    5  A    between atoms: C_13  and  C_14
REMARK    6  A    between atoms: C_17  and  C_18
REMARK                            x       y       z     vdW  Elec       q    Type
REMARK                         _______ _______ _______ _____ _____    ______ ____
ROOT
ATOM      1  C   UNL     1      46.642   6.285  12.183  0.00  0.00    +0.000 C 
ATOM      2  C   UNL     1      47.617   5.853  13.003  0.00  0.00    +0.000 C 
ENDROOT
BRANCH   1   7
ATOM      3  C   UNL     1      44.452   4.351   9.796  0.00  0.00    +0.000 A 
ATOM      4  C   UNL     1      43.581   3.700  10.671  0.00  0.00    +0.000 A 
ATOM      5  C   UNL     1      43.685   3.921  12.045  0.00  0.00    +0.000 A 
ATOM      6  C   UNL     1      44.665   4.778  12.548  0.00  0.00    +0.000 A 
ATOM      7  C   UNL     1      45.561   5.420  11.686  0.00  0.00    +0.000 A 
ATOM      8  C   UNL     1      45.418   5.227  10.305  0.00  0.00    +0.000 A 
BRANCH   3   9
ATOM      9  O   UNL     1      44.435   4.215   8.428  0.00  0.00    +0.000 OA
BRANCH   9  14
ATOM     10  C   UNL     1      46.678   2.961   5.873  0.00  0.00    +0.000 C 
ATOM     11  C   UNL     1      46.419   3.042   7.365  0.00  0.00    +0.000 C 
ATOM     12  O   UNL     1      46.696   1.766   8.010  0.00  0.00    +0.000 OA
ATOM     13  C   UNL     1      45.485   1.909   8.798  0.00  0.00    +0.000 C 
ATOM     14  C   UNL     1      44.948   2.992   7.847  0.00  0.00    +0.000 C 
ENDBRANCH   9  14
ENDBRANCH   3   9
ENDBRANCH   1   7
BRANCH   2  15
ATOM     15  C   UNL     1      48.752   6.675  13.438  0.00  0.00    +0.000 A 
ATOM     16  C   UNL     1      49.415   7.494  12.527  0.00  0.00    +0.000 A 
ATOM     17  C   UNL     1      50.460   8.300  12.983  0.00  0.00    +0.000 A 
ATOM     18  C   UNL     1      50.819   8.273  14.332  0.00  0.00    +0.000 A 
ATOM     19  C   UNL     1      50.106   7.420  15.161  0.00  0.00    +0.000 A 
ATOM     20  N   UNL     1      49.090   6.624  14.746  0.00  0.00    +0.000 NA
BRANCH  18  21
ATOM     21  C   UNL     1      51.919   9.142  14.808  0.00  0.00    +0.000 C 
ATOM     22  N   UNL     1      53.130   9.093  14.176  0.00  0.00    +0.000 N 
ATOM     23  O   UNL     1      51.757   9.903  15.760  0.00  0.00    +0.000 OA
ATOM     24  H   UNL     1      53.366   8.512  13.387  0.00  0.00    +0.000 HD
ATOM     25  H   UNL     1      53.852   9.703  14.536  0.00  0.00    +0.000 HD
ENDBRANCH  18  21
ENDBRANCH   2  15
TORSDOF 5
ENDMDL
MODEL 3
REMARK VINA RESULT:    -6.034      2.811      9.174
REMARK INTER + INTRA:          -8.232
REMARK INTER:                  -7.697
REMARK INTRA:                  -0.535
REMARK UNBOUND:                -0.434
REMARK  Name = 
REMARK  6 active torsions:
REMARK  status: ('A' for Active; 'I' for Inactive)
REMARK    1  A    between atoms: C_1  and  C_2
REMARK    2  A    between atoms: C_5  and  O_6
REMARK    3  A    between atoms: O_6  and  C_7
REMARK    4  A    between atoms: C_11  and  C_12
REMARK    5  A    between atoms: C_13  and  C_14
REMARK    6  A    between atoms: C_17  and  C_18
REMARK                            x       y       z     vdW  Elec       q    Type
REMARK                         _______ _______ _______ _____ _____    ______ ____
ROOT
ATOM      1  C   UNL     1      47.153   4.349  15.917  0.00  0.00    +0.000 C 
ATOM      2  C   UNL     1      47.197   5.073  14.784  0.00  0.00    +0.000 C 
ENDROOT
BRANCH   1   7
ATOM      3  C   UNL     1      50.192   4.752  18.115  0.00  0.00    +0.000 A 
ATOM      4  C   UNL     1      49.634   5.279  19.281  0.00  0.00    +0.000 A 
ATOM      5  C   UNL     1      48.254   5.471  19.363  0.00  0.00    +0.000 A 
ATOM      6  C   UNL     1      47.433   5.152  18.281  0.00  0.00    +0.000 A 
ATOM      7  C   UNL     1      47.979   4.644  17.097  0.00  0.00    +0.000 A 
ATOM      8  C   UNL     1      49.361   4.411  17.041  0.00  0.00    +0.000 A 
BRANCH   3   9
ATOM      9  O   UNL     1      51.533   4.514  17.927  0.00  0.00    +0.000 OA
BRANCH   9  14
ATOM     10  C   UNL     1      52.044   0.934  17.686  0.00  0.00    +0.000 C 
ATOM     11  C   UNL     1      52.729   2.287  17.694  0.00  0.00    +0.000 C 
ATOM     12  O   UNL     1      53.947   2.247  18.490  0.00  0.00    +0.000 OA
ATOM     13  C   UNL     1      53.598   3.530  19.076  0.00  0.00    +0.000 C 
ATOM     14  C   UNL     1      52.140   3.390  18.608  0.00  0.00    +0.000 C 
ENDBRANCH   9  14
ENDBRANCH   3   9
ENDBRANCH   1   7
BRANCH   2  15
ATOM     15  C   UNL     1      46.447   4.742  13.565  0.00  0.00    +0.000 A 
ATOM     16  C   UNL     1      46.275   5.699  12.567  0.00  0.00    +0.000 A 
ATOM     17  C   UNL     1      45.599   5.339  11.400  0.00  0.00    +0.000 A 
ATOM     18  C   UNL     1      45.113   4.038  11.253  0.00  0.00    +0.000 A 
ATOM     19  C   UNL     1      45.328   3.159  12.303  0.00  0.00    +0.000 A 
ATOM     20  N   UNL     1      45.977   3.480  13.449  0.00  0.00    +0.000 NA
BRANCH  18  21
ATOM     21  C   UNL     1      44.411   3.662  10.004  0.00  0.00    +0.000 C 
ATOM     22  N   UNL     1      43.884   4.644   9.214  0.00  0.00    +0.000 N 
ATOM     23  O   UNL     1      44.297   2.484   9.673  0.00  0.00    +0.000 OA
ATOM     24  H   UNL     1      43.926   5.636   9.389  0.00  0.00    +0.000 HD
ATOM     25  H   UNL     1      43.413   4.341   8.372  0.00  0.00    +0.000 HD
ENDBRANCH  18  21
ENDBRANCH   2  15
TORSDOF 5
ENDMDL
MODEL 4
REMARK VINA RESULT:    -5.940      3.094      9.598
REMARK INTER + INTRA:          -8.111
REMARK INTER:                  -7.537
REMARK INTRA:                  -0.574
REMARK UNBOUND:                -0.434
REMARK  Name = 
REMARK  6 active torsions:
REMARK  status: ('A' for Active; 'I' for Inactive)
REMARK    1  A    between atoms: C_1  and  C_2
REMARK    2  A    between atoms: C_5  and  O_6
REMARK    3  A    between atoms: O_6  and  C_7
REMARK    4  A    between atoms: C_11  and  C_12
REMARK    5  A    between atoms: C_13  and  C_14
REMARK    6  A    between atoms: C_17  and  C_18
REMARK                            x       y       z     vdW  Elec       q    Type
REMARK                         _______ _______ _______ _____ _____    ______ ____
ROOT
ATOM      1  C   UNL     1      47.363   4.242  16.043  0.00  0.00    +0.000 C 
ATOM      2  C   UNL     1      47.276   5.058  14.977  0.00  0.00    +0.000 C 
ENDROOT
BRANCH   1   7
ATOM      3  C   UNL     1      48.593   5.689  19.303  0.00  0.00    +0.000 A 
ATOM      4  C   UNL     1      49.794   5.003  19.485  0.00  0.00    +0.000 A 
ATOM      5  C   UNL     1      50.223   4.089  18.522  0.00  0.00    +0.000 A 
ATOM      6  C   UNL     1      49.450   3.848  17.385  0.00  0.00    +0.000 A 
ATOM      7  C   UNL     1      48.231   4.512  17.199  0.00  0.00    +0.000 A 
ATOM      8  C   UNL     1      47.832   5.462  18.150  0.00  0.00    +0.000 A 
BRANCH   3   9
ATOM      9  O   UNL     1      48.079   6.615  20.180  0.00  0.00    +0.000 OA
BRANCH   9  14
ATOM     10  C   UNL     1      47.831   9.372  17.841  0.00  0.00    +0.000 C 
ATOM     11  C   UNL     1      47.412   8.862  19.206  0.00  0.00    +0.000 C 
ATOM     12  O   UNL     1      47.489   9.922  20.201  0.00  0.00    +0.000 OA
ATOM     13  C   UNL     1      48.092   8.989  21.138  0.00  0.00    +0.000 C 
ATOM     14  C   UNL     1      48.429   8.008  20.002  0.00  0.00    +0.000 C 
ENDBRANCH   9  14
ENDBRANCH   3   9
ENDBRANCH   1   7
BRANCH   2  15
ATOM     15  C   UNL     1      46.485   4.763  13.776  0.00  0.00    +0.000 A 
ATOM     16  C   UNL     1      46.107   5.791  12.916  0.00  0.00    +0.000 A 
ATOM     17  C   UNL     1      45.396   5.471  11.757  0.00  0.00    +0.000 A 
ATOM     18  C   UNL     1      45.082   4.139  11.481  0.00  0.00    +0.000 A 
ATOM     19  C   UNL     1      45.496   3.187  12.400  0.00  0.00    +0.000 A 
ATOM     20  N   UNL     1      46.183   3.467  13.534  0.00  0.00    +0.000 NA
BRANCH  18  21
ATOM     21  C   UNL     1      44.343   3.809  10.241  0.00  0.00    +0.000 C 
ATOM     22  N   UNL     1      44.322   4.714   9.216  0.00  0.00    +0.000 N 
ATOM     23  O   UNL     1      43.750   2.739  10.124  0.00  0.00    +0.000 OA
ATOM     24  H   UNL     1      44.777   5.613   9.207  0.00  0.00    +0.000 HD
ATOM     25  H   UNL     1      43.804   4.447   8.390  0.00  0.00    +0.000 HD
ENDBRANCH  18  21
ENDBRANCH   2  15
TORSDOF 5
ENDMDL
MODEL 5
REMARK VINA RESULT:    -5.922      2.845      8.851
REMARK INTER + INTRA:          -8.087
REMARK INTER:                  -7.394
REMARK INTRA:                  -0.692
REMARK UNBOUND:                -0.434
REMARK  Name = 
REMARK  6 active torsions:
REMARK  status: ('A' for Active; 'I' for Inactive)
REMARK    1  A    between atoms: C_1  and  C_2
REMARK    2  A    between atoms: C_5  and  O_6
REMARK    3  A    between atoms: O_6  and  C_7
REMARK    4  A    between atoms: C_11  and  C_12
REMARK    5  A    between atoms: C_13  and  C_14
REMARK    6  A    between atoms: C_17  and  C_18
REMARK                            x       y       z     vdW  Elec       q    Type
REMARK                         _______ _______ _______ _____ _____    ______ ____
ROOT
ATOM      1  C   UNL     1      47.139   4.236  15.728  0.00  0.00    +0.000 C 
ATOM      2  C   UNL     1      47.135   5.004  14.624  0.00  0.00    +0.000 C 
ENDROOT
BRANCH   1   7
ATOM      3  C   UNL     1      49.439   6.062  18.096  0.00  0.00    +0.000 A 
ATOM      4  C   UNL     1      49.471   5.194  19.189  0.00  0.00    +0.000 A 
ATOM      5  C   UNL     1      48.768   3.991  19.139  0.00  0.00    +0.000 A 
ATOM      6  C   UNL     1      48.021   3.657  18.008  0.00  0.00    +0.000 A 
ATOM      7  C   UNL     1      47.960   4.527  16.913  0.00  0.00    +0.000 A 
ATOM      8  C   UNL     1      48.707   5.712  16.955  0.00  0.00    +0.000 A 
BRANCH   3   9
ATOM      9  O   UNL     1      50.098   7.267  18.033  0.00  0.00    +0.000 OA
BRANCH   9  14
ATOM     10  C   UNL     1      48.259   9.151  15.544  0.00  0.00    +0.000 C 
ATOM     11  C   UNL     1      49.397   9.199  16.544  0.00  0.00    +0.000 C 
ATOM     12  O   UNL     1      50.549   9.892  15.987  0.00  0.00    +0.000 OA
ATOM     13  C   UNL     1      51.422   8.873  16.543  0.00  0.00    +0.000 C 
ATOM     14  C   UNL     1      50.237   7.915  16.746  0.00  0.00    +0.000 C 
ENDBRANCH   9  14
ENDBRANCH   3   9
ENDBRANCH   1   7
BRANCH   2  15
ATOM     15  C   UNL     1      46.393   4.683  13.399  0.00  0.00    +0.000 A 
ATOM     16  C   UNL     1      46.264   5.632  12.388  0.00  0.00    +0.000 A 
ATOM     17  C   UNL     1      45.593   5.279  11.216  0.00  0.00    +0.000 A 
ATOM     18  C   UNL     1      45.070   3.992  11.076  0.00  0.00    +0.000 A 
ATOM     19  C   UNL     1      45.243   3.119  12.138  0.00  0.00    +0.000 A 
ATOM     20  N   UNL     1      45.885   3.434  13.290  0.00  0.00    +0.000 NA
BRANCH  18  21
ATOM     21  C   UNL     1      44.374   3.623   9.822  0.00  0.00    +0.000 C 
ATOM     22  N   UNL     1      43.841   4.610   9.040  0.00  0.00    +0.000 N 
ATOM     23  O   UNL     1      44.271   2.449   9.478  0.00  0.00    +0.000 OA
ATOM     24  H   UNL     1      43.874   5.600   9.227  0.00  0.00    +0.000 HD
ATOM     25  H   UNL     1      43.373   4.312   8.194  0.00  0.00    +0.000 HD
ENDBRANCH  18  21
ENDBRANCH   2  15
TORSDOF 5
ENDMDL
MODEL 6
REMARK VINA RESULT:    -5.840      5.895      7.719
REMARK INTER + INTRA:          -7.981
REMARK INTER:                  -7.314
REMARK INTRA:                  -0.667
REMARK UNBOUND:                -0.434
REMARK  Name = 
REMARK  6 active torsions:
REMARK  status: ('A' for Active; 'I' for Inactive)
REMARK    1  A    between atoms: C_1  and  C_2
REMARK    2  A    between atoms: C_5  and  O_6
REMARK    3  A    between atoms: O_6  and  C_7
REMARK    4  A    between atoms: C_11  and  C_12
REMARK    5  A    between atoms: C_13  and  C_14
REMARK    6  A    between atoms: C_17  and  C_18
REMARK                            x       y       z     vdW  Elec       q    Type
REMARK                         _______ _______ _______ _____ _____    ______ ____
ROOT
ATOM      1  C   UNL     1      49.347   7.805  11.510  0.00  0.00    +0.000 C 
ATOM      2  C   UNL     1      48.992   6.974  12.507  0.00  0.00    +0.000 C 
ENDROOT
BRANCH   1   7
ATOM      3  C   UNL     1      53.019   8.288  10.795  0.00  0.00    +0.000 A 
ATOM      4  C   UNL     1      53.202   9.630  11.133  0.00  0.00    +0.000 A 
ATOM      5  C   UNL     1      52.130  10.371  11.632  0.00  0.00    +0.000 A 
ATOM      6  C   UNL     1      50.874   9.782  11.779  0.00  0.00    +0.000 A 
ATOM      7  C   UNL     1      50.668   8.444  11.423  0.00  0.00    +0.000 A 
ATOM      8  C   UNL     1      51.763   7.695  10.967  0.00  0.00    +0.000 A 
BRANCH   3   9
ATOM      9  O   UNL     1      54.003   7.463  10.304  0.00  0.00    +0.000 OA
BRANCH   9  14
ATOM     10  C   UNL     1      52.272   6.522   7.263  0.00  0.00    +0.000 C 
ATOM     11  C   UNL     1      53.611   6.533   7.975  0.00  0.00    +0.000 C 
ATOM     12  O   UNL     1      54.316   5.276   7.774  0.00  0.00    +0.000 OA
ATOM     13  C   UNL     1      54.691   5.270   9.178  0.00  0.00    +0.000 C 
ATOM     14  C   UNL     1      53.615   6.318   9.509  0.00  0.00    +0.000 C 
ENDBRANCH   9  14
ENDBRANCH   3   9
ENDBRANCH   1   7
BRANCH   2  15
ATOM     15  C   UNL     1      47.650   6.398  12.661  0.00  0.00    +0.000 A 
ATOM     16  C   UNL     1      46.618   6.786  11.810  0.00  0.00    +0.000 A 
ATOM     17  C   UNL     1      45.366   6.184  11.952  0.00  0.00    +0.000 A 
ATOM     18  C   UNL     1      45.172   5.210  12.934  0.00  0.00    +0.000 A 
ATOM     19  C   UNL     1      46.257   4.895  13.737  0.00  0.00    +0.000 A 
ATOM     20  N   UNL     1      47.482   5.465  13.625  0.00  0.00    +0.000 NA
BRANCH  18  21
ATOM     21  C   UNL     1      43.845   4.566  13.066  0.00  0.00    +0.000 C 
ATOM     22  N   UNL     1      42.727   5.350  13.123  0.00  0.00    +0.000 N 
ATOM     23  O   UNL     1      43.739   3.344  13.125  0.00  0.00    +0.000 OA
ATOM     24  H   UNL     1      42.703   6.357  13.078  0.00  0.00    +0.000 HD
ATOM     25  H   UNL     1      41.843   4.867  13.215  0.00  0.00    +0.000 HD
ENDBRANCH  18  21
ENDBRANCH   2  15
TORSDOF 5
ENDMDL
MODEL 7
REMARK VINA RESULT:    -5.840      1.967      3.204
REMARK INTER + INTRA:          -7.981
REMARK INTER:                  -7.362
REMARK INTRA:                  -0.619
REMARK UNBOUND:                -0.434
REMARK  Name = 
REMARK  6 active torsions:
REMARK  status: ('A' for Active; 'I' for Inactive)
REMARK    1  A    between atoms: C_1  and  C_2
REMARK    2  A    between atoms: C_5  and  O_6
REMARK    3  A    between atoms: O_6  and  C_7
REMARK    4  A    between atoms: C_11  and  C_12
REMARK    5  A    between atoms: C_13  and  C_14
REMARK    6  A    between atoms: C_17  and  C_18
REMARK                            x       y       z     vdW  Elec       q    Type
REMARK                         _______ _______ _______ _____ _____    ______ ____
ROOT
ATOM      1  C   UNL     1      48.059   6.261  13.969  0.00  0.00    +0.000 C 
ATOM      2  C   UNL     1      48.316   6.616  15.241  0.00  0.00    +0.000 C 
ENDROOT
BRANCH   1   7
ATOM      3  C   UNL     1      45.346   6.699  11.386  0.00  0.00    +0.000 A 
ATOM      4  C   UNL     1      44.952   8.021  11.605  0.00  0.00    +0.000 A 
ATOM      5  C   UNL     1      45.600   8.784  12.577  0.00  0.00    +0.000 A 
ATOM      6  C   UNL     1      46.628   8.228  13.339  0.00  0.00    +0.000 A 
ATOM      7  C   UNL     1      47.019   6.898  13.147  0.00  0.00    +0.000 A 
ATOM      8  C   UNL     1      46.393   6.154  12.137  0.00  0.00    +0.000 A 
BRANCH   3   9
ATOM      9  O   UNL     1      44.785   5.860  10.452  0.00  0.00    +0.000 OA
BRANCH   9  14
ATOM     10  C   UNL     1      43.594   3.079  12.447  0.00  0.00    +0.000 C 
ATOM     11  C   UNL     1      43.639   3.677  11.054  0.00  0.00    +0.000 C 
ATOM     12  O   UNL     1      43.888   2.648  10.055  0.00  0.00    +0.000 OA
ATOM     13  C   UNL     1      44.827   3.532   9.387  0.00  0.00    +0.000 C 
ATOM     14  C   UNL     1      44.924   4.431  10.632  0.00  0.00    +0.000 C 
ENDBRANCH   9  14
ENDBRANCH   3   9
ENDBRANCH   1   7
BRANCH   2  15
ATOM     15  C   UNL     1      49.286   5.934  16.107  0.00  0.00    +0.000 A 
ATOM     16  C   UNL     1      50.540   6.497  16.334  0.00  0.00    +0.000 A 
ATOM     17  C   UNL     1      51.422   5.848  17.200  0.00  0.00    +0.000 A 
ATOM     18  C   UNL     1      51.035   4.658  17.821  0.00  0.00    +0.000 A 
ATOM     19  C   UNL     1      49.770   4.173  17.528  0.00  0.00    +0.000 A 
ATOM     20  N   UNL     1      48.894   4.778  16.688  0.00  0.00    +0.000 NA
BRANCH  18  21
ATOM     21  C   UNL     1      51.972   3.986  18.751  0.00  0.00    +0.000 C 
ATOM     22  N   UNL     1      52.378   2.710  18.480  0.00  0.00    +0.000 N 
ATOM     23  O   UNL     1      52.384   4.559  19.756  0.00  0.00    +0.000 OA
ATOM     24  H   UNL     1      52.106   2.154  17.684  0.00  0.00    +0.000 HD
ATOM     25  H   UNL     1      53.017   2.290  19.143  0.00  0.00    +0.000 HD
ENDBRANCH  18  21
ENDBRANCH   2  15
TORSDOF 5
ENDMDL
MODEL 8
REMARK VINA RESULT:    -5.499      5.555      6.606
REMARK INTER + INTRA:          -7.540
REMARK INTER:                  -7.255
REMARK INTRA:                  -0.285
REMARK UNBOUND:                -0.434
REMARK  Name = 
REMARK  6 active torsions:
REMARK  status: ('A' for Active; 'I' for Inactive)
REMARK    1  A    between atoms: C_1  and  C_2
REMARK    2  A    between atoms: C_5  and  O_6
REMARK    3  A    between atoms: O_6  and  C_7
REMARK    4  A    between atoms: C_11  and  C_12
REMARK    5  A    between atoms: C_13  and  C_14
REMARK    6  A    between atoms: C_17  and  C_18
REMARK                            x       y       z     vdW  Elec       q    Type
REMARK                         _______ _______ _______ _____ _____    ______ ____
ROOT
ATOM      1  C   UNL     1      48.392   7.396  11.453  0.00  0.00    +0.000 C 
ATOM      2  C   UNL     1      49.555   7.725  12.041  0.00  0.00    +0.000 C 
ENDROOT
BRANCH   1   7
ATOM      3  C   UNL     1      45.057   5.761  12.113  0.00  0.00    +0.000 A 
ATOM      4  C   UNL     1      45.312   5.057  13.291  0.00  0.00    +0.000 A 
ATOM      5  C   UNL     1      46.567   5.145  13.893  0.00  0.00    +0.000 A 
ATOM      6  C   UNL     1      47.573   5.921  13.315  0.00  0.00    +0.000 A 
ATOM      7  C   UNL     1      47.340   6.614  12.121  0.00  0.00    +0.000 A 
ATOM      8  C   UNL     1      46.061   6.556  11.549  0.00  0.00    +0.000 A 
BRANCH   3   9
ATOM      9  O   UNL     1      43.858   5.753  11.440  0.00  0.00    +0.000 OA
BRANCH   9  14
ATOM     10  C   UNL     1      44.812   3.999   8.417  0.00  0.00    +0.000 C 
ATOM     11  C   UNL     1      44.722   3.908   9.927  0.00  0.00    +0.000 C 
ATOM     12  O   UNL     1      44.229   2.602  10.340  0.00  0.00    +0.000 OA
ATOM     13  C   UNL     1      43.371   3.243  11.321  0.00  0.00    +0.000 C 
ATOM     14  C   UNL     1      43.528   4.605  10.624  0.00  0.00    +0.000 C 
ENDBRANCH   9  14
ENDBRANCH   3   9
ENDBRANCH   1   7
BRANCH   2  15
ATOM     15  C   UNL     1      50.653   8.425  11.363  0.00  0.00    +0.000 A 
ATOM     16  C   UNL     1      51.620   7.705  10.666  0.00  0.00    +0.000 A 
ATOM     17  C   UNL     1      52.624   8.404   9.992  0.00  0.00    +0.000 A 
ATOM     18  C   UNL     1      52.639   9.799  10.024  0.00  0.00    +0.000 A 
ATOM     19  C   UNL     1      51.638  10.427  10.749  0.00  0.00    +0.000 A 
ATOM     20  N   UNL     1      50.654   9.777  11.417  0.00  0.00    +0.000 NA
BRANCH  18  21
ATOM     21  C   UNL     1      53.698  10.531   9.292  0.00  0.00    +0.000 C 
ATOM     22  N   UNL     1      53.390  11.145   8.110  0.00  0.00    +0.000 N 
ATOM     23  O   UNL     1      54.844  10.592   9.732  0.00  0.00    +0.000 OA
ATOM     24  H   UNL     1      52.485  11.160   7.666  0.00  0.00    +0.000 HD
ATOM     25  H   UNL     1      54.145  11.631   7.645  0.00  0.00    +0.000 HD
ENDBRANCH  18  21
ENDBRANCH   2  15
TORSDOF 5
ENDMDL
MODEL 9
REMARK VINA RESULT:    -5.437      3.011      9.458
REMARK INTER + INTRA:          -7.460
REMARK INTER:                  -6.777
REMARK INTRA:                  -0.683
REMARK UNBOUND:                -0.434
REMARK  Name = 
REMARK  6 active torsions:
REMARK  status: ('A' for Active; 'I' for Inactive)
REMARK    1  A    between atoms: C_1  and  C_2
REMARK    2  A    between atoms: C_5  and  O_6
REMARK    3  A    between atoms: O_6  and  C_7
REMARK    4  A    between atoms: C_11  and  C_12
REMARK    5  A    between atoms: C_13  and  C_14
REMARK    6  A    between atoms: C_17  and  C_18
REMARK                            x       y       z     vdW  Elec       q    Type
REMARK                         _______ _______ _______ _____ _____    ______ ____
ROOT
ATOM      1  C   UNL     1      48.280   6.302  14.822  0.00  0.00    +0.000 C 
ATOM      2  C   UNL     1      47.943   6.713  13.586  0.00  0.00    +0.000 C 
ENDROOT
BRANCH   1   7
ATOM      3  C   UNL     1      50.515   7.147  17.741  0.00  0.00    +0.000 A 
ATOM      4  C   UNL     1      51.509   7.911  17.128  0.00  0.00    +0.000 A 
ATOM      5  C   UNL     1      51.431   8.182  15.761  0.00  0.00    +0.000 A 
ATOM      6  C   UNL     1      50.372   7.681  15.003  0.00  0.00    +0.000 A 
ATOM      7  C   UNL     1      49.379   6.894  15.598  0.00  0.00    +0.000 A 
ATOM      8  C   UNL     1      49.442   6.666  16.980  0.00  0.00    +0.000 A 
BRANCH   3   9
ATOM      9  O   UNL     1      50.486   6.826  19.077  0.00  0.00    +0.000 OA
BRANCH   9  14
ATOM     10  C   UNL     1      51.810   3.664  17.901  0.00  0.00    +0.000 C 
ATOM     11  C   UNL     1      51.964   4.767  18.930  0.00  0.00    +0.000 C 
ATOM     12  O   UNL     1      52.244   4.213  20.247  0.00  0.00    +0.000 OA
ATOM     13  C   UNL     1      51.309   5.156  20.835  0.00  0.00    +0.000 C 
ATOM     14  C   UNL     1      50.677   5.443  19.462  0.00  0.00    +0.000 C 
ENDBRANCH   9  14
ENDBRANCH   3   9
ENDBRANCH   1   7
BRANCH   2  15
ATOM     15  C   UNL     1      46.909   6.077  12.759  0.00  0.00    +0.000 A 
ATOM     16  C   UNL     1      46.671   6.529  11.463  0.00  0.00    +0.000 A 
ATOM     17  C   UNL     1      45.715   5.872  10.687  0.00  0.00    +0.000 A 
ATOM     18  C   UNL     1      45.022   4.781  11.215  0.00  0.00    +0.000 A 
ATOM     19  C   UNL     1      45.323   4.409  12.516  0.00  0.00    +0.000 A 
ATOM     20  N   UNL     1      46.243   5.030  13.296  0.00  0.00    +0.000 NA
BRANCH  18  21
ATOM     21  C   UNL     1      44.021   4.081  10.377  0.00  0.00    +0.000 C 
ATOM     22  N   UNL     1      43.919   4.403   9.053  0.00  0.00    +0.000 N 
ATOM     23  O   UNL     1      43.286   3.221  10.856  0.00  0.00    +0.000 OA
ATOM     24  H   UNL     1      44.473   5.087   8.562  0.00  0.00    +0.000 HD
ATOM     25  H   UNL     1      43.221   3.901   8.520  0.00  0.00    +0.000 HD
ENDBRANCH  18  21
ENDBRANCH   2  15
TORSDOF 5
ENDMDL
