MODEL 1
REMARK VINA RESULT:    -9.554      0.000      0.000
REMARK INTER + INTRA:         -13.032
REMARK INTER:                 -12.347
REMARK INTRA:                  -0.685
REMARK UNBOUND:                -0.685
REMARK  Name = 
REMARK  5 active torsions:
REMARK  status: ('A' for Active; 'I' for Inactive)
REMARK    1  A    between atoms: C_2  and  C_4
REMARK    2  A    between atoms: N_8  and  C_9
REMARK    3  A    between atoms: C_9  and  C_10
REMARK    4  A    between atoms: C_10  and  C_11
REMARK    5  A    between atoms: C_15  and  C_16
REMARK                            x       y       z     vdW  Elec       q    Type
REMARK                         _______ _______ _______ _____ _____    ______ ____
ROOT
ATOM      1  C   UNL     1      43.391   4.446  11.244  0.00  0.00    +0.000 C 
ENDROOT
BRANCH   1   6
ATOM      2  C   UNL     1      46.464   2.510   7.704  0.00  0.00    +0.000 A 
ATOM      3  C   UNL     1      45.675   1.855   8.641  0.00  0.00    +0.000 A 
ATOM      4  C   UNL     1      44.760   2.593   9.393  0.00  0.00    +0.000 A 
ATOM      5  C   UNL     1      44.665   3.971   9.212  0.00  0.00    +0.000 A 
ATOM      6  N   UNL     1      43.723   4.756   9.860  0.00  0.00    +0.000 N 
ATOM      7  N   UNL     1      45.449   4.620   8.328  0.00  0.00    +0.000 NA
ATOM      8  C   UNL     1      46.334   3.885   7.601  0.00  0.00    +0.000 A 
ATOM      9  H   UNL     1      43.971   5.726   9.669  0.00  0.00    +0.000 HD
BRANCH   2  11
ATOM     10  N   UNL     1      48.538   2.488   6.441  0.00  0.00    +0.000 N 
ATOM     11  C   UNL     1      47.419   1.802   6.829  0.00  0.00    +0.000 C 
ATOM     12  O   UNL     1      47.241   0.637   6.493  0.00  0.00    +0.000 OA
ATOM     13  H   UNL     1      49.239   1.960   5.936  0.00  0.00    +0.000 HD
ATOM     14  H   UNL     1      48.839   3.336   6.902  0.00  0.00    +0.000 HD
ENDBRANCH   2  11
ENDBRANCH   1   6
BRANCH   1  15
ATOM     15  C   UNL     1      43.652   5.653  12.152  0.00  0.00    +0.000 C 
BRANCH  15  16
ATOM     16  C   UNL     1      45.131   5.801  12.424  0.00  0.00    +0.000 A 
ATOM     17  C   UNL     1      45.925   6.623  11.618  0.00  0.00    +0.000 A 
ATOM     18  C   UNL     1      47.268   6.817  11.927  0.00  0.00    +0.000 A 
ATOM     19  C   UNL     1      47.826   6.208  13.055  0.00  0.00    +0.000 A 
ATOM     20  C   UNL     1      47.057   5.385  13.899  0.00  0.00    +0.000 A 
ATOM     21  C   UNL     1      45.709   5.182  13.544  0.00  0.00    +0.000 A 
BRANCH  20  22
ATOM     22  C   UNL     1      47.621   4.799  15.133  0.00  0.00    +0.000 A 
ATOM     23  N   UNL     1      47.365   3.499  15.392  0.00  0.00    +0.000 NA
ATOM     24  C   UNL     1      47.968   2.970  16.473  0.00  0.00    +0.000 A 
ATOM     25  C   UNL     1      48.804   3.680  17.301  0.00  0.00    +0.000 A 
ATOM     26  C   UNL     1      48.993   4.997  16.961  0.00  0.00    +0.000 A 
ATOM     27  N   UNL     1      48.420   5.578  15.892  0.00  0.00    +0.000 NA
ENDBRANCH  20  22
ENDBRANCH  15  16
ENDBRANCH   1  15
TORSDOF 5
ENDMDL
MODEL 2
REMARK VINA RESULT:    -8.015      1.581      2.243
REMARK INTER + INTRA:         -11.043
REMARK INTER:                 -10.072
REMARK INTRA:                  -0.971
REMARK UNBOUND:                -0.685
REMARK  Name = 
REMARK  5 active torsions:
REMARK  status: ('A' for Active; 'I' for Inactive)
REMARK    1  A    between atoms: C_2  and  C_4
REMARK    2  A    between atoms: N_8  and  C_9
REMARK    3  A    between atoms: C_9  and  C_10
REMARK    4  A    between atoms: C_10  and  C_11
REMARK    5  A    between atoms: C_15  and  C_16
REMARK                            x       y       z     vdW  Elec       q    Type
REMARK                         _______ _______ _______ _____ _____    ______ ____
ROOT
ATOM      1  C   UNL     1      43.286   3.928  11.260  0.00  0.00    +0.000 C 
ENDROOT
BRANCH   1   6
ATOM      2  C   UNL     1      46.436   2.901   7.420  0.00  0.00    +0.000 A 
ATOM      3  C   UNL     1      46.100   4.126   7.981  0.00  0.00    +0.000 A 
ATOM      4  C   UNL     1      45.355   4.151   9.161  0.00  0.00    +0.000 A 
ATOM      5  C   UNL     1      44.941   2.956   9.744  0.00  0.00    +0.000 A 
ATOM      6  N   UNL     1      44.271   2.899  10.958  0.00  0.00    +0.000 N 
ATOM      7  N   UNL     1      45.233   1.763   9.190  0.00  0.00    +0.000 NA
ATOM      8  C   UNL     1      45.964   1.757   8.042  0.00  0.00    +0.000 A 
ATOM      9  H   UNL     1      43.958   1.936  11.073  0.00  0.00    +0.000 HD
BRANCH   2  11
ATOM     10  N   UNL     1      48.594   2.503   6.381  0.00  0.00    +0.000 N 
ATOM     11  C   UNL     1      47.266   2.780   6.205  0.00  0.00    +0.000 C 
ATOM     12  O   UNL     1      46.782   2.884   5.084  0.00  0.00    +0.000 OA
ATOM     13  H   UNL     1      49.130   2.311   5.544  0.00  0.00    +0.000 HD
ATOM     14  H   UNL     1      48.964   2.159   7.257  0.00  0.00    +0.000 HD
ENDBRANCH   2  11
ENDBRANCH   1   6
BRANCH   1  15
ATOM     15  C   UNL     1      43.588   4.594  12.607  0.00  0.00    +0.000 C 
BRANCH  15  16
ATOM     16  C   UNL     1      44.652   5.654  12.448  0.00  0.00    +0.000 A 
ATOM     17  C   UNL     1      44.449   6.747  11.599  0.00  0.00    +0.000 A 
ATOM     18  C   UNL     1      45.400   7.760  11.523  0.00  0.00    +0.000 A 
ATOM     19  C   UNL     1      46.554   7.701  12.310  0.00  0.00    +0.000 A 
ATOM     20  C   UNL     1      46.789   6.627  13.188  0.00  0.00    +0.000 A 
ATOM     21  C   UNL     1      45.823   5.601  13.221  0.00  0.00    +0.000 A 
BRANCH  20  22
ATOM     22  C   UNL     1      47.970   6.596  14.077  0.00  0.00    +0.000 A 
ATOM     23  N   UNL     1      48.991   7.434  13.804  0.00  0.00    +0.000 NA
ATOM     24  C   UNL     1      50.010   7.449  14.684  0.00  0.00    +0.000 A 
ATOM     25  C   UNL     1      50.052   6.665  15.811  0.00  0.00    +0.000 A 
ATOM     26  C   UNL     1      48.972   5.838  15.997  0.00  0.00    +0.000 A 
ATOM     27  N   UNL     1      47.925   5.784  15.154  0.00  0.00    +0.000 NA
ENDBRANCH  20  22
ENDBRANCH  15  16
ENDBRANCH   1  15
TORSDOF 5
ENDMDL
MODEL 3
REMARK VINA RESULT:    -7.905      2.357      3.933
REMARK INTER + INTRA:         -10.901
REMARK INTER:                 -10.062
REMARK INTRA:                  -0.839
REMARK UNBOUND:                -0.685
REMARK  Name = 
REMARK  5 active torsions:
REMARK  status: ('A' for Active; 'I' for Inactive)
REMARK    1  A    between atoms: C_2  and  C_4
REMARK    2  A    between atoms: N_8  and  C_9
REMARK    3  A    between atoms: C_9  and  C_10
REMARK    4  A    between atoms: C_10  and  C_11
REMARK    5  A    between atoms: C_15  and  C_16
REMARK                            x       y       z     vdW  Elec       q    Type
REMARK                         _______ _______ _______ _____ _____    ______ ____
ROOT
ATOM      1  C   UNL     1      42.963   4.843  11.324  0.00  0.00    +0.000 C 
ENDROOT
BRANCH   1   6
ATOM      2  C   UNL     1      46.110   3.019   7.788  0.00  0.00    +0.000 A 
ATOM      3  C   UNL     1      46.021   4.303   8.312  0.00  0.00    +0.000 A 
ATOM      4  C   UNL     1      45.202   4.528   9.420  0.00  0.00    +0.000 A 
ATOM      5  C   UNL     1      44.472   3.477   9.968  0.00  0.00    +0.000 A 
ATOM      6  N   UNL     1      43.704   3.607  11.116  0.00  0.00    +0.000 N 
ATOM      7  N   UNL     1      44.526   2.235   9.447  0.00  0.00    +0.000 NA
ATOM      8  C   UNL     1      45.333   2.031   8.370  0.00  0.00    +0.000 A 
ATOM      9  H   UNL     1      43.167   2.746  11.206  0.00  0.00    +0.000 HD
BRANCH   2  11
ATOM     10  N   UNL     1      48.021   1.811   6.902  0.00  0.00    +0.000 N 
ATOM     11  C   UNL     1      46.991   2.679   6.654  0.00  0.00    +0.000 C 
ATOM     12  O   UNL     1      46.791   3.121   5.529  0.00  0.00    +0.000 OA
ATOM     13  H   UNL     1      48.549   1.497   6.097  0.00  0.00    +0.000 HD
ATOM     14  H   UNL     1      48.056   1.237   7.733  0.00  0.00    +0.000 HD
ENDBRANCH   2  11
ENDBRANCH   1   6
BRANCH   1  15
ATOM     15  C   UNL     1      43.178   5.377  12.744  0.00  0.00    +0.000 C 
BRANCH  15  16
ATOM     16  C   UNL     1      44.643   5.650  12.992  0.00  0.00    +0.000 A 
ATOM     17  C   UNL     1      45.469   4.664  13.542  0.00  0.00    +0.000 A 
ATOM     18  C   UNL     1      46.833   4.897  13.689  0.00  0.00    +0.000 A 
ATOM     19  C   UNL     1      47.388   6.110  13.270  0.00  0.00    +0.000 A 
ATOM     20  C   UNL     1      46.594   7.121  12.698  0.00  0.00    +0.000 A 
ATOM     21  C   UNL     1      45.212   6.869  12.590  0.00  0.00    +0.000 A 
BRANCH  20  22
ATOM     22  C   UNL     1      47.186   8.374  12.184  0.00  0.00    +0.000 A 
ATOM     23  N   UNL     1      46.405   9.474  12.141  0.00  0.00    +0.000 NA
ATOM     24  C   UNL     1      46.998  10.619  11.756  0.00  0.00    +0.000 A 
ATOM     25  C   UNL     1      48.325  10.710  11.412  0.00  0.00    +0.000 A 
ATOM     26  C   UNL     1      49.034   9.536  11.476  0.00  0.00    +0.000 A 
ATOM     27  N   UNL     1      48.495   8.363  11.856  0.00  0.00    +0.000 NA
ENDBRANCH  20  22
ENDBRANCH  15  16
ENDBRANCH   1  15
TORSDOF 5
ENDMDL
MODEL 4
REMARK VINA RESULT:    -7.517      2.498      7.320
REMARK INTER + INTRA:         -10.399
REMARK INTER:                  -9.473
REMARK INTRA:                  -0.926
REMARK UNBOUND:                -0.685
REMARK  Name = 
REMARK  5 active torsions:
REMARK  status: ('A' for Active; 'I' for Inactive)
REMARK    1  A    between atoms: C_2  and  C_4
REMARK    2  A    between atoms: N_8  and  C_9
REMARK    3  A    between atoms: C_9  and  C_10
REMARK    4  A    between atoms: C_10  and  C_11
REMARK    5  A    between atoms: C_15  and  C_16
REMARK                            x       y       z     vdW  Elec       q    Type
REMARK                         _______ _______ _______ _____ _____    ______ ____
ROOT
ATOM      1  C   UNL     1      46.024   7.867  12.911  0.00  0.00    +0.000 C 
ENDROOT
BRANCH   1   6
ATOM      2  C   UNL     1      47.742   3.991  15.696  0.00  0.00    +0.000 A 
ATOM      3  C   UNL     1      46.761   4.004  14.712  0.00  0.00    +0.000 A 
ATOM      4  C   UNL     1      46.588   5.155  13.942  0.00  0.00    +0.000 A 
ATOM      5  C   UNL     1      47.378   6.276  14.182  0.00  0.00    +0.000 A 
ATOM      6  N   UNL     1      47.321   7.423  13.404  0.00  0.00    +0.000 N 
ATOM      7  N   UNL     1      48.310   6.285  15.155  0.00  0.00    +0.000 NA
ATOM      8  C   UNL     1      48.470   5.153  15.895  0.00  0.00    +0.000 A 
ATOM      9  H   UNL     1      47.880   8.128  13.882  0.00  0.00    +0.000 HD
BRANCH   2  11
ATOM     10  N   UNL     1      47.255   2.608  17.631  0.00  0.00    +0.000 N 
ATOM     11  C   UNL     1      48.031   2.801  16.520  0.00  0.00    +0.000 C 
ATOM     12  O   UNL     1      48.902   1.998  16.206  0.00  0.00    +0.000 OA
ATOM     13  H   UNL     1      47.385   1.734  18.126  0.00  0.00    +0.000 HD
ATOM     14  H   UNL     1      46.380   3.094  17.771  0.00  0.00    +0.000 HD
ENDBRANCH   2  11
ENDBRANCH   1   6
BRANCH   1  15
ATOM     15  C   UNL     1      45.943   7.730  11.387  0.00  0.00    +0.000 C 
BRANCH  15  16
ATOM     16  C   UNL     1      45.210   6.465  11.008  0.00  0.00    +0.000 A 
ATOM     17  C   UNL     1      43.923   6.212  11.495  0.00  0.00    +0.000 A 
ATOM     18  C   UNL     1      43.226   5.084  11.073  0.00  0.00    +0.000 A 
ATOM     19  C   UNL     1      43.798   4.209  10.145  0.00  0.00    +0.000 A 
ATOM     20  C   UNL     1      45.084   4.435   9.619  0.00  0.00    +0.000 A 
ATOM     21  C   UNL     1      45.779   5.568  10.088  0.00  0.00    +0.000 A 
BRANCH  20  22
ATOM     22  C   UNL     1      45.664   3.556   8.583  0.00  0.00    +0.000 A 
ATOM     23  N   UNL     1      46.169   4.132   7.472  0.00  0.00    +0.000 NA
ATOM     24  C   UNL     1      46.772   3.314   6.590  0.00  0.00    +0.000 A 
ATOM     25  C   UNL     1      46.887   1.957   6.768  0.00  0.00    +0.000 A 
ATOM     26  C   UNL     1      46.332   1.463   7.922  0.00  0.00    +0.000 A 
ATOM     27  N   UNL     1      45.720   2.233   8.840  0.00  0.00    +0.000 NA
ENDBRANCH  20  22
ENDBRANCH  15  16
ENDBRANCH   1  15
TORSDOF 5
ENDMDL
MODEL 5
REMARK VINA RESULT:    -7.154      3.846      7.311
REMARK INTER + INTRA:          -9.931
REMARK INTER:                  -9.240
REMARK INTRA:                  -0.690
REMARK UNBOUND:                -0.685
REMARK  Name = 
REMARK  5 active torsions:
REMARK  status: ('A' for Active; 'I' for Inactive)
REMARK    1  A    between atoms: C_2  and  C_4
REMARK    2  A    between atoms: N_8  and  C_9
REMARK    3  A    between atoms: C_9  and  C_10
REMARK    4  A    between atoms: C_10  and  C_11
REMARK    5  A    between atoms: C_15  and  C_16
REMARK                            x       y       z     vdW  Elec       q    Type
REMARK                         _______ _______ _______ _____ _____    ______ ____
ROOT
ATOM      1  C   UNL     1      45.136   6.905  12.796  0.00  0.00    +0.000 C 
ENDROOT
BRANCH   1   6
ATOM      2  C   UNL     1      49.865   8.571  12.033  0.00  0.00    +0.000 A 
ATOM      3  C   UNL     1      49.212   7.482  11.470  0.00  0.00    +0.000 A 
ATOM      4  C   UNL     1      47.842   7.327  11.685  0.00  0.00    +0.000 A 
ATOM      5  C   UNL     1      47.156   8.246  12.475  0.00  0.00    +0.000 A 
ATOM      6  N   UNL     1      45.782   8.203  12.665  0.00  0.00    +0.000 N 
ATOM      7  N   UNL     1      47.787   9.287  13.053  0.00  0.00    +0.000 NA
ATOM      8  C   UNL     1      49.122   9.426  12.830  0.00  0.00    +0.000 A 
ATOM      9  H   UNL     1      45.568   8.882  13.393  0.00  0.00    +0.000 HD
BRANCH   2  11
ATOM     10  N   UNL     1      52.193   8.132  12.569  0.00  0.00    +0.000 N 
ATOM     11  C   UNL     1      51.300   8.843  11.814  0.00  0.00    +0.000 C 
ATOM     12  O   UNL     1      51.680   9.643  10.967  0.00  0.00    +0.000 OA
ATOM     13  H   UNL     1      53.171   8.243  12.334  0.00  0.00    +0.000 HD
ATOM     14  H   UNL     1      51.930   7.298  13.075  0.00  0.00    +0.000 HD
ENDBRANCH   2  11
ENDBRANCH   1   6
BRANCH   1  15
ATOM     15  C   UNL     1      44.179   6.651  11.626  0.00  0.00    +0.000 C 
BRANCH  15  16
ATOM     16  C   UNL     1      44.185   5.189  11.245  0.00  0.00    +0.000 A 
ATOM     17  C   UNL     1      43.364   4.274  11.914  0.00  0.00    +0.000 A 
ATOM     18  C   UNL     1      43.316   2.946  11.500  0.00  0.00    +0.000 A 
ATOM     19  C   UNL     1      44.071   2.524  10.402  0.00  0.00    +0.000 A 
ATOM     20  C   UNL     1      44.897   3.416   9.692  0.00  0.00    +0.000 A 
ATOM     21  C   UNL     1      44.950   4.747  10.153  0.00  0.00    +0.000 A 
BRANCH  20  22
ATOM     22  C   UNL     1      45.639   2.993   8.486  0.00  0.00    +0.000 A 
ATOM     23  N   UNL     1      45.887   3.920   7.537  0.00  0.00    +0.000 NA
ATOM     24  C   UNL     1      46.644   3.527   6.495  0.00  0.00    +0.000 A 
ATOM     25  C   UNL     1      47.154   2.259   6.361  0.00  0.00    +0.000 A 
ATOM     26  C   UNL     1      46.837   1.385   7.372  0.00  0.00    +0.000 A 
ATOM     27  N   UNL     1      46.089   1.722   8.438  0.00  0.00    +0.000 NA
ENDBRANCH  20  22
ENDBRANCH  15  16
ENDBRANCH   1  15
TORSDOF 5
ENDMDL
MODEL 6
REMARK VINA RESULT:    -6.890      3.037      5.456
REMARK INTER + INTRA:          -9.589
REMARK INTER:                  -8.746
REMARK INTRA:                  -0.843
REMARK UNBOUND:                -0.685
REMARK  Name = 
REMARK  5 active torsions:
REMARK  status: ('A' for Active; 'I' for Inactive)
REMARK    1  A    between atoms: C_2  and  C_4
REMARK    2  A    between atoms: N_8  and  C_9
REMARK    3  A    between atoms: C_9  and  C_10
REMARK    4  A    between atoms: C_10  and  C_11
REMARK    5  A    between atoms: C_15  and  C_16
REMARK                            x       y       z     vdW  Elec       q    Type
REMARK                         _______ _______ _______ _____ _____    ______ ____
ROOT
ATOM      1  C   UNL     1      48.588   6.638  14.552  0.00  0.00    +0.000 C 
ENDROOT
BRANCH   1   6
ATOM      2  C   UNL     1      45.137   4.078  11.857  0.00  0.00    +0.000 A 
ATOM      3  C   UNL     1      45.934   3.644  12.908  0.00  0.00    +0.000 A 
ATOM      4  C   UNL     1      46.678   4.580  13.628  0.00  0.00    +0.000 A 
ATOM      5  C   UNL     1      46.630   5.925  13.271  0.00  0.00    +0.000 A 
ATOM      6  N   UNL     1      47.275   6.922  13.989  0.00  0.00    +0.000 N 
ATOM      7  N   UNL     1      45.885   6.352  12.233  0.00  0.00    +0.000 NA
ATOM      8  C   UNL     1      45.162   5.427  11.544  0.00  0.00    +0.000 A 
ATOM      9  H   UNL     1      47.204   7.773  13.435  0.00  0.00    +0.000 HD
BRANCH   2  11
ATOM     10  N   UNL     1      44.891   2.364  10.155  0.00  0.00    +0.000 N 
ATOM     11  C   UNL     1      44.276   3.166  11.078  0.00  0.00    +0.000 C 
ATOM     12  O   UNL     1      43.068   3.100  11.272  0.00  0.00    +0.000 OA
ATOM     13  H   UNL     1      44.311   1.665   9.707  0.00  0.00    +0.000 HD
ATOM     14  H   UNL     1      45.890   2.207  10.154  0.00  0.00    +0.000 HD
ENDBRANCH   2  11
ENDBRANCH   1   6
BRANCH   1  15
ATOM     15  C   UNL     1      48.569   6.773  16.079  0.00  0.00    +0.000 C 
BRANCH  15  16
ATOM     16  C   UNL     1      48.563   5.410  16.731  0.00  0.00    +0.000 A 
ATOM     17  C   UNL     1      47.357   4.762  17.018  0.00  0.00    +0.000 A 
ATOM     18  C   UNL     1      47.364   3.473  17.543  0.00  0.00    +0.000 A 
ATOM     19  C   UNL     1      48.575   2.812  17.767  0.00  0.00    +0.000 A 
ATOM     20  C   UNL     1      49.810   3.423  17.477  0.00  0.00    +0.000 A 
ATOM     21  C   UNL     1      49.772   4.740  16.976  0.00  0.00    +0.000 A 
BRANCH  20  22
ATOM     22  C   UNL     1      51.090   2.702  17.641  0.00  0.00    +0.000 A 
ATOM     23  N   UNL     1      52.124   3.365  18.198  0.00  0.00    +0.000 NA
ATOM     24  C   UNL     1      53.246   2.655  18.419  0.00  0.00    +0.000 A 
ATOM     25  C   UNL     1      53.377   1.324  18.105  0.00  0.00    +0.000 A 
ATOM     26  C   UNL     1      52.275   0.741  17.531  0.00  0.00    +0.000 A 
ATOM     27  N   UNL     1      51.127   1.399  17.291  0.00  0.00    +0.000 NA
ENDBRANCH  20  22
ENDBRANCH  15  16
ENDBRANCH   1  15
TORSDOF 5
ENDMDL
MODEL 7
REMARK VINA RESULT:    -6.636      3.944      6.446
REMARK INTER + INTRA:          -9.261
REMARK INTER:                  -8.786
REMARK INTRA:                  -0.475
REMARK UNBOUND:                -0.685
REMARK  Name = 
REMARK  5 active torsions:
REMARK  status: ('A' for Active; 'I' for Inactive)
REMARK    1  A    between atoms: C_2  and  C_4
REMARK    2  A    between atoms: N_8  and  C_9
REMARK    3  A    between atoms: C_9  and  C_10
REMARK    4  A    between atoms: C_10  and  C_11
REMARK    5  A    between atoms: C_15  and  C_16
REMARK                            x       y       z     vdW  Elec       q    Type
REMARK                         _______ _______ _______ _____ _____    ______ ____
ROOT
ATOM      1  C   UNL     1      47.439   3.842  15.953  0.00  0.00    +0.000 C 
ENDROOT
BRANCH   1   6
ATOM      2  C   UNL     1      44.622   4.688  11.821  0.00  0.00    +0.000 A 
ATOM      3  C   UNL     1      45.157   5.597  12.725  0.00  0.00    +0.000 A 
ATOM      4  C   UNL     1      46.064   5.146  13.684  0.00  0.00    +0.000 A 
ATOM      5  C   UNL     1      46.402   3.796  13.739  0.00  0.00    +0.000 A 
ATOM      6  N   UNL     1      47.357   3.289  14.608  0.00  0.00    +0.000 N 
ATOM      7  N   UNL     1      45.864   2.901  12.887  0.00  0.00    +0.000 NA
ATOM      8  C   UNL     1      44.984   3.358  11.955  0.00  0.00    +0.000 A 
ATOM      9  H   UNL     1      47.297   2.274  14.547  0.00  0.00    +0.000 HD
BRANCH   2  11
ATOM     10  N   UNL     1      44.049   4.743   9.462  0.00  0.00    +0.000 N 
ATOM     11  C   UNL     1      43.699   5.086  10.740  0.00  0.00    +0.000 C 
ATOM     12  O   UNL     1      42.644   5.664  10.976  0.00  0.00    +0.000 OA
ATOM     13  H   UNL     1      43.358   4.920   8.742  0.00  0.00    +0.000 HD
ATOM     14  H   UNL     1      44.760   4.054   9.262  0.00  0.00    +0.000 HD
ENDBRANCH   2  11
ENDBRANCH   1   6
BRANCH   1  15
ATOM     15  C   UNL     1      48.157   2.874  16.899  0.00  0.00    +0.000 C 
BRANCH  15  16
ATOM     16  C   UNL     1      49.552   3.367  17.203  0.00  0.00    +0.000 A 
ATOM     17  C   UNL     1      49.802   4.731  17.390  0.00  0.00    +0.000 A 
ATOM     18  C   UNL     1      51.073   5.166  17.751  0.00  0.00    +0.000 A 
ATOM     19  C   UNL     1      52.103   4.241  17.947  0.00  0.00    +0.000 A 
ATOM     20  C   UNL     1      51.890   2.859  17.783  0.00  0.00    +0.000 A 
ATOM     21  C   UNL     1      50.601   2.451  17.387  0.00  0.00    +0.000 A 
BRANCH  20  22
ATOM     22  C   UNL     1      52.954   1.872  18.062  0.00  0.00    +0.000 A 
ATOM     23  N   UNL     1      52.614   0.567  18.098  0.00  0.00    +0.000 NA
ATOM     24  C   UNL     1      53.620  -0.313  18.262  0.00  0.00    +0.000 A 
ATOM     25  C   UNL     1      54.937   0.054  18.394  0.00  0.00    +0.000 A 
ATOM     26  C   UNL     1      55.181   1.404  18.356  0.00  0.00    +0.000 A 
ATOM     27  N   UNL     1      54.218   2.328  18.191  0.00  0.00    +0.000 NA
ENDBRANCH  20  22
ENDBRANCH  15  16
ENDBRANCH   1  15
TORSDOF 5
ENDMDL
