MODEL 1
REMARK VINA RESULT:    -8.786      0.000      0.000
REMARK INTER + INTRA:         -11.521
REMARK INTER:                 -11.355
REMARK INTRA:                  -0.167
REMARK UNBOUND:                -0.167
REMARK  Name = 
REMARK  6 active torsions:
REMARK  status: ('A' for Active; 'I' for Inactive)
REMARK    1  A    between atoms: C_1  and  C_2
REMARK    2  A    between atoms: C_4  and  C_5
REMARK    3  A    between atoms: C_10  and  N_11
REMARK    4  A    between atoms: N_11  and  C_12
REMARK    5  A    between atoms: C_12  and  C_13
REMARK    6  A    between atoms: C_18  and  C_19
REMARK                            x       y       z     vdW  Elec       q    Type
REMARK                         _______ _______ _______ _____ _____    ______ ____
ROOT
ATOM      1  N   UNL     1      44.042   5.132   9.955  0.00  0.00    +0.000 N 
ATOM      2  H   UNL     1      43.999   6.062   9.562  0.00  0.00    +0.000 HD
ENDROOT
BRANCH   1   9
ATOM      3  C   UNL     1      43.869   2.275  10.569  0.00  0.00    +0.000 C 
ATOM      4  C   UNL     1      44.764   2.855   9.511  0.00  0.00    +0.000 A 
ATOM      5  C   UNL     1      45.608   1.988   8.792  0.00  0.00    +0.000 A 
ATOM      6  C   UNL     1      46.465   2.482   7.810  0.00  0.00    +0.000 A 
ATOM      7  C   UNL     1      46.435   3.845   7.593  0.00  0.00    +0.000 A 
ATOM      8  N   UNL     1      45.635   4.708   8.269  0.00  0.00    +0.000 NA
ATOM      9  C   UNL     1      44.802   4.227   9.218  0.00  0.00    +0.000 A 
BRANCH   6  10
ATOM     10  C   UNL     1      47.342   1.543   7.074  0.00  0.00    +0.000 C 
ATOM     11  N   UNL     1      48.472   2.018   6.471  0.00  0.00    +0.000 N 
ATOM     12  O   UNL     1      47.072   0.349   6.999  0.00  0.00    +0.000 OA
ATOM     13  H   UNL     1      48.811   2.969   6.497  0.00  0.00    +0.000 HD
ATOM     14  H   UNL     1      49.050   1.337   5.996  0.00  0.00    +0.000 HD
ENDBRANCH   6  10
ENDBRANCH   1   9
BRANCH   1  15
ATOM     15  C   UNL     1      44.128   5.106  11.413  0.00  0.00    +0.000 C 
BRANCH  15  16
ATOM     16  C   UNL     1      45.486   5.456  12.006  0.00  0.00    +0.000 A 
ATOM     17  C   UNL     1      46.276   6.424  11.362  0.00  0.00    +0.000 A 
ATOM     18  C   UNL     1      47.475   6.854  11.919  0.00  0.00    +0.000 A 
ATOM     19  C   UNL     1      47.900   6.338  13.142  0.00  0.00    +0.000 A 
ATOM     20  F   UNL     1      49.049   6.812  13.653  0.00  0.00    +0.000 F 
ATOM     21  C   UNL     1      47.154   5.372  13.838  0.00  0.00    +0.000 A 
ATOM     22  C   UNL     1      45.944   4.948  13.237  0.00  0.00    +0.000 A 
BRANCH  21  23
ATOM     23  C   UNL     1      47.593   4.813  15.137  0.00  0.00    +0.000 A 
ATOM     24  C   UNL     1      47.527   3.439  15.419  0.00  0.00    +0.000 A 
ATOM     25  C   UNL     1      47.998   2.931  16.630  0.00  0.00    +0.000 A 
ATOM     26  C   UNL     1      48.517   3.817  17.556  0.00  0.00    +0.000 A 
ATOM     27  N   UNL     1      48.586   5.146  17.352  0.00  0.00    +0.000 NA
ATOM     28  C   UNL     1      48.126   5.607  16.159  0.00  0.00    +0.000 A 
ENDBRANCH  21  23
ENDBRANCH  15  16
ENDBRANCH   1  15
TORSDOF 5
ENDMDL
MODEL 2
REMARK VINA RESULT:    -8.745      2.118      3.656
REMARK INTER + INTRA:         -11.468
REMARK INTER:                 -11.153
REMARK INTRA:                  -0.315
REMARK UNBOUND:                -0.167
REMARK  Name = 
REMARK  6 active torsions:
REMARK  status: ('A' for Active; 'I' for Inactive)
REMARK    1  A    between atoms: C_1  and  C_2
REMARK    2  A    between atoms: C_4  and  C_5
REMARK    3  A    between atoms: C_10  and  N_11
REMARK    4  A    between atoms: N_11  and  C_12
REMARK    5  A    between atoms: C_12  and  C_13
REMARK    6  A    between atoms: C_18  and  C_19
REMARK                            x       y       z     vdW  Elec       q    Type
REMARK                         _______ _______ _______ _____ _____    ______ ____
ROOT
ATOM      1  N   UNL     1      43.949   5.025   9.871  0.00  0.00    +0.000 N 
ATOM      2  H   UNL     1      43.946   5.995   9.589  0.00  0.00    +0.000 HD
ENDROOT
BRANCH   1   9
ATOM      3  C   UNL     1      43.994   2.145  10.396  0.00  0.00    +0.000 C 
ATOM      4  C   UNL     1      44.845   2.825   9.361  0.00  0.00    +0.000 A 
ATOM      5  C   UNL     1      45.755   2.048   8.620  0.00  0.00    +0.000 A 
ATOM      6  C   UNL     1      46.575   2.636   7.659  0.00  0.00    +0.000 A 
ATOM      7  C   UNL     1      46.441   3.999   7.484  0.00  0.00    +0.000 A 
ATOM      8  N   UNL     1      45.575   4.777   8.182  0.00  0.00    +0.000 NA
ATOM      9  C   UNL     1      44.778   4.204   9.110  0.00  0.00    +0.000 A 
BRANCH   6  10
ATOM     10  C   UNL     1      47.523   1.790   6.899  0.00  0.00    +0.000 C 
ATOM     11  N   UNL     1      48.663   2.351   6.396  0.00  0.00    +0.000 N 
ATOM     12  O   UNL     1      47.304   0.597   6.716  0.00  0.00    +0.000 OA
ATOM     13  H   UNL     1      48.963   3.309   6.515  0.00  0.00    +0.000 HD
ATOM     14  H   UNL     1      49.290   1.731   5.900  0.00  0.00    +0.000 HD
ENDBRANCH   6  10
ENDBRANCH   1   9
BRANCH   1  15
ATOM     15  C   UNL     1      43.890   4.826  11.317  0.00  0.00    +0.000 C 
BRANCH  15  16
ATOM     16  C   UNL     1      45.096   5.317  12.106  0.00  0.00    +0.000 A 
ATOM     17  C   UNL     1      45.647   4.478  13.091  0.00  0.00    +0.000 A 
ATOM     18  C   UNL     1      46.809   4.835  13.764  0.00  0.00    +0.000 A 
ATOM     19  C   UNL     1      47.456   6.030  13.455  0.00  0.00    +0.000 A 
ATOM     20  F   UNL     1      48.593   6.312  14.112  0.00  0.00    +0.000 F 
ATOM     21  C   UNL     1      46.959   6.910  12.479  0.00  0.00    +0.000 A 
ATOM     22  C   UNL     1      45.768   6.520  11.819  0.00  0.00    +0.000 A 
BRANCH  21  23
ATOM     23  C   UNL     1      47.633   8.184  12.139  0.00  0.00    +0.000 A 
ATOM     24  C   UNL     1      48.959   8.226  11.679  0.00  0.00    +0.000 A 
ATOM     25  C   UNL     1      49.554   9.433  11.312  0.00  0.00    +0.000 A 
ATOM     26  C   UNL     1      48.811  10.593  11.428  0.00  0.00    +0.000 A 
ATOM     27  N   UNL     1      47.544  10.618  11.882  0.00  0.00    +0.000 NA
ATOM     28  C   UNL     1      46.992   9.424  12.224  0.00  0.00    +0.000 A 
ENDBRANCH  21  23
ENDBRANCH  15  16
ENDBRANCH   1  15
TORSDOF 5
ENDMDL
MODEL 3
REMARK VINA RESULT:    -8.514      1.896      2.762
REMARK INTER + INTRA:         -11.169
REMARK INTER:                 -10.251
REMARK INTRA:                  -0.918
REMARK UNBOUND:                -0.167
REMARK  Name = 
REMARK  6 active torsions:
REMARK  status: ('A' for Active; 'I' for Inactive)
REMARK    1  A    between atoms: C_1  and  C_2
REMARK    2  A    between atoms: C_4  and  C_5
REMARK    3  A    between atoms: C_10  and  N_11
REMARK    4  A    between atoms: N_11  and  C_12
REMARK    5  A    between atoms: C_12  and  C_13
REMARK    6  A    between atoms: C_18  and  C_19
REMARK                            x       y       z     vdW  Elec       q    Type
REMARK                         _______ _______ _______ _____ _____    ______ ____
ROOT
ATOM      1  N   UNL     1      44.481   5.168  10.036  0.00  0.00    +0.000 N 
ATOM      2  H   UNL     1      43.540   5.406   9.755  0.00  0.00    +0.000 HD
ENDROOT
BRANCH   1   9
ATOM      3  C   UNL     1      44.067   2.292  10.395  0.00  0.00    +0.000 C 
ATOM      4  C   UNL     1      44.975   2.888   9.356  0.00  0.00    +0.000 A 
ATOM      5  C   UNL     1      45.710   2.022   8.525  0.00  0.00    +0.000 A 
ATOM      6  C   UNL     1      46.575   2.528   7.557  0.00  0.00    +0.000 A 
ATOM      7  C   UNL     1      46.663   3.902   7.467  0.00  0.00    +0.000 A 
ATOM      8  N   UNL     1      45.970   4.766   8.252  0.00  0.00    +0.000 NA
ATOM      9  C   UNL     1      45.129   4.273   9.188  0.00  0.00    +0.000 A 
BRANCH   6  10
ATOM     10  C   UNL     1      47.335   1.589   6.702  0.00  0.00    +0.000 C 
ATOM     11  N   UNL     1      48.353   2.068   5.925  0.00  0.00    +0.000 N 
ATOM     12  O   UNL     1      47.070   0.392   6.680  0.00  0.00    +0.000 OA
ATOM     13  H   UNL     1      48.682   3.022   5.890  0.00  0.00    +0.000 HD
ATOM     14  H   UNL     1      48.857   1.387   5.372  0.00  0.00    +0.000 HD
ENDBRANCH   6  10
ENDBRANCH   1   9
BRANCH   1  15
ATOM     15  C   UNL     1      45.237   6.285  10.595  0.00  0.00    +0.000 C 
BRANCH  15  16
ATOM     16  C   UNL     1      45.897   6.034  11.944  0.00  0.00    +0.000 A 
ATOM     17  C   UNL     1      45.651   4.816  12.601  0.00  0.00    +0.000 A 
ATOM     18  C   UNL     1      46.311   4.495  13.781  0.00  0.00    +0.000 A 
ATOM     19  C   UNL     1      47.245   5.377  14.321  0.00  0.00    +0.000 A 
ATOM     20  F   UNL     1      47.879   5.003  15.445  0.00  0.00    +0.000 F 
ATOM     21  C   UNL     1      47.540   6.608  13.710  0.00  0.00    +0.000 A 
ATOM     22  C   UNL     1      46.842   6.908  12.515  0.00  0.00    +0.000 A 
BRANCH  21  23
ATOM     23  C   UNL     1      48.529   7.556  14.271  0.00  0.00    +0.000 A 
ATOM     24  C   UNL     1      48.143   8.701  14.986  0.00  0.00    +0.000 A 
ATOM     25  C   UNL     1      49.095   9.549  15.552  0.00  0.00    +0.000 A 
ATOM     26  C   UNL     1      50.432   9.245  15.377  0.00  0.00    +0.000 A 
ATOM     27  N   UNL     1      50.863   8.175  14.683  0.00  0.00    +0.000 NA
ATOM     28  C   UNL     1      49.910   7.365  14.152  0.00  0.00    +0.000 A 
ENDBRANCH  21  23
ENDBRANCH  15  16
ENDBRANCH   1  15
TORSDOF 5
ENDMDL
MODEL 4
REMARK VINA RESULT:    -8.264      3.591      7.639
REMARK INTER + INTRA:         -10.846
REMARK INTER:                  -9.999
REMARK INTRA:                  -0.847
REMARK UNBOUND:                -0.167
REMARK  Name = 
REMARK  6 active torsions:
REMARK  status: ('A' for Active; 'I' for Inactive)
REMARK    1  A    between atoms: C_1  and  C_2
REMARK    2  A    between atoms: C_4  and  C_5
REMARK    3  A    between atoms: C_10  and  N_11
REMARK    4  A    between atoms: N_11  and  C_12
REMARK    5  A    between atoms: C_12  and  C_13
REMARK    6  A    between atoms: C_18  and  C_19
REMARK                            x       y       z     vdW  Elec       q    Type
REMARK                         _______ _______ _______ _____ _____    ______ ____
ROOT
ATOM      1  N   UNL     1      44.681   6.470  12.401  0.00  0.00    +0.000 N 
ATOM      2  H   UNL     1      44.083   5.877  12.961  0.00  0.00    +0.000 HD
ENDROOT
BRANCH   1   9
ATOM      3  C   UNL     1      46.057   4.221  13.672  0.00  0.00    +0.000 C 
ATOM      4  C   UNL     1      46.630   5.605  13.565  0.00  0.00    +0.000 A 
ATOM      5  C   UNL     1      47.887   5.862  14.144  0.00  0.00    +0.000 A 
ATOM      6  C   UNL     1      48.452   7.134  14.083  0.00  0.00    +0.000 A 
ATOM      7  C   UNL     1      47.718   8.105  13.432  0.00  0.00    +0.000 A 
ATOM      8  N   UNL     1      46.504   7.892  12.864  0.00  0.00    +0.000 NA
ATOM      9  C   UNL     1      45.959   6.657  12.921  0.00  0.00    +0.000 A 
BRANCH   6  10
ATOM     10  C   UNL     1      49.775   7.371  14.705  0.00  0.00    +0.000 C 
ATOM     11  N   UNL     1      50.819   7.777  13.921  0.00  0.00    +0.000 N 
ATOM     12  O   UNL     1      49.948   7.212  15.908  0.00  0.00    +0.000 OA
ATOM     13  H   UNL     1      50.783   7.973  12.931  0.00  0.00    +0.000 HD
ATOM     14  H   UNL     1      51.698   7.944  14.392  0.00  0.00    +0.000 HD
ENDBRANCH   6  10
ENDBRANCH   1   9
BRANCH   1  15
ATOM     15  C   UNL     1      44.523   6.285  10.961  0.00  0.00    +0.000 C 
BRANCH  15  16
ATOM     16  C   UNL     1      44.613   4.850  10.461  0.00  0.00    +0.000 A 
ATOM     17  C   UNL     1      43.787   3.875  11.048  0.00  0.00    +0.000 A 
ATOM     18  C   UNL     1      43.756   2.576  10.557  0.00  0.00    +0.000 A 
ATOM     19  C   UNL     1      44.536   2.226   9.457  0.00  0.00    +0.000 A 
ATOM     20  F   UNL     1      44.444   0.966   9.001  0.00  0.00    +0.000 F 
ATOM     21  C   UNL     1      45.379   3.154   8.822  0.00  0.00    +0.000 A 
ATOM     22  C   UNL     1      45.395   4.467   9.354  0.00  0.00    +0.000 A 
BRANCH  21  23
ATOM     23  C   UNL     1      46.215   2.799   7.653  0.00  0.00    +0.000 A 
ATOM     24  C   UNL     1      46.247   3.588   6.492  0.00  0.00    +0.000 A 
ATOM     25  C   UNL     1      47.086   3.262   5.425  0.00  0.00    +0.000 A 
ATOM     26  C   UNL     1      47.874   2.132   5.531  0.00  0.00    +0.000 A 
ATOM     27  N   UNL     1      47.871   1.325   6.609  0.00  0.00    +0.000 NA
ATOM     28  C   UNL     1      47.049   1.675   7.633  0.00  0.00    +0.000 A 
ENDBRANCH  21  23
ENDBRANCH  15  16
ENDBRANCH   1  15
TORSDOF 5
ENDMDL
MODEL 5
REMARK VINA RESULT:    -7.713      4.045      7.680
REMARK INTER + INTRA:         -10.135
REMARK INTER:                  -9.084
REMARK INTRA:                  -1.051
REMARK UNBOUND:                -0.167
REMARK  Name = 
REMARK  6 active torsions:
REMARK  status: ('A' for Active; 'I' for Inactive)
REMARK    1  A    between atoms: C_1  and  C_2
REMARK    2  A    between atoms: C_4  and  C_5
REMARK    3  A    between atoms: C_10  and  N_11
REMARK    4  A    between atoms: N_11  and  C_12
REMARK    5  A    between atoms: C_12  and  C_13
REMARK    6  A    between atoms: C_18  and  C_19
REMARK                            x       y       z     vdW  Elec       q    Type
REMARK                         _______ _______ _______ _____ _____    ______ ____
ROOT
ATOM      1  N   UNL     1      48.933   5.782  17.121  0.00  0.00    +0.000 N 
ATOM      2  H   UNL     1      47.937   5.613  17.161  0.00  0.00    +0.000 HD
ENDROOT
BRANCH   1   9
ATOM      3  C   UNL     1      47.642   3.155  17.095  0.00  0.00    +0.000 C 
ATOM      4  C   UNL     1      49.125   3.362  17.213  0.00  0.00    +0.000 A 
ATOM      5  C   UNL     1      49.954   2.235  17.364  0.00  0.00    +0.000 A 
ATOM      6  C   UNL     1      51.334   2.378  17.491  0.00  0.00    +0.000 A 
ATOM      7  C   UNL     1      51.826   3.667  17.461  0.00  0.00    +0.000 A 
ATOM      8  N   UNL     1      51.055   4.776  17.318  0.00  0.00    +0.000 NA
ATOM      9  C   UNL     1      49.718   4.634  17.191  0.00  0.00    +0.000 A 
BRANCH   6  10
ATOM     10  C   UNL     1      52.177   1.171  17.651  0.00  0.00    +0.000 C 
ATOM     11  N   UNL     1      51.620   0.029  18.155  0.00  0.00    +0.000 N 
ATOM     12  O   UNL     1      53.362   1.178  17.336  0.00  0.00    +0.000 OA
ATOM     13  H   UNL     1      50.652  -0.102  18.412  0.00  0.00    +0.000 HD
ATOM     14  H   UNL     1      52.229  -0.775  18.228  0.00  0.00    +0.000 HD
ENDBRANCH   6  10
ENDBRANCH   1   9
BRANCH   1  15
ATOM     15  C   UNL     1      49.318   6.848  16.201  0.00  0.00    +0.000 C 
BRANCH  15  16
ATOM     16  C   UNL     1      48.638   6.829  14.839  0.00  0.00    +0.000 A 
ATOM     17  C   UNL     1      49.259   7.488  13.763  0.00  0.00    +0.000 A 
ATOM     18  C   UNL     1      48.732   7.411  12.479  0.00  0.00    +0.000 A 
ATOM     19  C   UNL     1      47.584   6.659  12.239  0.00  0.00    +0.000 A 
ATOM     20  F   UNL     1      47.136   6.591  10.974  0.00  0.00    +0.000 F 
ATOM     21  C   UNL     1      46.918   5.975  13.270  0.00  0.00    +0.000 A 
ATOM     22  C   UNL     1      47.475   6.082  14.567  0.00  0.00    +0.000 A 
BRANCH  21  23
ATOM     23  C   UNL     1      45.697   5.172  13.032  0.00  0.00    +0.000 A 
ATOM     24  C   UNL     1      44.424   5.759  12.945  0.00  0.00    +0.000 A 
ATOM     25  C   UNL     1      43.296   4.988  12.664  0.00  0.00    +0.000 A 
ATOM     26  C   UNL     1      43.458   3.626  12.490  0.00  0.00    +0.000 A 
ATOM     27  N   UNL     1      44.648   3.004  12.584  0.00  0.00    +0.000 NA
ATOM     28  C   UNL     1      45.728   3.785  12.850  0.00  0.00    +0.000 A 
ENDBRANCH  21  23
ENDBRANCH  15  16
ENDBRANCH   1  15
TORSDOF 5
ENDMDL
MODEL 6
REMARK VINA RESULT:    -7.419      3.189      7.536
REMARK INTER + INTRA:          -9.754
REMARK INTER:                  -9.355
REMARK INTRA:                  -0.400
REMARK UNBOUND:                -0.167
REMARK  Name = 
REMARK  6 active torsions:
REMARK  status: ('A' for Active; 'I' for Inactive)
REMARK    1  A    between atoms: C_1  and  C_2
REMARK    2  A    between atoms: C_4  and  C_5
REMARK    3  A    between atoms: C_10  and  N_11
REMARK    4  A    between atoms: N_11  and  C_12
REMARK    5  A    between atoms: C_12  and  C_13
REMARK    6  A    between atoms: C_18  and  C_19
REMARK                            x       y       z     vdW  Elec       q    Type
REMARK                         _______ _______ _______ _____ _____    ______ ____
ROOT
ATOM      1  N   UNL     1      49.386   7.054  13.160  0.00  0.00    +0.000 N 
ATOM      2  H   UNL     1      50.367   7.276  13.262  0.00  0.00    +0.000 HD
ENDROOT
BRANCH   1   9
ATOM      3  C   UNL     1      50.112   7.922  15.859  0.00  0.00    +0.000 C 
ATOM      4  C   UNL     1      49.174   6.786  15.565  0.00  0.00    +0.000 A 
ATOM      5  C   UNL     1      48.637   6.058  16.643  0.00  0.00    +0.000 A 
ATOM      6  C   UNL     1      47.774   4.987  16.419  0.00  0.00    +0.000 A 
ATOM      7  C   UNL     1      47.486   4.692  15.102  0.00  0.00    +0.000 A 
ATOM      8  N   UNL     1      47.987   5.373  14.039  0.00  0.00    +0.000 NA
ATOM      9  C   UNL     1      48.821   6.413  14.259  0.00  0.00    +0.000 A 
BRANCH   6  10
ATOM     10  C   UNL     1      47.229   4.241  17.576  0.00  0.00    +0.000 C 
ATOM     11  N   UNL     1      47.442   4.717  18.839  0.00  0.00    +0.000 N 
ATOM     12  O   UNL     1      46.588   3.207  17.419  0.00  0.00    +0.000 OA
ATOM     13  H   UNL     1      47.921   5.572  19.084  0.00  0.00    +0.000 HD
ATOM     14  H   UNL     1      47.035   4.185  19.596  0.00  0.00    +0.000 HD
ENDBRANCH   6  10
ENDBRANCH   1   9
BRANCH   1  15
ATOM     15  C   UNL     1      48.614   8.078  12.463  0.00  0.00    +0.000 C 
BRANCH  15  16
ATOM     16  C   UNL     1      47.166   7.724  12.153  0.00  0.00    +0.000 A 
ATOM     17  C   UNL     1      46.157   8.642  12.494  0.00  0.00    +0.000 A 
ATOM     18  C   UNL     1      44.833   8.413  12.138  0.00  0.00    +0.000 A 
ATOM     19  C   UNL     1      44.491   7.270  11.419  0.00  0.00    +0.000 A 
ATOM     20  F   UNL     1      43.203   7.113  11.071  0.00  0.00    +0.000 F 
ATOM     21  C   UNL     1      45.453   6.316  11.044  0.00  0.00    +0.000 A 
ATOM     22  C   UNL     1      46.790   6.575  11.431  0.00  0.00    +0.000 A 
BRANCH  21  23
ATOM     23  C   UNL     1      45.107   5.096  10.280  0.00  0.00    +0.000 A 
ATOM     24  C   UNL     1      45.576   4.874   8.975  0.00  0.00    +0.000 A 
ATOM     25  C   UNL     1      45.282   3.691   8.297  0.00  0.00    +0.000 A 
ATOM     26  C   UNL     1      44.500   2.746   8.935  0.00  0.00    +0.000 A 
ATOM     27  N   UNL     1      44.003   2.911  10.175  0.00  0.00    +0.000 NA
ATOM     28  C   UNL     1      44.315   4.071  10.811  0.00  0.00    +0.000 A 
ENDBRANCH  21  23
ENDBRANCH  15  16
ENDBRANCH   1  15
TORSDOF 5
ENDMDL
MODEL 7
REMARK VINA RESULT:    -7.217      3.630      8.026
REMARK INTER + INTRA:          -9.494
REMARK INTER:                  -8.724
REMARK INTRA:                  -0.770
REMARK UNBOUND:                -0.167
REMARK  Name = 
REMARK  6 active torsions:
REMARK  status: ('A' for Active; 'I' for Inactive)
REMARK    1  A    between atoms: C_1  and  C_2
REMARK    2  A    between atoms: C_4  and  C_5
REMARK    3  A    between atoms: C_10  and  N_11
REMARK    4  A    between atoms: N_11  and  C_12
REMARK    5  A    between atoms: C_12  and  C_13
REMARK    6  A    between atoms: C_18  and  C_19
REMARK                            x       y       z     vdW  Elec       q    Type
REMARK                         _______ _______ _______ _____ _____    ______ ____
ROOT
ATOM      1  N   UNL     1      48.297   6.887  15.504  0.00  0.00    +0.000 N 
ATOM      2  H   UNL     1      47.338   6.865  15.823  0.00  0.00    +0.000 HD
ENDROOT
BRANCH   1   9
ATOM      3  C   UNL     1      47.205   4.387  16.564  0.00  0.00    +0.000 C 
ATOM      4  C   UNL     1      48.642   4.802  16.701  0.00  0.00    +0.000 A 
ATOM      5  C   UNL     1      49.520   3.967  17.417  0.00  0.00    +0.000 A 
ATOM      6  C   UNL     1      50.859   4.316  17.582  0.00  0.00    +0.000 A 
ATOM      7  C   UNL     1      51.261   5.507  17.011  0.00  0.00    +0.000 A 
ATOM      8  N   UNL     1      50.440   6.336  16.316  0.00  0.00    +0.000 NA
ATOM      9  C   UNL     1      49.144   5.993  16.154  0.00  0.00    +0.000 A 
BRANCH   6  10
ATOM     10  C   UNL     1      51.755   3.416  18.343  0.00  0.00    +0.000 C 
ATOM     11  N   UNL     1      51.727   2.074  18.088  0.00  0.00    +0.000 N 
ATOM     12  O   UNL     1      52.522   3.855  19.194  0.00  0.00    +0.000 OA
ATOM     13  H   UNL     1      51.166   1.609  17.389  0.00  0.00    +0.000 HD
ATOM     14  H   UNL     1      52.370   1.501  18.619  0.00  0.00    +0.000 HD
ENDBRANCH   6  10
ENDBRANCH   1   9
BRANCH   1  15
ATOM     15  C   UNL     1      48.439   7.077  14.063  0.00  0.00    +0.000 C 
BRANCH  15  16
ATOM     16  C   UNL     1      47.141   7.148  13.270  0.00  0.00    +0.000 A 
ATOM     17  C   UNL     1      46.389   8.335  13.308  0.00  0.00    +0.000 A 
ATOM     18  C   UNL     1      45.254   8.487  12.520  0.00  0.00    +0.000 A 
ATOM     19  C   UNL     1      44.856   7.462  11.664  0.00  0.00    +0.000 A 
ATOM     20  F   UNL     1      43.772   7.673  10.900  0.00  0.00    +0.000 F 
ATOM     21  C   UNL     1      45.567   6.253  11.576  0.00  0.00    +0.000 A 
ATOM     22  C   UNL     1      46.712   6.127  12.399  0.00  0.00    +0.000 A 
BRANCH  21  23
ATOM     23  C   UNL     1      45.158   5.154  10.672  0.00  0.00    +0.000 A 
ATOM     24  C   UNL     1      45.602   5.078   9.342  0.00  0.00    +0.000 A 
ATOM     25  C   UNL     1      45.247   4.002   8.527  0.00  0.00    +0.000 A 
ATOM     26  C   UNL     1      44.431   3.020   9.055  0.00  0.00    +0.000 A 
ATOM     27  N   UNL     1      43.956   3.049  10.315  0.00  0.00    +0.000 NA
ATOM     28  C   UNL     1      44.327   4.106  11.084  0.00  0.00    +0.000 A 
ENDBRANCH  21  23
ENDBRANCH  15  16
ENDBRANCH   1  15
TORSDOF 5
ENDMDL
MODEL 8
REMARK VINA RESULT:    -7.153      4.204      6.115
REMARK INTER + INTRA:          -9.411
REMARK INTER:                  -8.596
REMARK INTRA:                  -0.815
REMARK UNBOUND:                -0.167
REMARK  Name = 
REMARK  6 active torsions:
REMARK  status: ('A' for Active; 'I' for Inactive)
REMARK    1  A    between atoms: C_1  and  C_2
REMARK    2  A    between atoms: C_4  and  C_5
REMARK    3  A    between atoms: C_10  and  N_11
REMARK    4  A    between atoms: N_11  and  C_12
REMARK    5  A    between atoms: C_12  and  C_13
REMARK    6  A    between atoms: C_18  and  C_19
REMARK                            x       y       z     vdW  Elec       q    Type
REMARK                         _______ _______ _______ _____ _____    ______ ____
ROOT
ATOM      1  N   UNL     1      48.773   6.917  14.130  0.00  0.00    +0.000 N 
ATOM      2  H   UNL     1      49.626   6.425  13.902  0.00  0.00    +0.000 HD
ENDROOT
BRANCH   1   9
ATOM      3  C   UNL     1      46.604   8.411  12.853  0.00  0.00    +0.000 C 
ATOM      4  C   UNL     1      46.537   6.946  13.182  0.00  0.00    +0.000 A 
ATOM      5  C   UNL     1      45.348   6.246  12.904  0.00  0.00    +0.000 A 
ATOM      6  C   UNL     1      45.234   4.891  13.204  0.00  0.00    +0.000 A 
ATOM      7  C   UNL     1      46.335   4.291  13.779  0.00  0.00    +0.000 A 
ATOM      8  N   UNL     1      47.496   4.936  14.062  0.00  0.00    +0.000 NA
ATOM      9  C   UNL     1      47.606   6.250  13.767  0.00  0.00    +0.000 A 
BRANCH   6  10
ATOM     10  C   UNL     1      43.968   4.185  12.900  0.00  0.00    +0.000 C 
ATOM     11  N   UNL     1      43.999   2.846  12.627  0.00  0.00    +0.000 N 
ATOM     12  O   UNL     1      42.895   4.779  12.892  0.00  0.00    +0.000 OA
ATOM     13  H   UNL     1      44.815   2.250  12.641  0.00  0.00    +0.000 HD
ATOM     14  H   UNL     1      43.108   2.402  12.444  0.00  0.00    +0.000 HD
ENDBRANCH   6  10
ENDBRANCH   1   9
BRANCH   1  15
ATOM     15  C   UNL     1      48.817   7.621  15.409  0.00  0.00    +0.000 C 
BRANCH  15  16
ATOM     16  C   UNL     1      49.044   6.754  16.639  0.00  0.00    +0.000 A 
ATOM     17  C   UNL     1      48.319   7.037  17.810  0.00  0.00    +0.000 A 
ATOM     18  C   UNL     1      48.413   6.212  18.925  0.00  0.00    +0.000 A 
ATOM     19  C   UNL     1      49.220   5.077  18.887  0.00  0.00    +0.000 A 
ATOM     20  F   UNL     1      49.249   4.296  19.980  0.00  0.00    +0.000 F 
ATOM     21  C   UNL     1      49.966   4.736  17.747  0.00  0.00    +0.000 A 
ATOM     22  C   UNL     1      49.856   5.603  16.632  0.00  0.00    +0.000 A 
BRANCH  21  23
ATOM     23  C   UNL     1      50.829   3.534  17.690  0.00  0.00    +0.000 A 
ATOM     24  C   UNL     1      52.178   3.564  18.079  0.00  0.00    +0.000 A 
ATOM     25  C   UNL     1      52.954   2.405  18.070  0.00  0.00    +0.000 A 
ATOM     26  C   UNL     1      52.367   1.226  17.652  0.00  0.00    +0.000 A 
ATOM     27  N   UNL     1      51.086   1.138  17.247  0.00  0.00    +0.000 NA
ATOM     28  C   UNL     1      50.356   2.284  17.276  0.00  0.00    +0.000 A 
ENDBRANCH  21  23
ENDBRANCH  15  16
ENDBRANCH   1  15
TORSDOF 5
ENDMDL
MODEL 9
REMARK VINA RESULT:    -7.125      3.199      7.990
REMARK INTER + INTRA:          -9.374
REMARK INTER:                  -8.757
REMARK INTRA:                  -0.617
REMARK UNBOUND:                -0.167
REMARK  Name = 
REMARK  6 active torsions:
REMARK  status: ('A' for Active; 'I' for Inactive)
REMARK    1  A    between atoms: C_1  and  C_2
REMARK    2  A    between atoms: C_4  and  C_5
REMARK    3  A    between atoms: C_10  and  N_11
REMARK    4  A    between atoms: N_11  and  C_12
REMARK    5  A    between atoms: C_12  and  C_13
REMARK    6  A    between atoms: C_18  and  C_19
REMARK                            x       y       z     vdW  Elec       q    Type
REMARK                         _______ _______ _______ _____ _____    ______ ____
ROOT
ATOM      1  N   UNL     1      46.752   4.805  15.432  0.00  0.00    +0.000 N 
ATOM      2  H   UNL     1      45.855   4.346  15.504  0.00  0.00    +0.000 HD
ENDROOT
BRANCH   1   9
ATOM      3  C   UNL     1      48.552   6.264  17.221  0.00  0.00    +0.000 C 
ATOM      4  C   UNL     1      48.699   4.806  16.886  0.00  0.00    +0.000 A 
ATOM      5  C   UNL     1      49.788   4.096  17.424  0.00  0.00    +0.000 A 
ATOM      6  C   UNL     1      49.974   2.747  17.129  0.00  0.00    +0.000 A 
ATOM      7  C   UNL     1      49.041   2.164  16.295  0.00  0.00    +0.000 A 
ATOM      8  N   UNL     1      47.980   2.820  15.759  0.00  0.00    +0.000 NA
ATOM      9  C   UNL     1      47.801   4.127  16.048  0.00  0.00    +0.000 A 
BRANCH   6  10
ATOM     10  C   UNL     1      51.132   2.030  17.710  0.00  0.00    +0.000 C 
ATOM     11  N   UNL     1      51.986   2.702  18.539  0.00  0.00    +0.000 N 
ATOM     12  O   UNL     1      51.335   0.846  17.463  0.00  0.00    +0.000 OA
ATOM     13  H   UNL     1      51.898   3.663  18.839  0.00  0.00    +0.000 HD
ATOM     14  H   UNL     1      52.752   2.167  18.927  0.00  0.00    +0.000 HD
ENDBRANCH   6  10
ENDBRANCH   1   9
BRANCH   1  15
ATOM     15  C   UNL     1      46.988   5.452  14.144  0.00  0.00    +0.000 C 
BRANCH  15  16
ATOM     16  C   UNL     1      45.903   5.259  13.094  0.00  0.00    +0.000 A 
ATOM     17  C   UNL     1      44.667   5.906  13.272  0.00  0.00    +0.000 A 
ATOM     18  C   UNL     1      43.683   5.846  12.292  0.00  0.00    +0.000 A 
ATOM     19  C   UNL     1      43.919   5.155  11.106  0.00  0.00    +0.000 A 
ATOM     20  F   UNL     1      42.947   5.157  10.179  0.00  0.00    +0.000 F 
ATOM     21  C   UNL     1      45.134   4.491  10.865  0.00  0.00    +0.000 A 
ATOM     22  C   UNL     1      46.111   4.563  11.888  0.00  0.00    +0.000 A 
BRANCH  21  23
ATOM     23  C   UNL     1      45.401   3.752   9.611  0.00  0.00    +0.000 A 
ATOM     24  C   UNL     1      45.820   4.399   8.438  0.00  0.00    +0.000 A 
ATOM     25  C   UNL     1      46.120   3.673   7.284  0.00  0.00    +0.000 A 
ATOM     26  C   UNL     1      45.977   2.299   7.318  0.00  0.00    +0.000 A 
ATOM     27  N   UNL     1      45.558   1.624   8.405  0.00  0.00    +0.000 NA
ATOM     28  C   UNL     1      45.283   2.361   9.514  0.00  0.00    +0.000 A 
ENDBRANCH  21  23
ENDBRANCH  15  16
ENDBRANCH   1  15
TORSDOF 5
ENDMDL
