MODEL 1
REMARK VINA RESULT:    -8.071      0.000      0.000
REMARK INTER + INTRA:         -10.007
REMARK INTER:                  -9.486
REMARK INTRA:                  -0.521
REMARK UNBOUND:                -0.521
REMARK  Name = 
REMARK  3 active torsions:
REMARK  status: ('A' for Active; 'I' for Inactive)
REMARK    1  A    between atoms: C_2  and  C_4
REMARK    2  A    between atoms: C_7  and  C_8
REMARK    3  A    between atoms: C_8  and  N_9
REMARK                            x       y       z     vdW  Elec       q    Type
REMARK                         _______ _______ _______ _____ _____    ______ ____
ROOT
ATOM      1  C   UNL     1      46.431   2.442   7.661  0.00  0.00    +0.000 A 
ATOM      2  C   UNL     1      45.614   1.766   8.574  0.00  0.00    +0.000 A 
ATOM      3  C   UNL     1      44.804   2.491   9.457  0.00  0.00    +0.000 A 
ATOM      4  C   UNL     1      44.806   3.894   9.445  0.00  0.00    +0.000 A 
ATOM      5  C   UNL     1      45.642   4.560   8.536  0.00  0.00    +0.000 A 
ATOM      6  C   UNL     1      46.451   3.840   7.653  0.00  0.00    +0.000 A 
ENDROOT
BRANCH   1   8
ATOM      7  N   UNL     1      48.347   2.412   6.159  0.00  0.00    +0.000 N 
ATOM      8  C   UNL     1      47.306   1.715   6.704  0.00  0.00    +0.000 C 
ATOM      9  O   UNL     1      47.135   0.530   6.447  0.00  0.00    +0.000 OA
ATOM     10  H   UNL     1      48.998   1.876   5.598  0.00  0.00    +0.000 HD
ATOM     11  H   UNL     1      48.666   3.292   6.535  0.00  0.00    +0.000 HD
ENDBRANCH   1   8
BRANCH   4  12
ATOM     12  C   UNL     1      43.931   4.682  10.389  0.00  0.00    +0.000 C 
BRANCH  12  13
ATOM     13  N   UNL     1      44.702   5.491  11.326  0.00  0.00    +0.000 N 
ATOM     14  C   UNL     1      44.578   6.857  11.454  0.00  0.00    +0.000 A 
ATOM     15  C   UNL     1      45.347   7.259  12.524  0.00  0.00    +0.000 A 
ATOM     16  C   UNL     1      45.941   6.101  13.076  0.00  0.00    +0.000 A 
ATOM     17  N   UNL     1      46.749   6.003  14.160  0.00  0.00    +0.000 NA
ATOM     18  C   UNL     1      47.143   4.748  14.458  0.00  0.00    +0.000 A 
ATOM     19  C   UNL     1      46.798   3.605  13.751  0.00  0.00    +0.000 A 
ATOM     20  C   UNL     1      45.974   3.715  12.637  0.00  0.00    +0.000 A 
ATOM     21  C   UNL     1      45.537   5.005  12.312  0.00  0.00    +0.000 A 
ENDBRANCH  12  13
ENDBRANCH   4  12
TORSDOF 3
ENDMDL
MODEL 2
REMARK VINA RESULT:    -8.033      0.917      2.155
REMARK INTER + INTRA:          -9.963
REMARK INTER:                  -9.391
REMARK INTRA:                  -0.572
REMARK UNBOUND:                -0.521
REMARK  Name = 
REMARK  3 active torsions:
REMARK  status: ('A' for Active; 'I' for Inactive)
REMARK    1  A    between atoms: C_2  and  C_4
REMARK    2  A    between atoms: C_7  and  C_8
REMARK    3  A    between atoms: C_8  and  N_9
REMARK                            x       y       z     vdW  Elec       q    Type
REMARK                         _______ _______ _______ _____ _____    ______ ____
ROOT
ATOM      1  C   UNL     1      46.619   2.656   7.276  0.00  0.00    +0.000 A 
ATOM      2  C   UNL     1      46.059   1.679   8.106  0.00  0.00    +0.000 A 
ATOM      3  C   UNL     1      45.236   2.057   9.174  0.00  0.00    +0.000 A 
ATOM      4  C   UNL     1      44.971   3.410   9.432  0.00  0.00    +0.000 A 
ATOM      5  C   UNL     1      45.553   4.382   8.602  0.00  0.00    +0.000 A 
ATOM      6  C   UNL     1      46.373   4.008   7.535  0.00  0.00    +0.000 A 
ENDROOT
BRANCH   1   8
ATOM      7  N   UNL     1      47.411   3.087   5.014  0.00  0.00    +0.000 N 
ATOM      8  C   UNL     1      47.496   2.302   6.129  0.00  0.00    +0.000 C 
ATOM      9  O   UNL     1      48.295   1.377   6.191  0.00  0.00    +0.000 OA
ATOM     10  H   UNL     1      48.091   2.904   4.286  0.00  0.00    +0.000 HD
ATOM     11  H   UNL     1      46.963   3.991   5.021  0.00  0.00    +0.000 HD
ENDBRANCH   1   8
BRANCH   4  12
ATOM     12  C   UNL     1      44.081   3.826  10.578  0.00  0.00    +0.000 C 
BRANCH  12  13
ATOM     13  N   UNL     1      44.833   4.365  11.706  0.00  0.00    +0.000 N 
ATOM     14  C   UNL     1      45.526   3.595  12.613  0.00  0.00    +0.000 A 
ATOM     15  C   UNL     1      46.227   4.440  13.445  0.00  0.00    +0.000 A 
ATOM     16  C   UNL     1      45.967   5.763  13.020  0.00  0.00    +0.000 A 
ATOM     17  N   UNL     1      46.465   6.922  13.517  0.00  0.00    +0.000 NA
ATOM     18  C   UNL     1      46.046   8.035  12.880  0.00  0.00    +0.000 A 
ATOM     19  C   UNL     1      45.169   8.068  11.806  0.00  0.00    +0.000 A 
ATOM     20  C   UNL     1      44.658   6.875  11.307  0.00  0.00    +0.000 A 
ATOM     21  C   UNL     1      45.087   5.702  11.939  0.00  0.00    +0.000 A 
ENDBRANCH  12  13
ENDBRANCH   4  12
TORSDOF 3
ENDMDL
MODEL 3
REMARK VINA RESULT:    -6.350      3.247      6.266
REMARK INTER + INTRA:          -7.984
REMARK INTER:                  -7.425
REMARK INTRA:                  -0.560
REMARK UNBOUND:                -0.521
REMARK  Name = 
REMARK  3 active torsions:
REMARK  status: ('A' for Active; 'I' for Inactive)
REMARK    1  A    between atoms: C_2  and  C_4
REMARK    2  A    between atoms: C_7  and  C_8
REMARK    3  A    between atoms: C_8  and  N_9
REMARK                            x       y       z     vdW  Elec       q    Type
REMARK                         _______ _______ _______ _____ _____    ______ ____
ROOT
ATOM      1  C   UNL     1      48.117   6.888  13.840  0.00  0.00    +0.000 A 
ATOM      2  C   UNL     1      47.529   5.653  14.129  0.00  0.00    +0.000 A 
ATOM      3  C   UNL     1      46.256   5.349  13.629  0.00  0.00    +0.000 A 
ATOM      4  C   UNL     1      45.554   6.276  12.845  0.00  0.00    +0.000 A 
ATOM      5  C   UNL     1      46.148   7.519  12.575  0.00  0.00    +0.000 A 
ATOM      6  C   UNL     1      47.418   7.824  13.072  0.00  0.00    +0.000 A 
ENDROOT
BRANCH   1   8
ATOM      7  N   UNL     1      50.085   8.319  13.759  0.00  0.00    +0.000 N 
ATOM      8  C   UNL     1      49.465   7.252  14.347  0.00  0.00    +0.000 C 
ATOM      9  O   UNL     1      49.985   6.657  15.282  0.00  0.00    +0.000 OA
ATOM     10  H   UNL     1      50.950   8.625  14.187  0.00  0.00    +0.000 HD
ATOM     11  H   UNL     1      49.591   8.979  13.176  0.00  0.00    +0.000 HD
ENDBRANCH   1   8
BRANCH   4  12
ATOM     12  C   UNL     1      44.185   5.955  12.297  0.00  0.00    +0.000 C 
BRANCH  12  13
ATOM     13  N   UNL     1      44.104   4.608  11.742  0.00  0.00    +0.000 N 
ATOM     14  C   UNL     1      43.388   3.578  12.310  0.00  0.00    +0.000 A 
ATOM     15  C   UNL     1      43.420   2.506  11.445  0.00  0.00    +0.000 A 
ATOM     16  C   UNL     1      44.160   2.902  10.308  0.00  0.00    +0.000 A 
ATOM     17  N   UNL     1      44.425   2.192   9.184  0.00  0.00    +0.000 NA
ATOM     18  C   UNL     1      45.144   2.853   8.255  0.00  0.00    +0.000 A 
ATOM     19  C   UNL     1      45.618   4.152   8.375  0.00  0.00    +0.000 A 
ATOM     20  C   UNL     1      45.347   4.871   9.534  0.00  0.00    +0.000 A 
ATOM     21  C   UNL     1      44.590   4.214  10.510  0.00  0.00    +0.000 A 
ENDBRANCH  12  13
ENDBRANCH   4  12
TORSDOF 3
ENDMDL
MODEL 4
REMARK VINA RESULT:    -6.349      2.640      6.250
REMARK INTER + INTRA:          -7.984
REMARK INTER:                  -7.430
REMARK INTRA:                  -0.553
REMARK UNBOUND:                -0.521
REMARK  Name = 
REMARK  3 active torsions:
REMARK  status: ('A' for Active; 'I' for Inactive)
REMARK    1  A    between atoms: C_2  and  C_4
REMARK    2  A    between atoms: C_7  and  C_8
REMARK    3  A    between atoms: C_8  and  N_9
REMARK                            x       y       z     vdW  Elec       q    Type
REMARK                         _______ _______ _______ _____ _____    ______ ____
ROOT
ATOM      1  C   UNL     1      46.515   4.606  13.783  0.00  0.00    +0.000 A 
ATOM      2  C   UNL     1      46.251   3.309  13.329  0.00  0.00    +0.000 A 
ATOM      3  C   UNL     1      45.570   3.117  12.121  0.00  0.00    +0.000 A 
ATOM      4  C   UNL     1      45.137   4.212  11.358  0.00  0.00    +0.000 A 
ATOM      5  C   UNL     1      45.393   5.508  11.833  0.00  0.00    +0.000 A 
ATOM      6  C   UNL     1      46.074   5.703  13.038  0.00  0.00    +0.000 A 
ENDROOT
BRANCH   1   8
ATOM      7  N   UNL     1      46.747   4.252  16.181  0.00  0.00    +0.000 N 
ATOM      8  C   UNL     1      47.236   4.858  15.058  0.00  0.00    +0.000 C 
ATOM      9  O   UNL     1      48.252   5.540  15.100  0.00  0.00    +0.000 OA
ATOM     10  H   UNL     1      47.310   4.341  17.018  0.00  0.00    +0.000 HD
ATOM     11  H   UNL     1      46.081   3.494  16.141  0.00  0.00    +0.000 HD
ENDBRANCH   1   8
BRANCH   4  12
ATOM     12  C   UNL     1      44.407   4.013  10.052  0.00  0.00    +0.000 C 
BRANCH  12  13
ATOM     13  N   UNL     1      45.314   3.886   8.916  0.00  0.00    +0.000 N 
ATOM     14  C   UNL     1      45.940   4.949   8.304  0.00  0.00    +0.000 A 
ATOM     15  C   UNL     1      46.823   4.446   7.374  0.00  0.00    +0.000 A 
ATOM     16  C   UNL     1      46.746   3.036   7.435  0.00  0.00    +0.000 A 
ATOM     17  N   UNL     1      47.455   2.120   6.730  0.00  0.00    +0.000 NA
ATOM     18  C   UNL     1      47.173   0.836   7.029  0.00  0.00    +0.000 A 
ATOM     19  C   UNL     1      46.237   0.412   7.962  0.00  0.00    +0.000 A 
ATOM     20  C   UNL     1      45.509   1.358   8.675  0.00  0.00    +0.000 A 
ATOM     21  C   UNL     1      45.792   2.700   8.396  0.00  0.00    +0.000 A 
ENDBRANCH  12  13
ENDBRANCH   4  12
TORSDOF 3
ENDMDL
MODEL 5
REMARK VINA RESULT:    -6.212      2.711      6.460
REMARK INTER + INTRA:          -7.822
REMARK INTER:                  -7.243
REMARK INTRA:                  -0.580
REMARK UNBOUND:                -0.521
REMARK  Name = 
REMARK  3 active torsions:
REMARK  status: ('A' for Active; 'I' for Inactive)
REMARK    1  A    between atoms: C_2  and  C_4
REMARK    2  A    between atoms: C_7  and  C_8
REMARK    3  A    between atoms: C_8  and  N_9
REMARK                            x       y       z     vdW  Elec       q    Type
REMARK                         _______ _______ _______ _____ _____    ______ ____
ROOT
ATOM      1  C   UNL     1      47.061   6.457  13.134  0.00  0.00    +0.000 A 
ATOM      2  C   UNL     1      46.839   7.119  11.922  0.00  0.00    +0.000 A 
ATOM      3  C   UNL     1      45.933   6.592  10.993  0.00  0.00    +0.000 A 
ATOM      4  C   UNL     1      45.247   5.397  11.258  0.00  0.00    +0.000 A 
ATOM      5  C   UNL     1      45.491   4.735  12.471  0.00  0.00    +0.000 A 
ATOM      6  C   UNL     1      46.393   5.258  13.400  0.00  0.00    +0.000 A 
ENDROOT
BRANCH   1   8
ATOM      7  N   UNL     1      47.695   8.170  14.744  0.00  0.00    +0.000 N 
ATOM      8  C   UNL     1      48.011   6.981  14.150  0.00  0.00    +0.000 C 
ATOM      9  O   UNL     1      49.011   6.357  14.479  0.00  0.00    +0.000 OA
ATOM     10  H   UNL     1      48.290   8.459  15.511  0.00  0.00    +0.000 HD
ATOM     11  H   UNL     1      46.772   8.575  14.688  0.00  0.00    +0.000 HD
ENDBRANCH   1   8
BRANCH   4  12
ATOM     12  C   UNL     1      44.265   4.826  10.265  0.00  0.00    +0.000 C 
BRANCH  12  13
ATOM     13  N   UNL     1      44.741   3.591   9.651  0.00  0.00    +0.000 N 
ATOM     14  C   UNL     1      44.239   2.341   9.937  0.00  0.00    +0.000 A 
ATOM     15  C   UNL     1      44.819   1.438   9.073  0.00  0.00    +0.000 A 
ATOM     16  C   UNL     1      45.686   2.163   8.224  0.00  0.00    +0.000 A 
ATOM     17  N   UNL     1      46.442   1.702   7.197  0.00  0.00    +0.000 NA
ATOM     18  C   UNL     1      47.153   2.648   6.551  0.00  0.00    +0.000 A 
ATOM     19  C   UNL     1      47.169   4.000   6.863  0.00  0.00    +0.000 A 
ATOM     20  C   UNL     1      46.395   4.463   7.922  0.00  0.00    +0.000 A 
ATOM     21  C   UNL     1      45.634   3.505   8.602  0.00  0.00    +0.000 A 
ENDBRANCH  12  13
ENDBRANCH   4  12
TORSDOF 3
ENDMDL
MODEL 6
REMARK VINA RESULT:    -5.723      2.928      3.909
REMARK INTER + INTRA:          -7.247
REMARK INTER:                  -6.864
REMARK INTRA:                  -0.383
REMARK UNBOUND:                -0.521
REMARK  Name = 
REMARK  3 active torsions:
REMARK  status: ('A' for Active; 'I' for Inactive)
REMARK    1  A    between atoms: C_2  and  C_4
REMARK    2  A    between atoms: C_7  and  C_8
REMARK    3  A    between atoms: C_8  and  N_9
REMARK                            x       y       z     vdW  Elec       q    Type
REMARK                         _______ _______ _______ _____ _____    ______ ____
ROOT
ATOM      1  C   UNL     1      44.936   3.673  10.025  0.00  0.00    +0.000 A 
ATOM      2  C   UNL     1      44.877   3.272  11.364  0.00  0.00    +0.000 A 
ATOM      3  C   UNL     1      45.212   4.176  12.380  0.00  0.00    +0.000 A 
ATOM      4  C   UNL     1      45.617   5.483  12.073  0.00  0.00    +0.000 A 
ATOM      5  C   UNL     1      45.687   5.869  10.725  0.00  0.00    +0.000 A 
ATOM      6  C   UNL     1      45.353   4.970   9.709  0.00  0.00    +0.000 A 
ENDROOT
BRANCH   1   8
ATOM      7  N   UNL     1      44.319   3.311   7.697  0.00  0.00    +0.000 N 
ATOM      8  C   UNL     1      44.588   2.749   8.914  0.00  0.00    +0.000 C 
ATOM      9  O   UNL     1      44.586   1.534   9.063  0.00  0.00    +0.000 OA
ATOM     10  H   UNL     1      44.194   2.668   6.926  0.00  0.00    +0.000 HD
ATOM     11  H   UNL     1      44.558   4.267   7.477  0.00  0.00    +0.000 HD
ENDBRANCH   1   8
BRANCH   4  12
ATOM     12  C   UNL     1      45.973   6.465  13.162  0.00  0.00    +0.000 C 
BRANCH  12  13
ATOM     13  N   UNL     1      46.448   7.741  12.636  0.00  0.00    +0.000 N 
ATOM     14  C   UNL     1      45.683   8.885  12.574  0.00  0.00    +0.000 A 
ATOM     15  C   UNL     1      46.494   9.919  12.161  0.00  0.00    +0.000 A 
ATOM     16  C   UNL     1      47.794   9.393  11.985  0.00  0.00    +0.000 A 
ATOM     17  N   UNL     1      48.926  10.045  11.621  0.00  0.00    +0.000 NA
ATOM     18  C   UNL     1      50.029   9.270  11.561  0.00  0.00    +0.000 A 
ATOM     19  C   UNL     1      50.073   7.909  11.824  0.00  0.00    +0.000 A 
ATOM     20  C   UNL     1      48.907   7.247  12.191  0.00  0.00    +0.000 A 
ATOM     21  C   UNL     1      47.749   8.029  12.276  0.00  0.00    +0.000 A 
ENDBRANCH  12  13
ENDBRANCH   4  12
TORSDOF 3
ENDMDL
MODEL 7
REMARK VINA RESULT:    -5.492      2.703      4.241
REMARK INTER + INTRA:          -6.976
REMARK INTER:                  -6.516
REMARK INTRA:                  -0.460
REMARK UNBOUND:                -0.521
REMARK  Name = 
REMARK  3 active torsions:
REMARK  status: ('A' for Active; 'I' for Inactive)
REMARK    1  A    between atoms: C_2  and  C_4
REMARK    2  A    between atoms: C_7  and  C_8
REMARK    3  A    between atoms: C_8  and  N_9
REMARK                            x       y       z     vdW  Elec       q    Type
REMARK                         _______ _______ _______ _____ _____    ______ ____
ROOT
ATOM      1  C   UNL     1      45.171   3.545   9.961  0.00  0.00    +0.000 A 
ATOM      2  C   UNL     1      44.895   3.235  11.296  0.00  0.00    +0.000 A 
ATOM      3  C   UNL     1      44.822   4.257  12.251  0.00  0.00    +0.000 A 
ATOM      4  C   UNL     1      45.032   5.595  11.887  0.00  0.00    +0.000 A 
ATOM      5  C   UNL     1      45.325   5.891  10.547  0.00  0.00    +0.000 A 
ATOM      6  C   UNL     1      45.397   4.874   9.591  0.00  0.00    +0.000 A 
ENDROOT
BRANCH   1   8
ATOM      7  N   UNL     1      44.527   1.354   9.115  0.00  0.00    +0.000 N 
ATOM      8  C   UNL     1      45.255   2.494   8.914  0.00  0.00    +0.000 C 
ATOM      9  O   UNL     1      45.910   2.653   7.891  0.00  0.00    +0.000 OA
ATOM     10  H   UNL     1      44.506   0.697   8.345  0.00  0.00    +0.000 HD
ATOM     11  H   UNL     1      43.792   1.296   9.803  0.00  0.00    +0.000 HD
ENDBRANCH   1   8
BRANCH   4  12
ATOM     12  C   UNL     1      44.950   6.703  12.908  0.00  0.00    +0.000 C 
BRANCH  12  13
ATOM     13  N   UNL     1      46.083   7.618  12.837  0.00  0.00    +0.000 N 
ATOM     14  C   UNL     1      47.395   7.242  13.022  0.00  0.00    +0.000 A 
ATOM     15  C   UNL     1      48.196   8.327  12.741  0.00  0.00    +0.000 A 
ATOM     16  C   UNL     1      47.347   9.389  12.354  0.00  0.00    +0.000 A 
ATOM     17  N   UNL     1      47.689  10.639  11.955  0.00  0.00    +0.000 NA
ATOM     18  C   UNL     1      46.648  11.430  11.624  0.00  0.00    +0.000 A 
ATOM     19  C   UNL     1      45.310  11.066  11.675  0.00  0.00    +0.000 A 
ATOM     20  C   UNL     1      44.968   9.784  12.092  0.00  0.00    +0.000 A 
ATOM     21  C   UNL     1      46.030   8.936  12.428  0.00  0.00    +0.000 A 
ENDBRANCH  12  13
ENDBRANCH   4  12
TORSDOF 3
ENDMDL
MODEL 8
REMARK VINA RESULT:    -5.470      3.319      4.862
REMARK INTER + INTRA:          -6.949
REMARK INTER:                  -6.462
REMARK INTRA:                  -0.487
REMARK UNBOUND:                -0.521
REMARK  Name = 
REMARK  3 active torsions:
REMARK  status: ('A' for Active; 'I' for Inactive)
REMARK    1  A    between atoms: C_2  and  C_4
REMARK    2  A    between atoms: C_7  and  C_8
REMARK    3  A    between atoms: C_8  and  N_9
REMARK                            x       y       z     vdW  Elec       q    Type
REMARK                         _______ _______ _______ _____ _____    ______ ____
ROOT
ATOM      1  C   UNL     1      44.735   4.211  11.447  0.00  0.00    +0.000 A 
ATOM      2  C   UNL     1      44.926   5.328  10.626  0.00  0.00    +0.000 A 
ATOM      3  C   UNL     1      45.477   6.501  11.156  0.00  0.00    +0.000 A 
ATOM      4  C   UNL     1      45.834   6.577  12.511  0.00  0.00    +0.000 A 
ATOM      5  C   UNL     1      45.622   5.455  13.328  0.00  0.00    +0.000 A 
ATOM      6  C   UNL     1      45.073   4.283  12.801  0.00  0.00    +0.000 A 
ENDROOT
BRANCH   1   8
ATOM      7  N   UNL     1      44.848   2.305   9.936  0.00  0.00    +0.000 N 
ATOM      8  C   UNL     1      44.157   2.946  10.926  0.00  0.00    +0.000 C 
ATOM      9  O   UNL     1      43.130   2.467  11.390  0.00  0.00    +0.000 OA
ATOM     10  H   UNL     1      44.504   1.391   9.670  0.00  0.00    +0.000 HD
ATOM     11  H   UNL     1      45.807   2.529   9.714  0.00  0.00    +0.000 HD
ENDBRANCH   1   8
BRANCH   4  12
ATOM     12  C   UNL     1      46.433   7.835  13.090  0.00  0.00    +0.000 C 
BRANCH  12  13
ATOM     13  N   UNL     1      47.884   7.885  12.943  0.00  0.00    +0.000 N 
ATOM     14  C   UNL     1      48.533   8.347  11.819  0.00  0.00    +0.000 A 
ATOM     15  C   UNL     1      49.883   8.384  12.090  0.00  0.00    +0.000 A 
ATOM     16  C   UNL     1      50.059   7.950  13.424  0.00  0.00    +0.000 A 
ATOM     17  N   UNL     1      51.209   7.856  14.135  0.00  0.00    +0.000 NA
ATOM     18  C   UNL     1      51.054   7.428  15.404  0.00  0.00    +0.000 A 
ATOM     19  C   UNL     1      49.848   7.084  15.998  0.00  0.00    +0.000 A 
ATOM     20  C   UNL     1      48.674   7.178  15.259  0.00  0.00    +0.000 A 
ATOM     21  C   UNL     1      48.803   7.633  13.942  0.00  0.00    +0.000 A 
ENDBRANCH  12  13
ENDBRANCH   4  12
TORSDOF 3
ENDMDL
MODEL 9
REMARK VINA RESULT:    -5.438      4.201      5.660
REMARK INTER + INTRA:          -6.913
REMARK INTER:                  -6.336
REMARK INTRA:                  -0.577
REMARK UNBOUND:                -0.521
REMARK  Name = 
REMARK  3 active torsions:
REMARK  status: ('A' for Active; 'I' for Inactive)
REMARK    1  A    between atoms: C_2  and  C_4
REMARK    2  A    between atoms: C_7  and  C_8
REMARK    3  A    between atoms: C_8  and  N_9
REMARK                            x       y       z     vdW  Elec       q    Type
REMARK                         _______ _______ _______ _____ _____    ______ ____
ROOT
ATOM      1  C   UNL     1      44.446   5.525  12.022  0.00  0.00    +0.000 A 
ATOM      2  C   UNL     1      45.118   6.545  11.340  0.00  0.00    +0.000 A 
ATOM      3  C   UNL     1      46.442   6.855  11.674  0.00  0.00    +0.000 A 
ATOM      4  C   UNL     1      47.106   6.160  12.695  0.00  0.00    +0.000 A 
ATOM      5  C   UNL     1      46.415   5.150  13.383  0.00  0.00    +0.000 A 
ATOM      6  C   UNL     1      45.094   4.838  13.052  0.00  0.00    +0.000 A 
ENDROOT
BRANCH   1   8
ATOM      7  N   UNL     1      42.111   6.162  11.750  0.00  0.00    +0.000 N 
ATOM      8  C   UNL     1      43.042   5.161  11.700  0.00  0.00    +0.000 C 
ATOM      9  O   UNL     1      42.731   4.027  11.360  0.00  0.00    +0.000 OA
ATOM     10  H   UNL     1      41.183   5.925  11.421  0.00  0.00    +0.000 HD
ATOM     11  H   UNL     1      42.367   7.138  11.773  0.00  0.00    +0.000 HD
ENDBRANCH   1   8
BRANCH   4  12
ATOM     12  C   UNL     1      48.535   6.484  13.057  0.00  0.00    +0.000 C 
BRANCH  12  13
ATOM     13  N   UNL     1      48.634   7.458  14.138  0.00  0.00    +0.000 N 
ATOM     14  C   UNL     1      48.539   8.821  13.963  0.00  0.00    +0.000 A 
ATOM     15  C   UNL     1      48.532   9.413  15.206  0.00  0.00    +0.000 A 
ATOM     16  C   UNL     1      48.605   8.380  16.168  0.00  0.00    +0.000 A 
ATOM     17  N   UNL     1      48.590   8.482  17.519  0.00  0.00    +0.000 NA
ATOM     18  C   UNL     1      48.650   7.305  18.175  0.00  0.00    +0.000 A 
ATOM     19  C   UNL     1      48.733   6.054  17.581  0.00  0.00    +0.000 A 
ATOM     20  C   UNL     1      48.753   5.958  16.194  0.00  0.00    +0.000 A 
ATOM     21  C   UNL     1      48.677   7.164  15.487  0.00  0.00    +0.000 A 
ENDBRANCH  12  13
ENDBRANCH   4  12
TORSDOF 3
ENDMDL
