MODEL 1
REMARK VINA RESULT:    -6.912      0.000      0.000
REMARK INTER + INTRA:         -10.849
REMARK INTER:                  -9.741
REMARK INTRA:                  -1.108
REMARK UNBOUND:                -1.108
REMARK  Name = 
REMARK  8 active torsions:
REMARK  status: ('A' for Active; 'I' for Inactive)
REMARK    1  A    between atoms: C_1  and  O_2
REMARK    2  A    between atoms: O_2  and  C_3
REMARK    3  A    between atoms: C_10  and  C_11
REMARK    4  A    between atoms: N_13  and  C_14
REMARK    5  A    between atoms: C_14  and  C_15
REMARK    6  A    between atoms: C_18  and  N_19
REMARK    7  A    between atoms: N_19  and  C_20
REMARK    8  A    between atoms: C_20  and  C_21
REMARK                            x       y       z     vdW  Elec       q    Type
REMARK                         _______ _______ _______ _____ _____    ______ ____
ROOT
ATOM      1  C   UNL     1      48.170   7.928  13.680  0.00  0.00    +0.000 C 
ENDROOT
BRANCH   1   2
ATOM      2  C   UNL     1      47.234   6.933  13.049  0.00  0.00    +0.000 A 
ATOM      3  C   UNL     1      46.681   7.178  11.789  0.00  0.00    +0.000 A 
ATOM      4  C   UNL     1      45.774   6.275  11.215  0.00  0.00    +0.000 A 
ATOM      5  C   UNL     1      45.368   5.123  11.894  0.00  0.00    +0.000 A 
ATOM      6  C   UNL     1      45.942   4.880  13.150  0.00  0.00    +0.000 A 
ATOM      7  C   UNL     1      46.855   5.773  13.728  0.00  0.00    +0.000 A 
BRANCH   5   8
ATOM      8  N   UNL     1      44.540   4.144  11.349  0.00  0.00    +0.000 N 
ATOM      9  H   UNL     1      43.735   4.544  10.869  0.00  0.00    +0.000 HD
BRANCH   8  10
ATOM     10  C   UNL     1      45.062   2.933  10.724  0.00  0.00    +0.000 C 
BRANCH  10  11
ATOM     11  C   UNL     1      44.426   2.748   9.332  0.00  0.00    +0.000 C 
ATOM     12  C   UNL     1      44.893   1.455   8.636  0.00  0.00    +0.000 C 
ATOM     13  C   UNL     1      46.320   1.552   8.095  0.00  0.00    +0.000 C 
ATOM     14  N   UNL     1      46.488   2.704   7.207  0.00  0.00    +0.000 NA
ATOM     15  C   UNL     1      46.155   3.954   7.887  0.00  0.00    +0.000 C 
ATOM     16  C   UNL     1      44.721   3.952   8.420  0.00  0.00    +0.000 C 
ATOM     17  H   UNL     1      45.877   2.589   6.397  0.00  0.00    +0.000 HD
ENDBRANCH  10  11
ENDBRANCH   8  10
ENDBRANCH   5   8
ENDBRANCH   1   2
BRANCH   1  20
ATOM     18  C   UNL     1      49.190   7.203  15.791  0.00  0.00    +0.000 C 
ATOM     19  O   UNL     1      50.158   6.742  15.192  0.00  0.00    +0.000 OA
ATOM     20  N   UNL     1      48.161   7.798  15.117  0.00  0.00    +0.000 N 
ATOM     21  H   UNL     1      47.361   8.162  15.618  0.00  0.00    +0.000 HD
BRANCH  18  29
ATOM     22  C   UNL     1      48.895   4.607  18.057  0.00  0.00    +0.000 A 
ATOM     23  N   UNL     1      48.746   3.819  19.143  0.00  0.00    +0.000 NA
ATOM     24  C   UNL     1      48.680   4.401  20.343  0.00  0.00    +0.000 A 
ATOM     25  N   UNL     1      48.746   5.702  20.604  0.00  0.00    +0.000 NA
ATOM     26  C   UNL     1      48.886   6.453  19.499  0.00  0.00    +0.000 A 
ATOM     27  S   UNL     1      48.988   8.141  19.651  0.00  0.00    +0.000 S 
ATOM     28  C   UNL     1      49.125   8.330  17.969  0.00  0.00    +0.000 A 
ATOM     29  C   UNL     1      49.097   7.136  17.260  0.00  0.00    +0.000 A 
ATOM     30  C   UNL     1      48.964   6.007  18.181  0.00  0.00    +0.000 A 
BRANCH  22  32
ATOM     31  C   UNL     1      47.812   3.301  16.431  0.00  0.00    +0.000 C 
ATOM     32  O   UNL     1      48.993   4.004  16.819  0.00  0.00    +0.000 OA
ENDBRANCH  22  32
ENDBRANCH  18  29
ENDBRANCH   1  20
TORSDOF 7
ENDMDL
MODEL 2
REMARK VINA RESULT:    -6.895      4.374      9.090
REMARK INTER + INTRA:         -10.824
REMARK INTER:                  -9.752
REMARK INTRA:                  -1.072
REMARK UNBOUND:                -1.108
REMARK  Name = 
REMARK  8 active torsions:
REMARK  status: ('A' for Active; 'I' for Inactive)
REMARK    1  A    between atoms: C_1  and  O_2
REMARK    2  A    between atoms: O_2  and  C_3
REMARK    3  A    between atoms: C_10  and  C_11
REMARK    4  A    between atoms: N_13  and  C_14
REMARK    5  A    between atoms: C_14  and  C_15
REMARK    6  A    between atoms: C_18  and  N_19
REMARK    7  A    between atoms: N_19  and  C_20
REMARK    8  A    between atoms: C_20  and  C_21
REMARK                            x       y       z     vdW  Elec       q    Type
REMARK                         _______ _______ _______ _____ _____    ______ ____
ROOT
ATOM      1  C   UNL     1      47.450   3.401  16.909  0.00  0.00    +0.000 C 
ENDROOT
BRANCH   1   2
ATOM      2  C   UNL     1      48.924   3.363  17.205  0.00  0.00    +0.000 A 
ATOM      3  C   UNL     1      49.616   4.537  17.519  0.00  0.00    +0.000 A 
ATOM      4  C   UNL     1      50.998   4.514  17.755  0.00  0.00    +0.000 A 
ATOM      5  C   UNL     1      51.734   3.331  17.650  0.00  0.00    +0.000 A 
ATOM      6  C   UNL     1      51.026   2.158  17.351  0.00  0.00    +0.000 A 
ATOM      7  C   UNL     1      49.644   2.169  17.122  0.00  0.00    +0.000 A 
BRANCH   5   8
ATOM      8  N   UNL     1      53.089   3.222  17.953  0.00  0.00    +0.000 N 
ATOM      9  H   UNL     1      53.540   4.132  18.034  0.00  0.00    +0.000 HD
BRANCH   8  10
ATOM     10  C   UNL     1      53.610   2.218  18.874  0.00  0.00    +0.000 C 
BRANCH  10  11
ATOM     11  C   UNL     1      54.920   1.626  18.315  0.00  0.00    +0.000 C 
ATOM     12  C   UNL     1      54.814   1.265  16.821  0.00  0.00    +0.000 C 
ATOM     13  C   UNL     1      54.003  -0.008  16.573  0.00  0.00    +0.000 C 
ATOM     14  N   UNL     1      54.520  -1.142  17.342  0.00  0.00    +0.000 NA
ATOM     15  C   UNL     1      54.522  -0.856  18.775  0.00  0.00    +0.000 C 
ATOM     16  C   UNL     1      55.354   0.383  19.111  0.00  0.00    +0.000 C 
ATOM     17  H   UNL     1      55.473  -1.341  17.038  0.00  0.00    +0.000 HD
ENDBRANCH  10  11
ENDBRANCH   8  10
ENDBRANCH   5   8
ENDBRANCH   1   2
BRANCH   1  20
ATOM     18  C   UNL     1      47.068   4.258  14.642  0.00  0.00    +0.000 C 
ATOM     19  O   UNL     1      47.279   3.148  14.161  0.00  0.00    +0.000 OA
ATOM     20  N   UNL     1      47.140   4.469  15.990  0.00  0.00    +0.000 N 
ATOM     21  H   UNL     1      46.978   5.391  16.375  0.00  0.00    +0.000 HD
BRANCH  18  29
ATOM     22  C   UNL     1      44.322   5.066  12.701  0.00  0.00    +0.000 A 
ATOM     23  N   UNL     1      43.424   5.615  11.856  0.00  0.00    +0.000 NA
ATOM     24  C   UNL     1      43.721   6.789  11.292  0.00  0.00    +0.000 A 
ATOM     25  N   UNL     1      44.828   7.503  11.469  0.00  0.00    +0.000 NA
ATOM     26  C   UNL     1      45.699   6.921  12.310  0.00  0.00    +0.000 A 
ATOM     27  S   UNL     1      47.168   7.700  12.651  0.00  0.00    +0.000 S 
ATOM     28  C   UNL     1      47.652   6.437  13.678  0.00  0.00    +0.000 A 
ATOM     29  C   UNL     1      46.726   5.408  13.786  0.00  0.00    +0.000 A 
ATOM     30  C   UNL     1      45.547   5.705  12.972  0.00  0.00    +0.000 A 
BRANCH  22  32
ATOM     31  C   UNL     1      43.607   2.850  12.387  0.00  0.00    +0.000 C 
ATOM     32  O   UNL     1      44.003   3.868  13.307  0.00  0.00    +0.000 OA
ENDBRANCH  22  32
ENDBRANCH  18  29
ENDBRANCH   1  20
TORSDOF 7
ENDMDL
MODEL 3
REMARK VINA RESULT:    -6.808      2.090      2.910
REMARK INTER + INTRA:         -10.702
REMARK INTER:                  -9.271
REMARK INTRA:                  -1.431
REMARK UNBOUND:                -1.108
REMARK  Name = 
REMARK  8 active torsions:
REMARK  status: ('A' for Active; 'I' for Inactive)
REMARK    1  A    between atoms: C_1  and  O_2
REMARK    2  A    between atoms: O_2  and  C_3
REMARK    3  A    between atoms: C_10  and  C_11
REMARK    4  A    between atoms: N_13  and  C_14
REMARK    5  A    between atoms: C_14  and  C_15
REMARK    6  A    between atoms: C_18  and  N_19
REMARK    7  A    between atoms: N_19  and  C_20
REMARK    8  A    between atoms: C_20  and  C_21
REMARK                            x       y       z     vdW  Elec       q    Type
REMARK                         _______ _______ _______ _____ _____    ______ ____
ROOT
ATOM      1  C   UNL     1      48.981   8.786  14.205  0.00  0.00    +0.000 C 
ENDROOT
BRANCH   1   2
ATOM      2  C   UNL     1      47.891   8.273  13.305  0.00  0.00    +0.000 A 
ATOM      3  C   UNL     1      46.646   8.909  13.262  0.00  0.00    +0.000 A 
ATOM      4  C   UNL     1      45.613   8.409  12.457  0.00  0.00    +0.000 A 
ATOM      5  C   UNL     1      45.778   7.245  11.700  0.00  0.00    +0.000 A 
ATOM      6  C   UNL     1      47.036   6.626  11.739  0.00  0.00    +0.000 A 
ATOM      7  C   UNL     1      48.078   7.122  12.535  0.00  0.00    +0.000 A 
BRANCH   5   8
ATOM      8  N   UNL     1      44.826   6.743  10.816  0.00  0.00    +0.000 N 
ATOM      9  H   UNL     1      44.511   7.446  10.149  0.00  0.00    +0.000 HD
BRANCH   8  10
ATOM     10  C   UNL     1      44.898   5.394  10.268  0.00  0.00    +0.000 C 
BRANCH  10  11
ATOM     11  C   UNL     1      43.568   4.655  10.521  0.00  0.00    +0.000 C 
ATOM     12  C   UNL     1      42.726   5.320  11.628  0.00  0.00    +0.000 C 
ATOM     13  C   UNL     1      43.271   5.053  13.031  0.00  0.00    +0.000 C 
ATOM     14  N   UNL     1      43.426   3.621  13.292  0.00  0.00    +0.000 NA
ATOM     15  C   UNL     1      44.314   2.994  12.315  0.00  0.00    +0.000 C 
ATOM     16  C   UNL     1      43.810   3.179  10.883  0.00  0.00    +0.000 C 
ATOM     17  H   UNL     1      42.509   3.175  13.247  0.00  0.00    +0.000 HD
ENDBRANCH  10  11
ENDBRANCH   8  10
ENDBRANCH   5   8
ENDBRANCH   1   2
BRANCH   1  20
ATOM     18  C   UNL     1      48.568   8.300  16.575  0.00  0.00    +0.000 C 
ATOM     19  O   UNL     1      47.947   9.351  16.707  0.00  0.00    +0.000 OA
ATOM     20  N   UNL     1      49.117   7.950  15.373  0.00  0.00    +0.000 N 
ATOM     21  H   UNL     1      49.639   7.089  15.278  0.00  0.00    +0.000 HD
BRANCH  18  29
ATOM     22  C   UNL     1      48.376   4.862  16.901  0.00  0.00    +0.000 A 
ATOM     23  N   UNL     1      48.335   3.581  17.323  0.00  0.00    +0.000 NA
ATOM     24  C   UNL     1      48.570   3.333  18.614  0.00  0.00    +0.000 A 
ATOM     25  N   UNL     1      48.849   4.224  19.561  0.00  0.00    +0.000 NA
ATOM     26  C   UNL     1      48.873   5.486  19.103  0.00  0.00    +0.000 A 
ATOM     27  S   UNL     1      49.216   6.752  20.181  0.00  0.00    +0.000 S 
ATOM     28  C   UNL     1      49.058   7.907  18.947  0.00  0.00    +0.000 A 
ATOM     29  C   UNL     1      48.745   7.370  17.705  0.00  0.00    +0.000 A 
ATOM     30  C   UNL     1      48.645   5.914  17.797  0.00  0.00    +0.000 A 
BRANCH  22  32
ATOM     31  C   UNL     1      47.025   4.439  15.025  0.00  0.00    +0.000 C 
ATOM     32  O   UNL     1      48.162   5.116  15.560  0.00  0.00    +0.000 OA
ENDBRANCH  22  32
ENDBRANCH  18  29
ENDBRANCH   1  20
TORSDOF 7
ENDMDL
MODEL 4
REMARK VINA RESULT:    -6.500      3.236      8.366
REMARK INTER + INTRA:         -10.268
REMARK INTER:                  -8.976
REMARK INTRA:                  -1.292
REMARK UNBOUND:                -1.108
REMARK  Name = 
REMARK  8 active torsions:
REMARK  status: ('A' for Active; 'I' for Inactive)
REMARK    1  A    between atoms: C_1  and  O_2
REMARK    2  A    between atoms: O_2  and  C_3
REMARK    3  A    between atoms: C_10  and  C_11
REMARK    4  A    between atoms: N_13  and  C_14
REMARK    5  A    between atoms: C_14  and  C_15
REMARK    6  A    between atoms: C_18  and  N_19
REMARK    7  A    between atoms: N_19  and  C_20
REMARK    8  A    between atoms: C_20  and  C_21
REMARK                            x       y       z     vdW  Elec       q    Type
REMARK                         _______ _______ _______ _____ _____    ______ ____
ROOT
ATOM      1  C   UNL     1      48.348   8.112  11.730  0.00  0.00    +0.000 C 
ENDROOT
BRANCH   1   2
ATOM      2  C   UNL     1      48.494   8.030  13.225  0.00  0.00    +0.000 A 
ATOM      3  C   UNL     1      47.980   9.039  14.046  0.00  0.00    +0.000 A 
ATOM      4  C   UNL     1      48.150   8.988  15.436  0.00  0.00    +0.000 A 
ATOM      5  C   UNL     1      48.864   7.952  16.045  0.00  0.00    +0.000 A 
ATOM      6  C   UNL     1      49.360   6.938  15.213  0.00  0.00    +0.000 A 
ATOM      7  C   UNL     1      49.188   6.975  13.822  0.00  0.00    +0.000 A 
BRANCH   5   8
ATOM      8  N   UNL     1      48.997   7.796  17.423  0.00  0.00    +0.000 N 
ATOM      9  H   UNL     1      48.351   8.389  17.942  0.00  0.00    +0.000 HD
BRANCH   8  10
ATOM     10  C   UNL     1      49.245   6.500  18.045  0.00  0.00    +0.000 C 
BRANCH  10  11
ATOM     11  C   UNL     1      47.916   5.898  18.544  0.00  0.00    +0.000 C 
ATOM     12  C   UNL     1      47.897   5.693  20.071  0.00  0.00    +0.000 C 
ATOM     13  C   UNL     1      48.737   4.497  20.521  0.00  0.00    +0.000 C 
ATOM     14  N   UNL     1      48.347   3.266  19.832  0.00  0.00    +0.000 NA
ATOM     15  C   UNL     1      48.466   3.407  18.382  0.00  0.00    +0.000 C 
ATOM     16  C   UNL     1      47.615   4.560  17.847  0.00  0.00    +0.000 C 
ATOM     17  H   UNL     1      47.379   3.047  20.069  0.00  0.00    +0.000 HD
ENDBRANCH  10  11
ENDBRANCH   8  10
ENDBRANCH   5   8
ENDBRANCH   1   2
BRANCH   1  20
ATOM     18  C   UNL     1      46.263   6.917  11.231  0.00  0.00    +0.000 C 
ATOM     19  O   UNL     1      45.597   7.842  11.686  0.00  0.00    +0.000 OA
ATOM     20  N   UNL     1      47.629   6.968  11.223  0.00  0.00    +0.000 N 
ATOM     21  H   UNL     1      48.170   6.194  10.859  0.00  0.00    +0.000 HD
BRANCH  18  29
ATOM     22  C   UNL     1      44.456   4.309  12.608  0.00  0.00    +0.000 A 
ATOM     23  N   UNL     1      43.766   3.177  12.864  0.00  0.00    +0.000 NA
ATOM     24  C   UNL     1      43.473   2.370  11.842  0.00  0.00    +0.000 A 
ATOM     25  N   UNL     1      43.788   2.553  10.564  0.00  0.00    +0.000 NA
ATOM     26  C   UNL     1      44.479   3.685  10.350  0.00  0.00    +0.000 A 
ATOM     27  S   UNL     1      44.961   4.077   8.770  0.00  0.00    +0.000 S 
ATOM     28  C   UNL     1      45.714   5.502   9.304  0.00  0.00    +0.000 A 
ATOM     29  C   UNL     1      45.621   5.713  10.673  0.00  0.00    +0.000 A 
ATOM     30  C   UNL     1      44.868   4.627  11.300  0.00  0.00    +0.000 A 
BRANCH  22  32
ATOM     31  C   UNL     1      46.037   4.977  14.213  0.00  0.00    +0.000 C 
ATOM     32  O   UNL     1      44.733   5.159  13.660  0.00  0.00    +0.000 OA
ENDBRANCH  22  32
ENDBRANCH  18  29
ENDBRANCH   1  20
TORSDOF 7
ENDMDL
MODEL 5
REMARK VINA RESULT:    -6.494      3.791      9.133
REMARK INTER + INTRA:         -10.260
REMARK INTER:                  -9.148
REMARK INTRA:                  -1.111
REMARK UNBOUND:                -1.108
REMARK  Name = 
REMARK  8 active torsions:
REMARK  status: ('A' for Active; 'I' for Inactive)
REMARK    1  A    between atoms: C_1  and  O_2
REMARK    2  A    between atoms: O_2  and  C_3
REMARK    3  A    between atoms: C_10  and  C_11
REMARK    4  A    between atoms: N_13  and  C_14
REMARK    5  A    between atoms: C_14  and  C_15
REMARK    6  A    between atoms: C_18  and  N_19
REMARK    7  A    between atoms: N_19  and  C_20
REMARK    8  A    between atoms: C_20  and  C_21
REMARK                            x       y       z     vdW  Elec       q    Type
REMARK                         _______ _______ _______ _____ _____    ______ ____
ROOT
ATOM      1  C   UNL     1      47.345   3.292  16.796  0.00  0.00    +0.000 C 
ENDROOT
BRANCH   1   2
ATOM      2  C   UNL     1      48.822   3.327  17.078  0.00  0.00    +0.000 A 
ATOM      3  C   UNL     1      49.587   2.159  17.003  0.00  0.00    +0.000 A 
ATOM      4  C   UNL     1      50.956   2.179  17.307  0.00  0.00    +0.000 A 
ATOM      5  C   UNL     1      51.592   3.351  17.725  0.00  0.00    +0.000 A 
ATOM      6  C   UNL     1      50.817   4.518  17.780  0.00  0.00    +0.000 A 
ATOM      7  C   UNL     1      49.450   4.511  17.471  0.00  0.00    +0.000 A 
BRANCH   5   8
ATOM      8  N   UNL     1      52.961   3.459  17.959  0.00  0.00    +0.000 N 
ATOM      9  H   UNL     1      53.512   3.235  17.131  0.00  0.00    +0.000 HD
BRANCH   8  10
ATOM     10  C   UNL     1      53.535   4.514  18.787  0.00  0.00    +0.000 C 
BRANCH  10  11
ATOM     11  C   UNL     1      54.741   5.147  18.063  0.00  0.00    +0.000 C 
ATOM     12  C   UNL     1      55.288   6.384  18.800  0.00  0.00    +0.000 C 
ATOM     13  C   UNL     1      54.399   7.617  18.634  0.00  0.00    +0.000 C 
ATOM     14  N   UNL     1      54.152   7.925  17.224  0.00  0.00    +0.000 NA
ATOM     15  C   UNL     1      53.528   6.798  16.534  0.00  0.00    +0.000 C 
ATOM     16  C   UNL     1      54.384   5.532  16.617  0.00  0.00    +0.000 C 
ATOM     17  H   UNL     1      55.041   8.145  16.773  0.00  0.00    +0.000 HD
ENDBRANCH  10  11
ENDBRANCH   8  10
ENDBRANCH   5   8
ENDBRANCH   1   2
BRANCH   1  20
ATOM     18  C   UNL     1      46.949   4.203  14.552  0.00  0.00    +0.000 C 
ATOM     19  O   UNL     1      47.266   3.135  14.037  0.00  0.00    +0.000 OA
ATOM     20  N   UNL     1      46.968   4.366  15.909  0.00  0.00    +0.000 N 
ATOM     21  H   UNL     1      46.719   5.255  16.324  0.00  0.00    +0.000 HD
BRANCH  18  29
ATOM     22  C   UNL     1      44.166   4.878  12.612  0.00  0.00    +0.000 A 
ATOM     23  N   UNL     1      43.238   5.389  11.776  0.00  0.00    +0.000 NA
ATOM     24  C   UNL     1      43.454   6.598  11.253  0.00  0.00    +0.000 A 
ATOM     25  N   UNL     1      44.506   7.383  11.464  0.00  0.00    +0.000 NA
ATOM     26  C   UNL     1      45.410   6.837  12.295  0.00  0.00    +0.000 A 
ATOM     27  S   UNL     1      46.817   7.708  12.675  0.00  0.00    +0.000 S 
ATOM     28  C   UNL     1      47.382   6.450  13.665  0.00  0.00    +0.000 A 
ATOM     29  C   UNL     1      46.531   5.354  13.731  0.00  0.00    +0.000 A 
ATOM     30  C   UNL     1      45.340   5.592  12.916  0.00  0.00    +0.000 A 
BRANCH  22  32
ATOM     31  C   UNL     1      43.471   2.664  12.239  0.00  0.00    +0.000 C 
ATOM     32  O   UNL     1      43.929   3.640  13.176  0.00  0.00    +0.000 OA
ENDBRANCH  22  32
ENDBRANCH  18  29
ENDBRANCH   1  20
TORSDOF 7
ENDMDL
MODEL 6
REMARK VINA RESULT:    -6.347      2.783      3.719
REMARK INTER + INTRA:         -10.053
REMARK INTER:                  -8.701
REMARK INTRA:                  -1.352
REMARK UNBOUND:                -1.108
REMARK  Name = 
REMARK  8 active torsions:
REMARK  status: ('A' for Active; 'I' for Inactive)
REMARK    1  A    between atoms: C_1  and  O_2
REMARK    2  A    between atoms: O_2  and  C_3
REMARK    3  A    between atoms: C_10  and  C_11
REMARK    4  A    between atoms: N_13  and  C_14
REMARK    5  A    between atoms: C_14  and  C_15
REMARK    6  A    between atoms: C_18  and  N_19
REMARK    7  A    between atoms: N_19  and  C_20
REMARK    8  A    between atoms: C_20  and  C_21
REMARK                            x       y       z     vdW  Elec       q    Type
REMARK                         _______ _______ _______ _____ _____    ______ ____
ROOT
ATOM      1  C   UNL     1      49.757   8.392  15.688  0.00  0.00    +0.000 C 
ENDROOT
BRANCH   1   2
ATOM      2  C   UNL     1      48.829   8.014  14.567  0.00  0.00    +0.000 A 
ATOM      3  C   UNL     1      49.247   7.133  13.565  0.00  0.00    +0.000 A 
ATOM      4  C   UNL     1      48.401   6.810  12.495  0.00  0.00    +0.000 A 
ATOM      5  C   UNL     1      47.131   7.380  12.374  0.00  0.00    +0.000 A 
ATOM      6  C   UNL     1      46.717   8.249  13.394  0.00  0.00    +0.000 A 
ATOM      7  C   UNL     1      47.552   8.572  14.472  0.00  0.00    +0.000 A 
BRANCH   5   8
ATOM      8  N   UNL     1      46.210   7.039  11.386  0.00  0.00    +0.000 N 
ATOM      9  H   UNL     1      46.272   7.650  10.573  0.00  0.00    +0.000 HD
BRANCH   8  10
ATOM     10  C   UNL     1      45.881   5.655  11.064  0.00  0.00    +0.000 C 
BRANCH  10  11
ATOM     11  C   UNL     1      45.250   4.968  12.292  0.00  0.00    +0.000 C 
ATOM     12  C   UNL     1      45.103   3.446  12.107  0.00  0.00    +0.000 C 
ATOM     13  C   UNL     1      43.956   3.069  11.168  0.00  0.00    +0.000 C 
ATOM     14  N   UNL     1      42.686   3.661  11.594  0.00  0.00    +0.000 NA
ATOM     15  C   UNL     1      42.776   5.118  11.667  0.00  0.00    +0.000 C 
ATOM     16  C   UNL     1      43.877   5.576  12.626  0.00  0.00    +0.000 C 
ATOM     17  H   UNL     1      42.442   3.293  12.514  0.00  0.00    +0.000 HD
ENDBRANCH  10  11
ENDBRANCH   8  10
ENDBRANCH   5   8
ENDBRANCH   1   2
BRANCH   1  20
ATOM     18  C   UNL     1      50.364   6.557  17.200  0.00  0.00    +0.000 C 
ATOM     19  O   UNL     1      49.442   6.845  17.958  0.00  0.00    +0.000 OA
ATOM     20  N   UNL     1      50.592   7.276  16.060  0.00  0.00    +0.000 N 
ATOM     21  H   UNL     1      51.364   7.040  15.450  0.00  0.00    +0.000 HD
BRANCH  18  29
ATOM     22  C   UNL     1      50.008   3.121  17.028  0.00  0.00    +0.000 A 
ATOM     23  N   UNL     1      50.145   1.779  17.090  0.00  0.00    +0.000 NA
ATOM     24  C   UNL     1      51.312   1.281  17.505  0.00  0.00    +0.000 A 
ATOM     25  N   UNL     1      52.388   1.967  17.875  0.00  0.00    +0.000 NA
ATOM     26  C   UNL     1      52.211   3.297  17.807  0.00  0.00    +0.000 A 
ATOM     27  S   UNL     1      53.488   4.327  18.242  0.00  0.00    +0.000 S 
ATOM     28  C   UNL     1      52.548   5.704  17.923  0.00  0.00    +0.000 A 
ATOM     29  C   UNL     1      51.261   5.422  17.484  0.00  0.00    +0.000 A 
ATOM     30  C   UNL     1      51.062   3.975  17.403  0.00  0.00    +0.000 A 
BRANCH  22  32
ATOM     31  C   UNL     1      47.722   3.432  17.469  0.00  0.00    +0.000 C 
ATOM     32  O   UNL     1      48.812   3.637  16.570  0.00  0.00    +0.000 OA
ENDBRANCH  22  32
ENDBRANCH  18  29
ENDBRANCH   1  20
TORSDOF 7
ENDMDL
MODEL 7
REMARK VINA RESULT:    -6.157      1.624      2.013
REMARK INTER + INTRA:          -9.785
REMARK INTER:                  -8.715
REMARK INTRA:                  -1.070
REMARK UNBOUND:                -1.108
REMARK  Name = 
REMARK  8 active torsions:
REMARK  status: ('A' for Active; 'I' for Inactive)
REMARK    1  A    between atoms: C_1  and  O_2
REMARK    2  A    between atoms: O_2  and  C_3
REMARK    3  A    between atoms: C_10  and  C_11
REMARK    4  A    between atoms: N_13  and  C_14
REMARK    5  A    between atoms: C_14  and  C_15
REMARK    6  A    between atoms: C_18  and  N_19
REMARK    7  A    between atoms: N_19  and  C_20
REMARK    8  A    between atoms: C_20  and  C_21
REMARK                            x       y       z     vdW  Elec       q    Type
REMARK                         _______ _______ _______ _____ _____    ______ ____
ROOT
ATOM      1  C   UNL     1      47.734   9.164  14.010  0.00  0.00    +0.000 C 
ENDROOT
BRANCH   1   2
ATOM      2  C   UNL     1      46.950   8.205  13.157  0.00  0.00    +0.000 A 
ATOM      3  C   UNL     1      47.555   7.052  12.646  0.00  0.00    +0.000 A 
ATOM      4  C   UNL     1      46.841   6.176  11.815  0.00  0.00    +0.000 A 
ATOM      5  C   UNL     1      45.520   6.441  11.443  0.00  0.00    +0.000 A 
ATOM      6  C   UNL     1      44.920   7.591  11.976  0.00  0.00    +0.000 A 
ATOM      7  C   UNL     1      45.623   8.469  12.813  0.00  0.00    +0.000 A 
BRANCH   5   8
ATOM      8  N   UNL     1      44.729   5.573  10.694  0.00  0.00    +0.000 N 
ATOM      9  H   UNL     1      44.486   5.962   9.784  0.00  0.00    +0.000 HD
BRANCH   8  10
ATOM     10  C   UNL     1      44.937   4.129  10.686  0.00  0.00    +0.000 C 
BRANCH  10  11
ATOM     11  C   UNL     1      44.236   3.508   9.461  0.00  0.00    +0.000 C 
ATOM     12  C   UNL     1      44.535   2.003   9.310  0.00  0.00    +0.000 C 
ATOM     13  C   UNL     1      45.944   1.727   8.785  0.00  0.00    +0.000 C 
ATOM     14  N   UNL     1      46.205   2.432   7.529  0.00  0.00    +0.000 NA
ATOM     15  C   UNL     1      46.035   3.875   7.683  0.00  0.00    +0.000 C 
ATOM     16  C   UNL     1      44.629   4.237   8.165  0.00  0.00    +0.000 C 
ATOM     17  H   UNL     1      45.558   2.091   6.817  0.00  0.00    +0.000 HD
ENDBRANCH  10  11
ENDBRANCH   8  10
ENDBRANCH   5   8
ENDBRANCH   1   2
BRANCH   1  20
ATOM     18  C   UNL     1      48.243   9.537  16.381  0.00  0.00    +0.000 C 
ATOM     19  O   UNL     1      49.068  10.399  16.093  0.00  0.00    +0.000 OA
ATOM     20  N   UNL     1      47.546   8.874  15.411  0.00  0.00    +0.000 N 
ATOM     21  H   UNL     1      46.879   8.154  15.658  0.00  0.00    +0.000 HD
BRANCH  18  29
ATOM     22  C   UNL     1      48.270   6.565  18.151  0.00  0.00    +0.000 A 
ATOM     23  N   UNL     1      48.167   5.577  19.065  0.00  0.00    +0.000 NA
ATOM     24  C   UNL     1      47.798   5.900  20.307  0.00  0.00    +0.000 A 
ATOM     25  N   UNL     1      47.512   7.115  20.765  0.00  0.00    +0.000 NA
ATOM     26  C   UNL     1      47.619   8.069  19.825  0.00  0.00    +0.000 A 
ATOM     27  S   UNL     1      47.291   9.681  20.241  0.00  0.00    +0.000 S 
ATOM     28  C   UNL     1      47.609  10.202  18.657  0.00  0.00    +0.000 A 
ATOM     29  C   UNL     1      47.967   9.182  17.785  0.00  0.00    +0.000 A 
ATOM     30  C   UNL     1      47.984   7.901  18.491  0.00  0.00    +0.000 A 
BRANCH  22  32
ATOM     31  C   UNL     1      50.098   6.155  16.733  0.00  0.00    +0.000 C 
ATOM     32  O   UNL     1      48.680   6.236  16.874  0.00  0.00    +0.000 OA
ENDBRANCH  22  32
ENDBRANCH  18  29
ENDBRANCH   1  20
TORSDOF 7
ENDMDL
MODEL 8
REMARK VINA RESULT:    -5.950      3.690      5.404
REMARK INTER + INTRA:          -9.493
REMARK INTER:                  -8.381
REMARK INTRA:                  -1.112
REMARK UNBOUND:                -1.108
REMARK  Name = 
REMARK  8 active torsions:
REMARK  status: ('A' for Active; 'I' for Inactive)
REMARK    1  A    between atoms: C_1  and  O_2
REMARK    2  A    between atoms: O_2  and  C_3
REMARK    3  A    between atoms: C_10  and  C_11
REMARK    4  A    between atoms: N_13  and  C_14
REMARK    5  A    between atoms: C_14  and  C_15
REMARK    6  A    between atoms: C_18  and  N_19
REMARK    7  A    between atoms: N_19  and  C_20
REMARK    8  A    between atoms: C_20  and  C_21
REMARK                            x       y       z     vdW  Elec       q    Type
REMARK                         _______ _______ _______ _____ _____    ______ ____
ROOT
ATOM      1  C   UNL     1      48.428   3.499  18.160  0.00  0.00    +0.000 C 
ENDROOT
BRANCH   1   2
ATOM      2  C   UNL     1      48.076   4.182  16.867  0.00  0.00    +0.000 A 
ATOM      3  C   UNL     1      48.635   5.423  16.543  0.00  0.00    +0.000 A 
ATOM      4  C   UNL     1      48.277   6.083  15.359  0.00  0.00    +0.000 A 
ATOM      5  C   UNL     1      47.330   5.545  14.483  0.00  0.00    +0.000 A 
ATOM      6  C   UNL     1      46.789   4.294  14.811  0.00  0.00    +0.000 A 
ATOM      7  C   UNL     1      47.146   3.622  15.988  0.00  0.00    +0.000 A 
BRANCH   5   8
ATOM      8  N   UNL     1      46.994   6.106  13.253  0.00  0.00    +0.000 N 
ATOM      9  H   UNL     1      47.678   6.794  12.943  0.00  0.00    +0.000 HD
BRANCH   8  10
ATOM     10  C   UNL     1      46.404   5.326  12.170  0.00  0.00    +0.000 C 
BRANCH  10  11
ATOM     11  C   UNL     1      45.018   5.898  11.810  0.00  0.00    +0.000 C 
ATOM     12  C   UNL     1      43.958   5.599  12.887  0.00  0.00    +0.000 C 
ATOM     13  C   UNL     1      43.486   4.145  12.870  0.00  0.00    +0.000 C 
ATOM     14  N   UNL     1      43.003   3.744  11.547  0.00  0.00    +0.000 NA
ATOM     15  C   UNL     1      44.036   3.916  10.528  0.00  0.00    +0.000 C 
ATOM     16  C   UNL     1      44.530   5.362  10.452  0.00  0.00    +0.000 C 
ATOM     17  H   UNL     1      42.193   4.316  11.304  0.00  0.00    +0.000 HD
ENDBRANCH  10  11
ENDBRANCH   8  10
ENDBRANCH   5   8
ENDBRANCH   1   2
BRANCH   1  20
ATOM     18  C   UNL     1      50.474   2.368  17.414  0.00  0.00    +0.000 C 
ATOM     19  O   UNL     1      49.843   1.728  16.577  0.00  0.00    +0.000 OA
ATOM     20  N   UNL     1      49.848   3.258  18.241  0.00  0.00    +0.000 N 
ATOM     21  H   UNL     1      50.374   3.770  18.938  0.00  0.00    +0.000 HD
BRANCH  18  29
ATOM     22  C   UNL     1      53.110   4.582  17.747  0.00  0.00    +0.000 A 
ATOM     23  N   UNL     1      54.308   5.195  17.853  0.00  0.00    +0.000 NA
ATOM     24  C   UNL     1      55.404   4.435  17.918  0.00  0.00    +0.000 A 
ATOM     25  N   UNL     1      55.458   3.107  17.890  0.00  0.00    +0.000 NA
ATOM     26  C   UNL     1      54.248   2.534  17.777  0.00  0.00    +0.000 A 
ATOM     27  S   UNL     1      54.133   0.842  17.729  0.00  0.00    +0.000 S 
ATOM     28  C   UNL     1      52.444   0.914  17.579  0.00  0.00    +0.000 A 
ATOM     29  C   UNL     1      51.931   2.205  17.562  0.00  0.00    +0.000 A 
ATOM     30  C   UNL     1      53.015   3.178  17.692  0.00  0.00    +0.000 A 
BRANCH  22  32
ATOM     31  C   UNL     1      52.055   6.444  16.777  0.00  0.00    +0.000 C 
ATOM     32  O   UNL     1      51.974   5.366  17.710  0.00  0.00    +0.000 OA
ENDBRANCH  22  32
ENDBRANCH  18  29
ENDBRANCH   1  20
TORSDOF 7
ENDMDL
MODEL 9
REMARK VINA RESULT:    -5.855      3.229      4.193
REMARK INTER + INTRA:          -9.359
REMARK INTER:                  -7.735
REMARK INTRA:                  -1.624
REMARK UNBOUND:                -1.108
REMARK  Name = 
REMARK  8 active torsions:
REMARK  status: ('A' for Active; 'I' for Inactive)
REMARK    1  A    between atoms: C_1  and  O_2
REMARK    2  A    between atoms: O_2  and  C_3
REMARK    3  A    between atoms: C_10  and  C_11
REMARK    4  A    between atoms: N_13  and  C_14
REMARK    5  A    between atoms: C_14  and  C_15
REMARK    6  A    between atoms: C_18  and  N_19
REMARK    7  A    between atoms: N_19  and  C_20
REMARK    8  A    between atoms: C_20  and  C_21
REMARK                            x       y       z     vdW  Elec       q    Type
REMARK                         _______ _______ _______ _____ _____    ______ ____
ROOT
ATOM      1  C   UNL     1      50.311   9.406  11.886  0.00  0.00    +0.000 C 
ENDROOT
BRANCH   1   2
ATOM      2  C   UNL     1      48.865   8.995  11.930  0.00  0.00    +0.000 A 
ATOM      3  C   UNL     1      47.869   9.929  12.231  0.00  0.00    +0.000 A 
ATOM      4  C   UNL     1      46.524   9.541  12.316  0.00  0.00    +0.000 A 
ATOM      5  C   UNL     1      46.139   8.210  12.137  0.00  0.00    +0.000 A 
ATOM      6  C   UNL     1      47.144   7.286  11.819  0.00  0.00    +0.000 A 
ATOM      7  C   UNL     1      48.490   7.665  11.725  0.00  0.00    +0.000 A 
BRANCH   5   8
ATOM      8  N   UNL     1      44.816   7.773  12.122  0.00  0.00    +0.000 N 
ATOM      9  H   UNL     1      44.169   8.509  11.843  0.00  0.00    +0.000 HD
BRANCH   8  10
ATOM     10  C   UNL     1      44.434   6.442  11.663  0.00  0.00    +0.000 C 
BRANCH  10  11
ATOM     11  C   UNL     1      44.033   5.568  12.869  0.00  0.00    +0.000 C 
ATOM     12  C   UNL     1      45.235   4.824  13.483  0.00  0.00    +0.000 C 
ATOM     13  C   UNL     1      45.697   3.639  12.636  0.00  0.00    +0.000 C 
ATOM     14  N   UNL     1      44.602   2.707  12.358  0.00  0.00    +0.000 NA
ATOM     15  C   UNL     1      43.497   3.374  11.672  0.00  0.00    +0.000 C 
ATOM     16  C   UNL     1      42.947   4.550  12.482  0.00  0.00    +0.000 C 
ATOM     17  H   UNL     1      44.265   2.320  13.240  0.00  0.00    +0.000 HD
ENDBRANCH  10  11
ENDBRANCH   8  10
ENDBRANCH   5   8
ENDBRANCH   1   2
BRANCH   1  20
ATOM     18  C   UNL     1      51.403   9.518  14.080  0.00  0.00    +0.000 C 
ATOM     19  O   UNL     1      51.118  10.707  14.188  0.00  0.00    +0.000 OA
ATOM     20  N   UNL     1      51.048   8.804  12.971  0.00  0.00    +0.000 N 
ATOM     21  H   UNL     1      51.301   7.828  12.885  0.00  0.00    +0.000 HD
BRANCH  18  29
ATOM     22  C   UNL     1      50.808   6.630  15.888  0.00  0.00    +0.000 A 
ATOM     23  N   UNL     1      50.822   5.591  16.749  0.00  0.00    +0.000 NA
ATOM     24  C   UNL     1      51.849   5.484  17.596  0.00  0.00    +0.000 A 
ATOM     25  N   UNL     1      52.892   6.302  17.694  0.00  0.00    +0.000 NA
ATOM     26  C   UNL     1      52.838   7.327  16.827  0.00  0.00    +0.000 A 
ATOM     27  S   UNL     1      54.094   8.470  16.816  0.00  0.00    +0.000 S 
ATOM     28  C   UNL     1      53.343   9.351  15.575  0.00  0.00    +0.000 A 
ATOM     29  C   UNL     1      52.139   8.809  15.143  0.00  0.00    +0.000 A 
ATOM     30  C   UNL     1      51.842   7.586  15.889  0.00  0.00    +0.000 A 
BRANCH  22  32
ATOM     31  C   UNL     1      48.651   7.471  15.490  0.00  0.00    +0.000 C 
ATOM     32  O   UNL     1      49.762   6.725  14.993  0.00  0.00    +0.000 OA
ENDBRANCH  22  32
ENDBRANCH  18  29
ENDBRANCH   1  20
TORSDOF 7
ENDMDL
