MODEL 1
REMARK VINA RESULT:    -8.314      0.000      0.000
REMARK INTER + INTRA:         -12.800
REMARK INTER:                 -11.716
REMARK INTRA:                  -1.084
REMARK UNBOUND:                -1.084
REMARK  Name = 
REMARK  8 active torsions:
REMARK  status: ('A' for Active; 'I' for Inactive)
REMARK    1  A    between atoms: C_1  and  C_2
REMARK    2  A    between atoms: C_2  and  N_3
REMARK    3  A    between atoms: C_2  and  C_25
REMARK    4  A    between atoms: N_3  and  C_4
REMARK    5  A    between atoms: C_4  and  C_5
REMARK    6  A    between atoms: C_8  and  C_9
REMARK    7  A    between atoms: C_9  and  N_10
REMARK    8  A    between atoms: C_11  and  C_13
REMARK                            x       y       z     vdW  Elec       q    Type
REMARK                         _______ _______ _______ _____ _____    ______ ____
ROOT
ATOM      1  C   UNL     1      44.591   5.380  10.822  0.00  0.00    +0.000 A 
ATOM      2  C   UNL     1      44.195   5.736  12.118  0.00  0.00    +0.000 A 
ATOM      3  C   UNL     1      45.001   6.554  12.915  0.00  0.00    +0.000 A 
ATOM      4  C   UNL     1      46.221   7.038  12.428  0.00  0.00    +0.000 A 
ATOM      5  C   UNL     1      46.639   6.652  11.148  0.00  0.00    +0.000 A 
ATOM      6  C   UNL     1      45.830   5.836  10.351  0.00  0.00    +0.000 A 
ENDROOT
BRANCH   1   7
ATOM      7  C   UNL     1      43.755   4.436   9.988  0.00  0.00    +0.000 C 
BRANCH   7   8
ATOM      8  N   UNL     1      44.411   4.072   8.725  0.00  0.00    +0.000 NA
ATOM      9  H   UNL     1      45.002   4.862   8.458  0.00  0.00    +0.000 HD
BRANCH   8  11
ATOM     10  C   UNL     1      44.448   1.594   9.099  0.00  0.00    +0.000 C 
ATOM     11  C   UNL     1      45.268   2.871   8.865  0.00  0.00    +0.000 C 
BRANCH  11  12
ATOM     12  C   UNL     1      46.182   2.645   7.665  0.00  0.00    +0.000 A 
ATOM     13  C   UNL     1      46.997   1.520   7.553  0.00  0.00    +0.000 A 
ATOM     14  N   UNL     1      47.815   1.299   6.493  0.00  0.00    +0.000 NA
ATOM     15  C   UNL     1      47.807   2.261   5.545  0.00  0.00    +0.000 A 
ATOM     16  C   UNL     1      47.026   3.397   5.655  0.00  0.00    +0.000 A 
ATOM     17  N   UNL     1      46.201   3.613   6.705  0.00  0.00    +0.000 NA
ENDBRANCH  11  12
ENDBRANCH   8  11
ENDBRANCH   7   8
ENDBRANCH   1   7
BRANCH   4  18
ATOM     18  C   UNL     1      47.089   7.932  13.275  0.00  0.00    +0.000 C 
BRANCH  18  19
ATOM     19  N   UNL     1      47.481   7.286  14.501  0.00  0.00    +0.000 N 
ATOM     20  C   UNL     1      48.754   6.802  14.662  0.00  0.00    +0.000 C 
ATOM     21  O   UNL     1      49.618   6.947  13.799  0.00  0.00    +0.000 OA
ATOM     22  H   UNL     1      46.739   6.971  15.119  0.00  0.00    +0.000 HD
BRANCH  20  23
ATOM     23  C   UNL     1      49.058   6.155  15.944  0.00  0.00    +0.000 A 
ATOM     24  C   UNL     1      50.102   6.637  16.724  0.00  0.00    +0.000 A 
ATOM     25  S   UNL     1      50.296   5.806  18.199  0.00  0.00    +0.000 S 
ATOM     26  C   UNL     1      49.025   4.738  17.827  0.00  0.00    +0.000 A 
ATOM     27  N   UNL     1      48.679   3.740  18.683  0.00  0.00    +0.000 NA
ATOM     28  C   UNL     1      47.718   2.987  18.263  0.00  0.00    +0.000 A 
ATOM     29  N   UNL     1      47.070   3.143  17.065  0.00  0.00    +0.000 N 
ATOM     30  C   UNL     1      47.368   4.151  16.180  0.00  0.00    +0.000 A 
ATOM     31  O   UNL     1      46.744   4.285  15.133  0.00  0.00    +0.000 OA
ATOM     32  C   UNL     1      48.449   5.023  16.601  0.00  0.00    +0.000 A 
ATOM     33  H   UNL     1      46.321   2.522  16.798  0.00  0.00    +0.000 HD
ENDBRANCH  20  23
ENDBRANCH  18  19
ENDBRANCH   4  18
TORSDOF 7
ENDMDL
MODEL 2
REMARK VINA RESULT:    -7.881      1.971      2.241
REMARK INTER + INTRA:         -12.191
REMARK INTER:                 -11.342
REMARK INTRA:                  -0.849
REMARK UNBOUND:                -1.084
REMARK  Name = 
REMARK  8 active torsions:
REMARK  status: ('A' for Active; 'I' for Inactive)
REMARK    1  A    between atoms: C_1  and  C_2
REMARK    2  A    between atoms: C_2  and  N_3
REMARK    3  A    between atoms: C_2  and  C_25
REMARK    4  A    between atoms: N_3  and  C_4
REMARK    5  A    between atoms: C_4  and  C_5
REMARK    6  A    between atoms: C_8  and  C_9
REMARK    7  A    between atoms: C_9  and  N_10
REMARK    8  A    between atoms: C_11  and  C_13
REMARK                            x       y       z     vdW  Elec       q    Type
REMARK                         _______ _______ _______ _____ _____    ______ ____
ROOT
ATOM      1  C   UNL     1      45.332   4.498  12.025  0.00  0.00    +0.000 A 
ATOM      2  C   UNL     1      45.948   4.056  13.204  0.00  0.00    +0.000 A 
ATOM      3  C   UNL     1      46.953   4.812  13.815  0.00  0.00    +0.000 A 
ATOM      4  C   UNL     1      47.361   6.031  13.259  0.00  0.00    +0.000 A 
ATOM      5  C   UNL     1      46.776   6.455  12.059  0.00  0.00    +0.000 A 
ATOM      6  C   UNL     1      45.769   5.700  11.451  0.00  0.00    +0.000 A 
ENDROOT
BRANCH   1   7
ATOM      7  C   UNL     1      44.298   3.645  11.325  0.00  0.00    +0.000 C 
BRANCH   7   8
ATOM      8  N   UNL     1      44.905   2.573  10.526  0.00  0.00    +0.000 NA
ATOM      9  H   UNL     1      44.495   1.693  10.846  0.00  0.00    +0.000 HD
BRANCH   8  11
ATOM     10  C   UNL     1      44.156   4.141   8.720  0.00  0.00    +0.000 C 
ATOM     11  C   UNL     1      44.622   2.723   9.079  0.00  0.00    +0.000 C 
BRANCH  11  12
ATOM     12  C   UNL     1      45.813   2.368   8.195  0.00  0.00    +0.000 A 
ATOM     13  C   UNL     1      46.265   1.057   8.047  0.00  0.00    +0.000 A 
ATOM     14  N   UNL     1      47.320   0.720   7.264  0.00  0.00    +0.000 NA
ATOM     15  C   UNL     1      47.930   1.751   6.641  0.00  0.00    +0.000 A 
ATOM     16  C   UNL     1      47.514   3.059   6.800  0.00  0.00    +0.000 A 
ATOM     17  N   UNL     1      46.454   3.396   7.570  0.00  0.00    +0.000 NA
ENDBRANCH  11  12
ENDBRANCH   8  11
ENDBRANCH   7   8
ENDBRANCH   1   7
BRANCH   4  18
ATOM     18  C   UNL     1      48.433   6.858  13.918  0.00  0.00    +0.000 C 
BRANCH  18  19
ATOM     19  N   UNL     1      48.193   7.011  15.330  0.00  0.00    +0.000 N 
ATOM     20  C   UNL     1      49.147   6.646  16.246  0.00  0.00    +0.000 C 
ATOM     21  O   UNL     1      50.252   6.231  15.902  0.00  0.00    +0.000 OA
ATOM     22  H   UNL     1      47.231   7.142  15.628  0.00  0.00    +0.000 HD
BRANCH  20  23
ATOM     23  C   UNL     1      48.810   6.834  17.662  0.00  0.00    +0.000 A 
ATOM     24  C   UNL     1      48.539   8.111  18.138  0.00  0.00    +0.000 A 
ATOM     25  S   UNL     1      48.123   8.153  19.790  0.00  0.00    +0.000 S 
ATOM     26  C   UNL     1      48.337   6.471  19.942  0.00  0.00    +0.000 A 
ATOM     27  N   UNL     1      48.157   5.851  21.139  0.00  0.00    +0.000 NA
ATOM     28  C   UNL     1      48.381   4.579  21.118  0.00  0.00    +0.000 A 
ATOM     29  N   UNL     1      48.767   3.872  20.009  0.00  0.00    +0.000 N 
ATOM     30  C   UNL     1      48.937   4.452  18.775  0.00  0.00    +0.000 A 
ATOM     31  O   UNL     1      49.248   3.784  17.794  0.00  0.00    +0.000 OA
ATOM     32  C   UNL     1      48.706   5.885  18.744  0.00  0.00    +0.000 A 
ATOM     33  H   UNL     1      48.921   2.876  20.059  0.00  0.00    +0.000 HD
ENDBRANCH  20  23
ENDBRANCH  18  19
ENDBRANCH   4  18
TORSDOF 7
ENDMDL
MODEL 3
REMARK VINA RESULT:    -7.321      4.927      9.502
REMARK INTER + INTRA:         -11.402
REMARK INTER:                 -10.343
REMARK INTRA:                  -1.059
REMARK UNBOUND:                -1.084
REMARK  Name = 
REMARK  8 active torsions:
REMARK  status: ('A' for Active; 'I' for Inactive)
REMARK    1  A    between atoms: C_1  and  C_2
REMARK    2  A    between atoms: C_2  and  N_3
REMARK    3  A    between atoms: C_2  and  C_25
REMARK    4  A    between atoms: N_3  and  C_4
REMARK    5  A    between atoms: C_4  and  C_5
REMARK    6  A    between atoms: C_8  and  C_9
REMARK    7  A    between atoms: C_9  and  N_10
REMARK    8  A    between atoms: C_11  and  C_13
REMARK                            x       y       z     vdW  Elec       q    Type
REMARK                         _______ _______ _______ _____ _____    ______ ____
ROOT
ATOM      1  C   UNL     1      50.923   2.338  17.433  0.00  0.00    +0.000 A 
ATOM      2  C   UNL     1      49.541   2.365  17.200  0.00  0.00    +0.000 A 
ATOM      3  C   UNL     1      48.865   3.578  17.040  0.00  0.00    +0.000 A 
ATOM      4  C   UNL     1      49.560   4.791  17.104  0.00  0.00    +0.000 A 
ATOM      5  C   UNL     1      50.934   4.770  17.376  0.00  0.00    +0.000 A 
ATOM      6  C   UNL     1      51.609   3.556  17.534  0.00  0.00    +0.000 A 
ENDROOT
BRANCH   1   7
ATOM      7  C   UNL     1      51.641   1.030  17.681  0.00  0.00    +0.000 C 
BRANCH   7   8
ATOM      8  N   UNL     1      52.884   1.210  18.444  0.00  0.00    +0.000 NA
ATOM      9  H   UNL     1      52.774   0.695  19.320  0.00  0.00    +0.000 HD
BRANCH   8  11
ATOM     10  C   UNL     1      55.341   1.468  18.023  0.00  0.00    +0.000 C 
ATOM     11  C   UNL     1      54.063   0.669  17.728  0.00  0.00    +0.000 C 
BRANCH  11  12
ATOM     12  C   UNL     1      54.331  -0.800  18.038  0.00  0.00    +0.000 A 
ATOM     13  C   UNL     1      55.000  -1.638  17.147  0.00  0.00    +0.000 A 
ATOM     14  N   UNL     1      55.250  -2.947  17.405  0.00  0.00    +0.000 NA
ATOM     15  C   UNL     1      54.786  -3.402  18.589  0.00  0.00    +0.000 A 
ATOM     16  C   UNL     1      54.094  -2.592  19.470  0.00  0.00    +0.000 A 
ATOM     17  N   UNL     1      53.855  -1.284  19.221  0.00  0.00    +0.000 NA
ENDBRANCH  11  12
ENDBRANCH   8  11
ENDBRANCH   7   8
ENDBRANCH   1   7
BRANCH   4  18
ATOM     18  C   UNL     1      48.841   6.102  16.917  0.00  0.00    +0.000 C 
BRANCH  18  19
ATOM     19  N   UNL     1      47.877   6.031  15.850  0.00  0.00    +0.000 N 
ATOM     20  C   UNL     1      48.233   6.343  14.562  0.00  0.00    +0.000 C 
ATOM     21  O   UNL     1      49.388   6.638  14.261  0.00  0.00    +0.000 OA
ATOM     22  H   UNL     1      46.896   6.004  16.109  0.00  0.00    +0.000 HD
BRANCH  20  23
ATOM     23  C   UNL     1      47.181   6.248  13.543  0.00  0.00    +0.000 A 
ATOM     24  C   UNL     1      46.722   7.403  12.923  0.00  0.00    +0.000 A 
ATOM     25  S   UNL     1      45.534   7.117  11.735  0.00  0.00    +0.000 S 
ATOM     26  C   UNL     1      45.552   5.443  12.042  0.00  0.00    +0.000 A 
ATOM     27  N   UNL     1      44.728   4.600  11.364  0.00  0.00    +0.000 NA
ATOM     28  C   UNL     1      44.825   3.362  11.717  0.00  0.00    +0.000 A 
ATOM     29  N   UNL     1      45.672   2.890  12.686  0.00  0.00    +0.000 N 
ATOM     30  C   UNL     1      46.539   3.700  13.380  0.00  0.00    +0.000 A 
ATOM     31  O   UNL     1      47.310   3.241  14.215  0.00  0.00    +0.000 OA
ATOM     32  C   UNL     1      46.465   5.106  13.026  0.00  0.00    +0.000 A 
ATOM     33  H   UNL     1      45.703   1.907  12.911  0.00  0.00    +0.000 HD
ENDBRANCH  20  23
ENDBRANCH  18  19
ENDBRANCH   4  18
TORSDOF 7
ENDMDL
MODEL 4
REMARK VINA RESULT:    -7.145      2.649      4.269
REMARK INTER + INTRA:         -11.154
REMARK INTER:                  -9.987
REMARK INTRA:                  -1.166
REMARK UNBOUND:                -1.084
REMARK  Name = 
REMARK  8 active torsions:
REMARK  status: ('A' for Active; 'I' for Inactive)
REMARK    1  A    between atoms: C_1  and  C_2
REMARK    2  A    between atoms: C_2  and  N_3
REMARK    3  A    between atoms: C_2  and  C_25
REMARK    4  A    between atoms: N_3  and  C_4
REMARK    5  A    between atoms: C_4  and  C_5
REMARK    6  A    between atoms: C_8  and  C_9
REMARK    7  A    between atoms: C_9  and  N_10
REMARK    8  A    between atoms: C_11  and  C_13
REMARK                            x       y       z     vdW  Elec       q    Type
REMARK                         _______ _______ _______ _____ _____    ______ ____
ROOT
ATOM      1  C   UNL     1      44.757   4.874  11.070  0.00  0.00    +0.000 A 
ATOM      2  C   UNL     1      44.858   3.984  12.149  0.00  0.00    +0.000 A 
ATOM      3  C   UNL     1      45.739   4.235  13.205  0.00  0.00    +0.000 A 
ATOM      4  C   UNL     1      46.537   5.386  13.205  0.00  0.00    +0.000 A 
ATOM      5  C   UNL     1      46.468   6.256  12.110  0.00  0.00    +0.000 A 
ATOM      6  C   UNL     1      45.584   6.005  11.056  0.00  0.00    +0.000 A 
ENDROOT
BRANCH   1   7
ATOM      7  C   UNL     1      43.859   4.566   9.894  0.00  0.00    +0.000 C 
BRANCH   7   8
ATOM      8  N   UNL     1      44.618   4.264   8.673  0.00  0.00    +0.000 NA
ATOM      9  H   UNL     1      45.256   5.047   8.516  0.00  0.00    +0.000 HD
BRANCH   8  11
ATOM     10  C   UNL     1      44.552   1.794   9.094  0.00  0.00    +0.000 C 
ATOM     11  C   UNL     1      45.422   3.026   8.806  0.00  0.00    +0.000 C 
BRANCH  11  12
ATOM     12  C   UNL     1      46.280   2.735   7.579  0.00  0.00    +0.000 A 
ATOM     13  C   UNL     1      47.094   1.606   7.491  0.00  0.00    +0.000 A 
ATOM     14  N   UNL     1      47.863   1.328   6.408  0.00  0.00    +0.000 NA
ATOM     15  C   UNL     1      47.806   2.236   5.410  0.00  0.00    +0.000 A 
ATOM     16  C   UNL     1      47.028   3.375   5.493  0.00  0.00    +0.000 A 
ATOM     17  N   UNL     1      46.251   3.648   6.567  0.00  0.00    +0.000 NA
ENDBRANCH  11  12
ENDBRANCH   8  11
ENDBRANCH   7   8
ENDBRANCH   1   7
BRANCH   4  18
ATOM     18  C   UNL     1      47.478   5.670  14.346  0.00  0.00    +0.000 C 
BRANCH  18  19
ATOM     19  N   UNL     1      48.244   6.868  14.116  0.00  0.00    +0.000 N 
ATOM     20  C   UNL     1      49.388   7.117  14.833  0.00  0.00    +0.000 C 
ATOM     21  O   UNL     1      49.829   6.311  15.650  0.00  0.00    +0.000 OA
ATOM     22  H   UNL     1      47.788   7.625  13.617  0.00  0.00    +0.000 HD
BRANCH  20  23
ATOM     23  C   UNL     1      50.098   8.366  14.533  0.00  0.00    +0.000 A 
ATOM     24  C   UNL     1      50.414   9.238  15.567  0.00  0.00    +0.000 A 
ATOM     25  S   UNL     1      51.276  10.618  15.059  0.00  0.00    +0.000 S 
ATOM     26  C   UNL     1      51.213  10.125  13.432  0.00  0.00    +0.000 A 
ATOM     27  N   UNL     1      51.759  10.891  12.449  0.00  0.00    +0.000 NA
ATOM     28  C   UNL     1      51.615  10.413  11.259  0.00  0.00    +0.000 A 
ATOM     29  N   UNL     1      50.975   9.237  10.962  0.00  0.00    +0.000 N 
ATOM     30  C   UNL     1      50.430   8.419  11.923  0.00  0.00    +0.000 A 
ATOM     31  O   UNL     1      49.896   7.356  11.626  0.00  0.00    +0.000 OA
ATOM     32  C   UNL     1      50.558   8.915  13.281  0.00  0.00    +0.000 A 
ATOM     33  H   UNL     1      50.901   8.916  10.008  0.00  0.00    +0.000 HD
ENDBRANCH  20  23
ENDBRANCH  18  19
ENDBRANCH   4  18
TORSDOF 7
ENDMDL
MODEL 5
REMARK VINA RESULT:    -7.131      2.025      2.428
REMARK INTER + INTRA:         -11.134
REMARK INTER:                 -10.200
REMARK INTRA:                  -0.934
REMARK UNBOUND:                -1.084
REMARK  Name = 
REMARK  8 active torsions:
REMARK  status: ('A' for Active; 'I' for Inactive)
REMARK    1  A    between atoms: C_1  and  C_2
REMARK    2  A    between atoms: C_2  and  N_3
REMARK    3  A    between atoms: C_2  and  C_25
REMARK    4  A    between atoms: N_3  and  C_4
REMARK    5  A    between atoms: C_4  and  C_5
REMARK    6  A    between atoms: C_8  and  C_9
REMARK    7  A    between atoms: C_9  and  N_10
REMARK    8  A    between atoms: C_11  and  C_13
REMARK                            x       y       z     vdW  Elec       q    Type
REMARK                         _______ _______ _______ _____ _____    ______ ____
ROOT
ATOM      1  C   UNL     1      45.597   4.667  12.181  0.00  0.00    +0.000 A 
ATOM      2  C   UNL     1      45.857   5.871  11.511  0.00  0.00    +0.000 A 
ATOM      3  C   UNL     1      46.702   6.834  12.071  0.00  0.00    +0.000 A 
ATOM      4  C   UNL     1      47.310   6.610  13.312  0.00  0.00    +0.000 A 
ATOM      5  C   UNL     1      47.021   5.426  14.002  0.00  0.00    +0.000 A 
ATOM      6  C   UNL     1      46.177   4.462  13.440  0.00  0.00    +0.000 A 
ENDROOT
BRANCH   1   7
ATOM      7  C   UNL     1      44.625   3.659  11.611  0.00  0.00    +0.000 C 
BRANCH   7   8
ATOM      8  N   UNL     1      45.282   2.683  10.731  0.00  0.00    +0.000 NA
ATOM      9  H   UNL     1      45.087   1.756  11.114  0.00  0.00    +0.000 HD
BRANCH   8  11
ATOM     10  C   UNL     1      44.131   4.098   9.012  0.00  0.00    +0.000 C 
ATOM     11  C   UNL     1      44.760   2.738   9.346  0.00  0.00    +0.000 C 
BRANCH  11  12
ATOM     12  C   UNL     1      45.819   2.424   8.293  0.00  0.00    +0.000 A 
ATOM     13  C   UNL     1      46.305   1.133   8.089  0.00  0.00    +0.000 A 
ATOM     14  N   UNL     1      47.244   0.833   7.157  0.00  0.00    +0.000 NA
ATOM     15  C   UNL     1      47.703   1.881   6.440  0.00  0.00    +0.000 A 
ATOM     16  C   UNL     1      47.254   3.172   6.650  0.00  0.00    +0.000 A 
ATOM     17  N   UNL     1      46.308   3.471   7.570  0.00  0.00    +0.000 NA
ENDBRANCH  11  12
ENDBRANCH   8  11
ENDBRANCH   7   8
ENDBRANCH   1   7
BRANCH   4  18
ATOM     18  C   UNL     1      48.233   7.636  13.914  0.00  0.00    +0.000 C 
BRANCH  18  19
ATOM     19  N   UNL     1      49.390   7.023  14.514  0.00  0.00    +0.000 N 
ATOM     20  C   UNL     1      49.654   7.182  15.851  0.00  0.00    +0.000 C 
ATOM     21  O   UNL     1      48.893   7.801  16.593  0.00  0.00    +0.000 OA
ATOM     22  H   UNL     1      50.124   6.702  13.890  0.00  0.00    +0.000 HD
BRANCH  20  23
ATOM     23  C   UNL     1      50.858   6.524  16.371  0.00  0.00    +0.000 A 
ATOM     24  C   UNL     1      52.084   7.172  16.282  0.00  0.00    +0.000 A 
ATOM     25  S   UNL     1      53.374   6.295  16.969  0.00  0.00    +0.000 S 
ATOM     26  C   UNL     1      52.350   4.995  17.365  0.00  0.00    +0.000 A 
ATOM     27  N   UNL     1      52.841   3.880  17.970  0.00  0.00    +0.000 NA
ATOM     28  C   UNL     1      51.961   2.961  18.187  0.00  0.00    +0.000 A 
ATOM     29  N   UNL     1      50.634   3.057  17.856  0.00  0.00    +0.000 N 
ATOM     30  C   UNL     1      50.089   4.173  17.267  0.00  0.00    +0.000 A 
ATOM     31  O   UNL     1      48.890   4.240  17.017  0.00  0.00    +0.000 OA
ATOM     32  C   UNL     1      51.039   5.235  16.993  0.00  0.00    +0.000 A 
ATOM     33  H   UNL     1      49.995   2.302  18.059  0.00  0.00    +0.000 HD
ENDBRANCH  20  23
ENDBRANCH  18  19
ENDBRANCH   4  18
TORSDOF 7
ENDMDL
MODEL 6
REMARK VINA RESULT:    -6.992      2.882      8.586
REMARK INTER + INTRA:         -10.937
REMARK INTER:                  -9.601
REMARK INTRA:                  -1.337
REMARK UNBOUND:                -1.084
REMARK  Name = 
REMARK  8 active torsions:
REMARK  status: ('A' for Active; 'I' for Inactive)
REMARK    1  A    between atoms: C_1  and  C_2
REMARK    2  A    between atoms: C_2  and  N_3
REMARK    3  A    between atoms: C_2  and  C_25
REMARK    4  A    between atoms: N_3  and  C_4
REMARK    5  A    between atoms: C_4  and  C_5
REMARK    6  A    between atoms: C_8  and  C_9
REMARK    7  A    between atoms: C_9  and  N_10
REMARK    8  A    between atoms: C_11  and  C_13
REMARK                            x       y       z     vdW  Elec       q    Type
REMARK                         _______ _______ _______ _____ _____    ______ ____
ROOT
ATOM      1  C   UNL     1      49.224   8.029  15.878  0.00  0.00    +0.000 A 
ATOM      2  C   UNL     1      49.472   6.995  14.964  0.00  0.00    +0.000 A 
ATOM      3  C   UNL     1      48.824   6.962  13.726  0.00  0.00    +0.000 A 
ATOM      4  C   UNL     1      47.914   7.967  13.375  0.00  0.00    +0.000 A 
ATOM      5  C   UNL     1      47.634   8.979  14.301  0.00  0.00    +0.000 A 
ATOM      6  C   UNL     1      48.285   9.012  15.538  0.00  0.00    +0.000 A 
ENDROOT
BRANCH   1   7
ATOM      7  C   UNL     1      49.869   8.024  17.246  0.00  0.00    +0.000 C 
BRANCH   7   8
ATOM      8  N   UNL     1      48.952   7.561  18.296  0.00  0.00    +0.000 NA
ATOM      9  H   UNL     1      48.037   7.431  17.858  0.00  0.00    +0.000 HD
BRANCH   8  11
ATOM     10  C   UNL     1      48.889   6.094  20.327  0.00  0.00    +0.000 C 
ATOM     11  C   UNL     1      49.378   6.269  18.883  0.00  0.00    +0.000 C 
BRANCH  11  12
ATOM     12  C   UNL     1      48.922   5.062  18.069  0.00  0.00    +0.000 A 
ATOM     13  C   UNL     1      49.819   4.116  17.576  0.00  0.00    +0.000 A 
ATOM     14  N   UNL     1      49.433   3.034  16.852  0.00  0.00    +0.000 NA
ATOM     15  C   UNL     1      48.107   2.938  16.618  0.00  0.00    +0.000 A 
ATOM     16  C   UNL     1      47.207   3.883  17.075  0.00  0.00    +0.000 A 
ATOM     17  N   UNL     1      47.588   4.956  17.807  0.00  0.00    +0.000 NA
ENDBRANCH  11  12
ENDBRANCH   8  11
ENDBRANCH   7   8
ENDBRANCH   1   7
BRANCH   4  18
ATOM     18  C   UNL     1      47.223   7.946  12.037  0.00  0.00    +0.000 C 
BRANCH  18  19
ATOM     19  N   UNL     1      46.621   6.665  11.769  0.00  0.00    +0.000 N 
ATOM     20  C   UNL     1      45.259   6.538  11.670  0.00  0.00    +0.000 C 
ATOM     21  O   UNL     1      44.509   7.509  11.749  0.00  0.00    +0.000 OA
ATOM     22  H   UNL     1      47.196   5.841  11.916  0.00  0.00    +0.000 HD
BRANCH  20  23
ATOM     23  C   UNL     1      44.739   5.192  11.400  0.00  0.00    +0.000 A 
ATOM     24  C   UNL     1      43.988   4.542  12.371  0.00  0.00    +0.000 A 
ATOM     25  S   UNL     1      43.422   3.008  11.887  0.00  0.00    +0.000 S 
ATOM     26  C   UNL     1      44.202   3.137  10.380  0.00  0.00    +0.000 A 
ATOM     27  N   UNL     1      44.136   2.126   9.472  0.00  0.00    +0.000 NA
ATOM     28  C   UNL     1      44.797   2.344   8.385  0.00  0.00    +0.000 A 
ATOM     29  N   UNL     1      45.516   3.480   8.122  0.00  0.00    +0.000 N 
ATOM     30  C   UNL     1      45.591   4.537   8.998  0.00  0.00    +0.000 A 
ATOM     31  O   UNL     1      46.214   5.555   8.717  0.00  0.00    +0.000 OA
ATOM     32  C   UNL     1      44.871   4.340  10.243  0.00  0.00    +0.000 A 
ATOM     33  H   UNL     1      46.007   3.590   7.247  0.00  0.00    +0.000 HD
ENDBRANCH  20  23
ENDBRANCH  18  19
ENDBRANCH   4  18
TORSDOF 7
ENDMDL
MODEL 7
REMARK VINA RESULT:    -6.987      2.658      3.171
REMARK INTER + INTRA:         -10.931
REMARK INTER:                  -9.870
REMARK INTRA:                  -1.061
REMARK UNBOUND:                -1.084
REMARK  Name = 
REMARK  8 active torsions:
REMARK  status: ('A' for Active; 'I' for Inactive)
REMARK    1  A    between atoms: C_1  and  C_2
REMARK    2  A    between atoms: C_2  and  N_3
REMARK    3  A    between atoms: C_2  and  C_25
REMARK    4  A    between atoms: N_3  and  C_4
REMARK    5  A    between atoms: C_4  and  C_5
REMARK    6  A    between atoms: C_8  and  C_9
REMARK    7  A    between atoms: C_9  and  N_10
REMARK    8  A    between atoms: C_11  and  C_13
REMARK                            x       y       z     vdW  Elec       q    Type
REMARK                         _______ _______ _______ _____ _____    ______ ____
ROOT
ATOM      1  C   UNL     1      45.016   4.829  11.468  0.00  0.00    +0.000 A 
ATOM      2  C   UNL     1      45.133   3.788  12.400  0.00  0.00    +0.000 A 
ATOM      3  C   UNL     1      46.066   3.858  13.438  0.00  0.00    +0.000 A 
ATOM      4  C   UNL     1      46.901   4.974  13.568  0.00  0.00    +0.000 A 
ATOM      5  C   UNL     1      46.814   5.998  12.616  0.00  0.00    +0.000 A 
ATOM      6  C   UNL     1      45.878   5.928  11.580  0.00  0.00    +0.000 A 
ENDROOT
BRANCH   1   7
ATOM      7  C   UNL     1      44.058   4.721  10.303  0.00  0.00    +0.000 C 
BRANCH   7   8
ATOM      8  N   UNL     1      44.743   4.404   9.043  0.00  0.00    +0.000 NA
ATOM      9  H   UNL     1      45.480   5.102   8.920  0.00  0.00    +0.000 HD
BRANCH   8  11
ATOM     10  C   UNL     1      44.336   1.938   9.238  0.00  0.00    +0.000 C 
ATOM     11  C   UNL     1      45.369   3.061   9.069  0.00  0.00    +0.000 C 
BRANCH  11  12
ATOM     12  C   UNL     1      46.204   2.765   7.826  0.00  0.00    +0.000 A 
ATOM     13  C   UNL     1      46.929   1.584   7.682  0.00  0.00    +0.000 A 
ATOM     14  N   UNL     1      47.676   1.301   6.584  0.00  0.00    +0.000 NA
ATOM     15  C   UNL     1      47.689   2.258   5.632  0.00  0.00    +0.000 A 
ATOM     16  C   UNL     1      47.000   3.448   5.772  0.00  0.00    +0.000 A 
ATOM     17  N   UNL     1      46.245   3.727   6.861  0.00  0.00    +0.000 NA
ENDBRANCH  11  12
ENDBRANCH   8  11
ENDBRANCH   7   8
ENDBRANCH   1   7
BRANCH   4  18
ATOM     18  C   UNL     1      47.899   5.063  14.693  0.00  0.00    +0.000 C 
BRANCH  18  19
ATOM     19  N   UNL     1      47.836   6.338  15.360  0.00  0.00    +0.000 N 
ATOM     20  C   UNL     1      48.966   7.100  15.523  0.00  0.00    +0.000 C 
ATOM     21  O   UNL     1      50.053   6.755  15.065  0.00  0.00    +0.000 OA
ATOM     22  H   UNL     1      47.013   6.530  15.922  0.00  0.00    +0.000 HD
BRANCH  20  23
ATOM     23  C   UNL     1      48.804   8.381  16.220  0.00  0.00    +0.000 A 
ATOM     24  C   UNL     1      49.182   9.558  15.586  0.00  0.00    +0.000 A 
ATOM     25  S   UNL     1      48.889  10.959  16.511  0.00  0.00    +0.000 S 
ATOM     26  C   UNL     1      48.294  10.041  17.813  0.00  0.00    +0.000 A 
ATOM     27  N   UNL     1      47.883  10.643  18.962  0.00  0.00    +0.000 NA
ATOM     28  C   UNL     1      47.483   9.826  19.878  0.00  0.00    +0.000 A 
ATOM     29  N   UNL     1      47.454   8.462  19.749  0.00  0.00    +0.000 N 
ATOM     30  C   UNL     1      47.835   7.811  18.600  0.00  0.00    +0.000 A 
ATOM     31  O   UNL     1      47.763   6.591  18.505  0.00  0.00    +0.000 OA
ATOM     32  C   UNL     1      48.303   8.684  17.539  0.00  0.00    +0.000 A 
ATOM     33  H   UNL     1      47.123   7.879  20.504  0.00  0.00    +0.000 HD
ENDBRANCH  20  23
ENDBRANCH  18  19
ENDBRANCH   4  18
TORSDOF 7
ENDMDL
MODEL 8
REMARK VINA RESULT:    -6.637      3.368      8.255
REMARK INTER + INTRA:         -10.437
REMARK INTER:                  -9.330
REMARK INTRA:                  -1.107
REMARK UNBOUND:                -1.084
REMARK  Name = 
REMARK  8 active torsions:
REMARK  status: ('A' for Active; 'I' for Inactive)
REMARK    1  A    between atoms: C_1  and  C_2
REMARK    2  A    between atoms: C_2  and  N_3
REMARK    3  A    between atoms: C_2  and  C_25
REMARK    4  A    between atoms: N_3  and  C_4
REMARK    5  A    between atoms: C_4  and  C_5
REMARK    6  A    between atoms: C_8  and  C_9
REMARK    7  A    between atoms: C_9  and  N_10
REMARK    8  A    between atoms: C_11  and  C_13
REMARK                            x       y       z     vdW  Elec       q    Type
REMARK                         _______ _______ _______ _____ _____    ______ ____
ROOT
ATOM      1  C   UNL     1      49.917   7.333  15.807  0.00  0.00    +0.000 A 
ATOM      2  C   UNL     1      50.586   8.180  14.913  0.00  0.00    +0.000 A 
ATOM      3  C   UNL     1      50.062   8.440  13.644  0.00  0.00    +0.000 A 
ATOM      4  C   UNL     1      48.853   7.859  13.243  0.00  0.00    +0.000 A 
ATOM      5  C   UNL     1      48.202   6.980  14.118  0.00  0.00    +0.000 A 
ATOM      6  C   UNL     1      48.726   6.724  15.389  0.00  0.00    +0.000 A 
ENDROOT
BRANCH   1   7
ATOM      7  C   UNL     1      50.521   6.994  17.152  0.00  0.00    +0.000 C 
BRANCH   7   8
ATOM      8  N   UNL     1      49.524   6.997  18.230  0.00  0.00    +0.000 NA
ATOM      9  H   UNL     1      48.609   7.117  17.791  0.00  0.00    +0.000 HD
BRANCH   8  11
ATOM     10  C   UNL     1      48.590   5.782  20.213  0.00  0.00    +0.000 C 
ATOM     11  C   UNL     1      49.516   5.725  18.990  0.00  0.00    +0.000 C 
BRANCH  11  12
ATOM     12  C   UNL     1      49.121   4.522  18.140  0.00  0.00    +0.000 A 
ATOM     13  C   UNL     1      50.062   3.626  17.636  0.00  0.00    +0.000 A 
ATOM     14  N   UNL     1      49.731   2.549  16.880  0.00  0.00    +0.000 NA
ATOM     15  C   UNL     1      48.413   2.405  16.625  0.00  0.00    +0.000 A 
ATOM     16  C   UNL     1      47.469   3.300  17.093  0.00  0.00    +0.000 A 
ATOM     17  N   UNL     1      47.796   4.368  17.857  0.00  0.00    +0.000 NA
ENDBRANCH  11  12
ENDBRANCH   8  11
ENDBRANCH   7   8
ENDBRANCH   1   7
BRANCH   4  18
ATOM     18  C   UNL     1      48.274   8.145  11.882  0.00  0.00    +0.000 C 
BRANCH  18  19
ATOM     19  N   UNL     1      47.589   6.998  11.344  0.00  0.00    +0.000 N 
ATOM     20  C   UNL     1      46.219   6.933  11.350  0.00  0.00    +0.000 C 
ATOM     21  O   UNL     1      45.527   7.863  11.760  0.00  0.00    +0.000 OA
ATOM     22  H   UNL     1      48.134   6.152  11.207  0.00  0.00    +0.000 HD
BRANCH  20  23
ATOM     23  C   UNL     1      45.612   5.722  10.785  0.00  0.00    +0.000 A 
ATOM     24  C   UNL     1      45.751   5.456   9.428  0.00  0.00    +0.000 A 
ATOM     25  S   UNL     1      45.027   3.992   8.940  0.00  0.00    +0.000 S 
ATOM     26  C   UNL     1      44.457   3.686  10.514  0.00  0.00    +0.000 A 
ATOM     27  N   UNL     1      43.721   2.575  10.785  0.00  0.00    +0.000 NA
ATOM     28  C   UNL     1      43.330   2.482  12.012  0.00  0.00    +0.000 A 
ATOM     29  N   UNL     1      43.611   3.398  12.993  0.00  0.00    +0.000 N 
ATOM     30  C   UNL     1      44.371   4.521  12.771  0.00  0.00    +0.000 A 
ATOM     31  O   UNL     1      44.633   5.302  13.679  0.00  0.00    +0.000 OA
ATOM     32  C   UNL     1      44.830   4.679  11.403  0.00  0.00    +0.000 A 
ATOM     33  H   UNL     1      43.279   3.263  13.936  0.00  0.00    +0.000 HD
ENDBRANCH  20  23
ENDBRANCH  18  19
ENDBRANCH   4  18
TORSDOF 7
ENDMDL
MODEL 9
REMARK VINA RESULT:    -6.569      4.887      7.392
REMARK INTER + INTRA:         -10.342
REMARK INTER:                  -9.314
REMARK INTRA:                  -1.028
REMARK UNBOUND:                -1.084
REMARK  Name = 
REMARK  8 active torsions:
REMARK  status: ('A' for Active; 'I' for Inactive)
REMARK    1  A    between atoms: C_1  and  C_2
REMARK    2  A    between atoms: C_2  and  N_3
REMARK    3  A    between atoms: C_2  and  C_25
REMARK    4  A    between atoms: N_3  and  C_4
REMARK    5  A    between atoms: C_4  and  C_5
REMARK    6  A    between atoms: C_8  and  C_9
REMARK    7  A    between atoms: C_9  and  N_10
REMARK    8  A    between atoms: C_11  and  C_13
REMARK                            x       y       z     vdW  Elec       q    Type
REMARK                         _______ _______ _______ _____ _____    ______ ____
ROOT
ATOM      1  C   UNL     1      50.575   8.816  11.395  0.00  0.00    +0.000 A 
ATOM      2  C   UNL     1      49.714   9.913  11.540  0.00  0.00    +0.000 A 
ATOM      3  C   UNL     1      48.414   9.744  12.026  0.00  0.00    +0.000 A 
ATOM      4  C   UNL     1      47.949   8.473  12.381  0.00  0.00    +0.000 A 
ATOM      5  C   UNL     1      48.793   7.370  12.201  0.00  0.00    +0.000 A 
ATOM      6  C   UNL     1      50.094   7.541  11.717  0.00  0.00    +0.000 A 
ENDROOT
BRANCH   1   7
ATOM      7  C   UNL     1      51.955   8.989  10.801  0.00  0.00    +0.000 C 
BRANCH   7   8
ATOM      8  N   UNL     1      52.134   8.210   9.569  0.00  0.00    +0.000 NA
ATOM      9  H   UNL     1      51.974   8.847   8.786  0.00  0.00    +0.000 HD
BRANCH   8  11
ATOM     10  C   UNL     1      54.066   7.196  10.803  0.00  0.00    +0.000 C 
ATOM     11  C   UNL     1      53.504   7.657   9.450  0.00  0.00    +0.000 C 
BRANCH  11  12
ATOM     12  C   UNL     1      53.599   6.495   8.466  0.00  0.00    +0.000 A 
ATOM     13  C   UNL     1      52.683   6.322   7.430  0.00  0.00    +0.000 A 
ATOM     14  N   UNL     1      52.750   5.297   6.543  0.00  0.00    +0.000 NA
ATOM     15  C   UNL     1      53.766   4.428   6.740  0.00  0.00    +0.000 A 
ATOM     16  C   UNL     1      54.665   4.569   7.780  0.00  0.00    +0.000 A 
ATOM     17  N   UNL     1      54.607   5.597   8.658  0.00  0.00    +0.000 NA
ENDBRANCH  11  12
ENDBRANCH   8  11
ENDBRANCH   7   8
ENDBRANCH   1   7
BRANCH   4  18
ATOM     18  C   UNL     1      46.555   8.284  12.919  0.00  0.00    +0.000 C 
BRANCH  18  19
ATOM     19  N   UNL     1      46.061   6.956  12.663  0.00  0.00    +0.000 N 
ATOM     20  C   UNL     1      45.043   6.747  11.768  0.00  0.00    +0.000 C 
ATOM     21  O   UNL     1      44.553   7.668  11.115  0.00  0.00    +0.000 OA
ATOM     22  H   UNL     1      46.297   6.233  13.336  0.00  0.00    +0.000 HD
BRANCH  20  23
ATOM     23  C   UNL     1      44.603   5.360  11.577  0.00  0.00    +0.000 A 
ATOM     24  C   UNL     1      43.895   4.722  12.588  0.00  0.00    +0.000 A 
ATOM     25  S   UNL     1      43.421   3.132  12.193  0.00  0.00    +0.000 S 
ATOM     26  C   UNL     1      44.189   3.222  10.677  0.00  0.00    +0.000 A 
ATOM     27  N   UNL     1      44.181   2.160   9.828  0.00  0.00    +0.000 NA
ATOM     28  C   UNL     1      44.825   2.355   8.726  0.00  0.00    +0.000 A 
ATOM     29  N   UNL     1      45.475   3.516   8.396  0.00  0.00    +0.000 N 
ATOM     30  C   UNL     1      45.488   4.623   9.211  0.00  0.00    +0.000 A 
ATOM     31  O   UNL     1      46.048   5.658   8.869  0.00  0.00    +0.000 OA
ATOM     32  C   UNL     1      44.784   4.454  10.469  0.00  0.00    +0.000 A 
ATOM     33  H   UNL     1      45.956   3.606   7.514  0.00  0.00    +0.000 HD
ENDBRANCH  20  23
ENDBRANCH  18  19
ENDBRANCH   4  18
TORSDOF 7
ENDMDL
