MODEL 1
REMARK VINA RESULT:    -7.842      0.000      0.000
REMARK INTER + INTRA:         -11.186
REMARK INTER:                 -10.592
REMARK INTRA:                  -0.594
REMARK UNBOUND:                -0.594
REMARK  Name = 
REMARK  7 active torsions:
REMARK  status: ('A' for Active; 'I' for Inactive)
REMARK    1  A    between atoms: N_1  and  C_2
REMARK    2  A    between atoms: C_2  and  C_3
REMARK    3  A    between atoms: C_6  and  C_7
REMARK    4  A    between atoms: C_7  and  N_8
REMARK    5  A    between atoms: N_8  and  C_9
REMARK    6  A    between atoms: CA_12  and  C_13
REMARK    7  A    between atoms: C_13  and  OXT_15
REMARK                            x       y       z     vdW  Elec       q    Type
REMARK                         _______ _______ _______ _____ _____    ______ ____
ROOT
ATOM      1  N   UNL     1      43.724   4.733   9.668  0.00  0.00    +0.000 N 
ATOM      2  H   UNL     1      43.842   5.702   9.379  0.00  0.00    +0.000 HD
ENDROOT
BRANCH   1   3
ATOM      3  C   UNL     1      44.575   3.848   8.996  0.00  0.00    +0.000 A 
ATOM      4  C   UNL     1      45.544   4.263   8.076  0.00  0.00    +0.000 A 
ATOM      5  C   UNL     1      46.429   3.346   7.504  0.00  0.00    +0.000 A 
ATOM      6  CA  UNL     1      46.333   2.021   7.890  0.00  0.00    +0.000 A 
ATOM      7  N   UNL     1      45.435   1.554   8.803  0.00  0.00    +0.000 NA
ATOM      8  C   UNL     1      44.604   2.488   9.336  0.00  0.00    +0.000 A 
BRANCH   6   9
ATOM      9  C   UNL     1      47.259   1.003   7.311  0.00  0.00    +0.000 C 
ATOM     10  O   UNL     1      48.167   1.242   6.536  0.00  0.00    +0.000 OA
BRANCH   9  11
ATOM     11  OXT UNL     1      46.947  -0.233   7.768  0.00  0.00    +0.000 OA
ATOM     12  HXT UNL     1      46.827  -0.832   6.993  0.00  0.00    +0.000 HD
ENDBRANCH   9  11
ENDBRANCH   6   9
ENDBRANCH   1   3
BRANCH   1  13
ATOM     13  C   UNL     1      43.582   4.614  11.118  0.00  0.00    +0.000 C 
BRANCH  13  17
ATOM     14  C   UNL     1      47.129   6.189  13.061  0.00  0.00    +0.000 A 
ATOM     15  C   UNL     1      46.533   5.003  13.509  0.00  0.00    +0.000 A 
ATOM     16  C   UNL     1      45.381   4.504  12.895  0.00  0.00    +0.000 A 
ATOM     17  C   UNL     1      44.796   5.183  11.818  0.00  0.00    +0.000 A 
ATOM     18  C   UNL     1      45.386   6.374  11.373  0.00  0.00    +0.000 A 
ATOM     19  C   UNL     1      46.541   6.871  11.988  0.00  0.00    +0.000 A 
BRANCH  14  20
ATOM     20  C   UNL     1      48.364   6.735  13.735  0.00  0.00    +0.000 C 
BRANCH  20  21
ATOM     21  N   UNL     1      49.523   6.711  12.848  0.00  0.00    +0.000 NA
ATOM     22  H   UNL     1      50.352   6.477  13.390  0.00  0.00    +0.000 HD
ATOM     23  H   UNL     1      49.674   7.651  12.481  0.00  0.00    +0.000 HD
ENDBRANCH  20  21
ENDBRANCH  14  20
ENDBRANCH  13  17
ENDBRANCH   1  13
TORSDOF 7
ENDMDL
MODEL 2
REMARK VINA RESULT:    -7.830      3.533      6.357
REMARK INTER + INTRA:         -11.171
REMARK INTER:                 -10.644
REMARK INTRA:                  -0.527
REMARK UNBOUND:                -0.594
REMARK  Name = 
REMARK  7 active torsions:
REMARK  status: ('A' for Active; 'I' for Inactive)
REMARK    1  A    between atoms: N_1  and  C_2
REMARK    2  A    between atoms: C_2  and  C_3
REMARK    3  A    between atoms: C_6  and  C_7
REMARK    4  A    between atoms: C_7  and  N_8
REMARK    5  A    between atoms: N_8  and  C_9
REMARK    6  A    between atoms: CA_12  and  C_13
REMARK    7  A    between atoms: C_13  and  OXT_15
REMARK                            x       y       z     vdW  Elec       q    Type
REMARK                         _______ _______ _______ _____ _____    ______ ____
ROOT
ATOM      1  N   UNL     1      44.530   5.506  10.449  0.00  0.00    +0.000 N 
ATOM      2  H   UNL     1      43.906   6.306  10.539  0.00  0.00    +0.000 HD
ENDROOT
BRANCH   1   3
ATOM      3  C   UNL     1      45.278   5.256  11.605  0.00  0.00    +0.000 A 
ATOM      4  C   UNL     1      46.358   6.049  12.010  0.00  0.00    +0.000 A 
ATOM      5  C   UNL     1      47.010   5.808  13.221  0.00  0.00    +0.000 A 
ATOM      6  CA  UNL     1      46.544   4.777  14.017  0.00  0.00    +0.000 A 
ATOM      7  N   UNL     1      45.480   3.987  13.700  0.00  0.00    +0.000 NA
ATOM      8  C   UNL     1      44.875   4.269  12.516  0.00  0.00    +0.000 A 
BRANCH   6   9
ATOM      9  C   UNL     1      47.204   4.483  15.324  0.00  0.00    +0.000 C 
ATOM     10  O   UNL     1      46.810   3.671  16.141  0.00  0.00    +0.000 OA
BRANCH   9  11
ATOM     11  OXT UNL     1      48.309   5.252  15.478  0.00  0.00    +0.000 OA
ATOM     12  HXT UNL     1      48.223   6.043  14.893  0.00  0.00    +0.000 HD
ENDBRANCH   9  11
ENDBRANCH   6   9
ENDBRANCH   1   3
BRANCH   1  13
ATOM     13  C   UNL     1      43.880   4.387   9.771  0.00  0.00    +0.000 C 
BRANCH  13  17
ATOM     14  C   UNL     1      46.824   2.201   7.449  0.00  0.00    +0.000 A 
ATOM     15  C   UNL     1      46.684   3.588   7.305  0.00  0.00    +0.000 A 
ATOM     16  C   UNL     1      45.724   4.290   8.040  0.00  0.00    +0.000 A 
ATOM     17  C   UNL     1      44.879   3.619   8.935  0.00  0.00    +0.000 A 
ATOM     18  C   UNL     1      45.014   2.232   9.075  0.00  0.00    +0.000 A 
ATOM     19  C   UNL     1      45.976   1.531   8.340  0.00  0.00    +0.000 A 
BRANCH  14  20
ATOM     20  C   UNL     1      47.850   1.442   6.644  0.00  0.00    +0.000 C 
BRANCH  20  21
ATOM     21  N   UNL     1      48.388   2.246   5.552  0.00  0.00    +0.000 NA
ATOM     22  H   UNL     1      48.798   3.096   5.935  0.00  0.00    +0.000 HD
ATOM     23  H   UNL     1      47.618   2.543   4.953  0.00  0.00    +0.000 HD
ENDBRANCH  20  21
ENDBRANCH  14  20
ENDBRANCH  13  17
ENDBRANCH   1  13
TORSDOF 7
ENDMDL
MODEL 3
REMARK VINA RESULT:    -7.341      3.919      6.764
REMARK INTER + INTRA:         -10.510
REMARK INTER:                 -10.082
REMARK INTRA:                  -0.428
REMARK UNBOUND:                -0.594
REMARK  Name = 
REMARK  7 active torsions:
REMARK  status: ('A' for Active; 'I' for Inactive)
REMARK    1  A    between atoms: N_1  and  C_2
REMARK    2  A    between atoms: C_2  and  C_3
REMARK    3  A    between atoms: C_6  and  C_7
REMARK    4  A    between atoms: C_7  and  N_8
REMARK    5  A    between atoms: N_8  and  C_9
REMARK    6  A    between atoms: CA_12  and  C_13
REMARK    7  A    between atoms: C_13  and  OXT_15
REMARK                            x       y       z     vdW  Elec       q    Type
REMARK                         _______ _______ _______ _____ _____    ______ ____
ROOT
ATOM      1  N   UNL     1      45.010   3.140  11.606  0.00  0.00    +0.000 N 
ATOM      2  H   UNL     1      45.879   2.613  11.554  0.00  0.00    +0.000 HD
ENDROOT
BRANCH   1   3
ATOM      3  C   UNL     1      45.189   4.458  12.044  0.00  0.00    +0.000 A 
ATOM      4  C   UNL     1      46.302   4.880  12.780  0.00  0.00    +0.000 A 
ATOM      5  C   UNL     1      46.474   6.225  13.112  0.00  0.00    +0.000 A 
ATOM      6  CA  UNL     1      45.523   7.130  12.674  0.00  0.00    +0.000 A 
ATOM      7  N   UNL     1      44.433   6.793  11.928  0.00  0.00    +0.000 NA
ATOM      8  C   UNL     1      44.318   5.473  11.625  0.00  0.00    +0.000 A 
BRANCH   6   9
ATOM      9  C   UNL     1      45.665   8.581  12.997  0.00  0.00    +0.000 C 
ATOM     10  O   UNL     1      45.089   9.487  12.422  0.00  0.00    +0.000 OA
BRANCH   9  11
ATOM     11  OXT UNL     1      46.531   8.753  14.024  0.00  0.00    +0.000 OA
ATOM     12  HXT UNL     1      46.449   9.681  14.350  0.00  0.00    +0.000 HD
ENDBRANCH   9  11
ENDBRANCH   6   9
ENDBRANCH   1   3
BRANCH   1  13
ATOM     13  C   UNL     1      44.156   2.890  10.447  0.00  0.00    +0.000 C 
BRANCH  13  17
ATOM     14  C   UNL     1      46.615   2.762   6.873  0.00  0.00    +0.000 A 
ATOM     15  C   UNL     1      46.000   3.955   7.277  0.00  0.00    +0.000 A 
ATOM     16  C   UNL     1      45.194   3.993   8.419  0.00  0.00    +0.000 A 
ATOM     17  C   UNL     1      44.982   2.836   9.182  0.00  0.00    +0.000 A 
ATOM     18  C   UNL     1      45.590   1.641   8.774  0.00  0.00    +0.000 A 
ATOM     19  C   UNL     1      46.398   1.605   7.632  0.00  0.00    +0.000 A 
BRANCH  14  20
ATOM     20  C   UNL     1      47.472   2.719   5.631  0.00  0.00    +0.000 C 
BRANCH  20  21
ATOM     21  N   UNL     1      48.538   1.728   5.741  0.00  0.00    +0.000 NA
ATOM     22  H   UNL     1      48.148   0.857   6.094  0.00  0.00    +0.000 HD
ATOM     23  H   UNL     1      49.210   2.046   6.440  0.00  0.00    +0.000 HD
ENDBRANCH  20  21
ENDBRANCH  14  20
ENDBRANCH  13  17
ENDBRANCH   1  13
TORSDOF 7
ENDMDL
MODEL 4
REMARK VINA RESULT:    -7.323      3.423      6.309
REMARK INTER + INTRA:         -10.486
REMARK INTER:                  -9.880
REMARK INTRA:                  -0.606
REMARK UNBOUND:                -0.594
REMARK  Name = 
REMARK  7 active torsions:
REMARK  status: ('A' for Active; 'I' for Inactive)
REMARK    1  A    between atoms: N_1  and  C_2
REMARK    2  A    between atoms: C_2  and  C_3
REMARK    3  A    between atoms: C_6  and  C_7
REMARK    4  A    between atoms: C_7  and  N_8
REMARK    5  A    between atoms: N_8  and  C_9
REMARK    6  A    between atoms: CA_12  and  C_13
REMARK    7  A    between atoms: C_13  and  OXT_15
REMARK                            x       y       z     vdW  Elec       q    Type
REMARK                         _______ _______ _______ _____ _____    ______ ____
ROOT
ATOM      1  N   UNL     1      44.226   4.056  11.646  0.00  0.00    +0.000 N 
ATOM      2  H   UNL     1      44.219   3.067  11.885  0.00  0.00    +0.000 HD
ENDROOT
BRANCH   1   3
ATOM      3  C   UNL     1      45.352   4.734  12.128  0.00  0.00    +0.000 A 
ATOM      4  C   UNL     1      45.683   6.041  11.753  0.00  0.00    +0.000 A 
ATOM      5  C   UNL     1      46.767   6.701  12.336  0.00  0.00    +0.000 A 
ATOM      6  CA  UNL     1      47.490   6.033  13.308  0.00  0.00    +0.000 A 
ATOM      7  N   UNL     1      47.204   4.774  13.744  0.00  0.00    +0.000 NA
ATOM      8  C   UNL     1      46.134   4.179  13.151  0.00  0.00    +0.000 A 
BRANCH   6   9
ATOM      9  C   UNL     1      48.654   6.698  13.965  0.00  0.00    +0.000 C 
ATOM     10  O   UNL     1      48.674   7.100  15.115  0.00  0.00    +0.000 OA
BRANCH   9  11
ATOM     11  OXT UNL     1      49.691   6.797  13.100  0.00  0.00    +0.000 OA
ATOM     12  HXT UNL     1      50.447   6.272  13.456  0.00  0.00    +0.000 HD
ENDBRANCH   9  11
ENDBRANCH   6   9
ENDBRANCH   1   3
BRANCH   1  13
ATOM     13  C   UNL     1      43.802   4.282  10.266  0.00  0.00    +0.000 C 
BRANCH  13  17
ATOM     14  C   UNL     1      46.600   2.348   7.571  0.00  0.00    +0.000 A 
ATOM     15  C   UNL     1      46.402   3.734   7.524  0.00  0.00    +0.000 A 
ATOM     16  C   UNL     1      45.488   4.356   8.379  0.00  0.00    +0.000 A 
ATOM     17  C   UNL     1      44.749   3.603   9.302  0.00  0.00    +0.000 A 
ATOM     18  C   UNL     1      44.941   2.216   9.345  0.00  0.00    +0.000 A 
ATOM     19  C   UNL     1      45.857   1.595   8.489  0.00  0.00    +0.000 A 
BRANCH  14  20
ATOM     20  C   UNL     1      47.576   1.676   6.636  0.00  0.00    +0.000 C 
BRANCH  20  21
ATOM     21  N   UNL     1      48.703   2.543   6.311  0.00  0.00    +0.000 NA
ATOM     22  H   UNL     1      48.682   2.758   5.317  0.00  0.00    +0.000 HD
ATOM     23  H   UNL     1      49.570   2.030   6.476  0.00  0.00    +0.000 HD
ENDBRANCH  20  21
ENDBRANCH  14  20
ENDBRANCH  13  17
ENDBRANCH   1  13
TORSDOF 7
ENDMDL
MODEL 5
REMARK VINA RESULT:    -6.902      1.457      2.014
REMARK INTER + INTRA:          -9.917
REMARK INTER:                  -9.363
REMARK INTRA:                  -0.554
REMARK UNBOUND:                -0.594
REMARK  Name = 
REMARK  7 active torsions:
REMARK  status: ('A' for Active; 'I' for Inactive)
REMARK    1  A    between atoms: N_1  and  C_2
REMARK    2  A    between atoms: C_2  and  C_3
REMARK    3  A    between atoms: C_6  and  C_7
REMARK    4  A    between atoms: C_7  and  N_8
REMARK    5  A    between atoms: N_8  and  C_9
REMARK    6  A    between atoms: CA_12  and  C_13
REMARK    7  A    between atoms: C_13  and  OXT_15
REMARK                            x       y       z     vdW  Elec       q    Type
REMARK                         _______ _______ _______ _____ _____    ______ ____
ROOT
ATOM      1  N   UNL     1      43.696   3.883  10.484  0.00  0.00    +0.000 N 
ATOM      2  H   UNL     1      43.320   4.810  10.297  0.00  0.00    +0.000 HD
ENDROOT
BRANCH   1   3
ATOM      3  C   UNL     1      44.635   3.464   9.535  0.00  0.00    +0.000 A 
ATOM      4  C   UNL     1      44.992   2.124   9.345  0.00  0.00    +0.000 A 
ATOM      5  C   UNL     1      45.866   1.754   8.321  0.00  0.00    +0.000 A 
ATOM      6  CA  UNL     1      46.351   2.746   7.487  0.00  0.00    +0.000 A 
ATOM      7  N   UNL     1      46.020   4.064   7.595  0.00  0.00    +0.000 NA
ATOM      8  C   UNL     1      45.159   4.370   8.602  0.00  0.00    +0.000 A 
BRANCH   6   9
ATOM      9  C   UNL     1      47.283   2.401   6.374  0.00  0.00    +0.000 C 
ATOM     10  O   UNL     1      47.230   2.859   5.247  0.00  0.00    +0.000 OA
BRANCH   9  11
ATOM     11  OXT UNL     1      48.202   1.497   6.792  0.00  0.00    +0.000 OA
ATOM     12  HXT UNL     1      48.290   0.798   6.100  0.00  0.00    +0.000 HD
ENDBRANCH   9  11
ENDBRANCH   6   9
ENDBRANCH   1   3
BRANCH   1  13
ATOM     13  C   UNL     1      43.994   3.698  11.903  0.00  0.00    +0.000 C 
BRANCH  13  17
ATOM     14  C   UNL     1      46.803   6.673  13.353  0.00  0.00    +0.000 A 
ATOM     15  C   UNL     1      45.624   7.058  12.699  0.00  0.00    +0.000 A 
ATOM     16  C   UNL     1      44.727   6.101  12.216  0.00  0.00    +0.000 A 
ATOM     17  C   UNL     1      44.991   4.733  12.375  0.00  0.00    +0.000 A 
ATOM     18  C   UNL     1      46.172   4.346  13.022  0.00  0.00    +0.000 A 
ATOM     19  C   UNL     1      47.068   5.306  13.505  0.00  0.00    +0.000 A 
BRANCH  14  20
ATOM     20  C   UNL     1      47.777   7.707  13.860  0.00  0.00    +0.000 C 
BRANCH  20  21
ATOM     21  N   UNL     1      47.095   8.876  14.405  0.00  0.00    +0.000 NA
ATOM     22  H   UNL     1      46.475   8.579  15.156  0.00  0.00    +0.000 HD
ATOM     23  H   UNL     1      46.498   9.275  13.680  0.00  0.00    +0.000 HD
ENDBRANCH  20  21
ENDBRANCH  14  20
ENDBRANCH  13  17
ENDBRANCH   1  13
TORSDOF 7
ENDMDL
MODEL 6
REMARK VINA RESULT:    -6.082      3.723      6.735
REMARK INTER + INTRA:          -8.809
REMARK INTER:                  -8.334
REMARK INTRA:                  -0.475
REMARK UNBOUND:                -0.594
REMARK  Name = 
REMARK  7 active torsions:
REMARK  status: ('A' for Active; 'I' for Inactive)
REMARK    1  A    between atoms: N_1  and  C_2
REMARK    2  A    between atoms: C_2  and  C_3
REMARK    3  A    between atoms: C_6  and  C_7
REMARK    4  A    between atoms: C_7  and  N_8
REMARK    5  A    between atoms: N_8  and  C_9
REMARK    6  A    between atoms: CA_12  and  C_13
REMARK    7  A    between atoms: C_13  and  OXT_15
REMARK                            x       y       z     vdW  Elec       q    Type
REMARK                         _______ _______ _______ _____ _____    ______ ____
ROOT
ATOM      1  N   UNL     1      44.379   5.170  11.494  0.00  0.00    +0.000 N 
ATOM      2  H   UNL     1      44.770   4.327  11.911  0.00  0.00    +0.000 HD
ENDROOT
BRANCH   1   3
ATOM      3  C   UNL     1      45.201   6.293  11.645  0.00  0.00    +0.000 A 
ATOM      4  C   UNL     1      44.718   7.607  11.633  0.00  0.00    +0.000 A 
ATOM      5  C   UNL     1      45.569   8.685  11.880  0.00  0.00    +0.000 A 
ATOM      6  CA  UNL     1      46.898   8.416  12.156  0.00  0.00    +0.000 A 
ATOM      7  N   UNL     1      47.428   7.162  12.215  0.00  0.00    +0.000 NA
ATOM      8  C   UNL     1      46.555   6.147  11.976  0.00  0.00    +0.000 A 
BRANCH   6   9
ATOM      9  C   UNL     1      47.847   9.535  12.433  0.00  0.00    +0.000 C 
ATOM     10  O   UNL     1      47.703  10.685  12.060  0.00  0.00    +0.000 OA
BRANCH   9  11
ATOM     11  OXT UNL     1      48.902   9.091  13.158  0.00  0.00    +0.000 OA
ATOM     12  HXT UNL     1      49.331   9.866  13.592  0.00  0.00    +0.000 HD
ENDBRANCH   9  11
ENDBRANCH   6   9
ENDBRANCH   1   3
BRANCH   1  13
ATOM     13  C   UNL     1      43.783   4.900  10.188  0.00  0.00    +0.000 C 
BRANCH  13  17
ATOM     14  C   UNL     1      46.183   2.144   7.847  0.00  0.00    +0.000 A 
ATOM     15  C   UNL     1      45.337   1.674   8.860  0.00  0.00    +0.000 A 
ATOM     16  C   UNL     1      44.577   2.562   9.627  0.00  0.00    +0.000 A 
ATOM     17  C   UNL     1      44.647   3.944   9.397  0.00  0.00    +0.000 A 
ATOM     18  C   UNL     1      45.498   4.415   8.388  0.00  0.00    +0.000 A 
ATOM     19  C   UNL     1      46.257   3.524   7.621  0.00  0.00    +0.000 A 
BRANCH  14  20
ATOM     20  C   UNL     1      47.014   1.185   7.030  0.00  0.00    +0.000 C 
BRANCH  20  21
ATOM     21  N   UNL     1      47.138  -0.117   7.679  0.00  0.00    +0.000 NA
ATOM     22  H   UNL     1      46.906  -0.846   7.008  0.00  0.00    +0.000 HD
ATOM     23  H   UNL     1      46.443  -0.179   8.423  0.00  0.00    +0.000 HD
ENDBRANCH  20  21
ENDBRANCH  14  20
ENDBRANCH  13  17
ENDBRANCH   1  13
TORSDOF 7
ENDMDL
MODEL 7
REMARK VINA RESULT:    -5.895      3.912      6.639
REMARK INTER + INTRA:          -8.556
REMARK INTER:                  -8.193
REMARK INTRA:                  -0.364
REMARK UNBOUND:                -0.594
REMARK  Name = 
REMARK  7 active torsions:
REMARK  status: ('A' for Active; 'I' for Inactive)
REMARK    1  A    between atoms: N_1  and  C_2
REMARK    2  A    between atoms: C_2  and  C_3
REMARK    3  A    between atoms: C_6  and  C_7
REMARK    4  A    between atoms: C_7  and  N_8
REMARK    5  A    between atoms: N_8  and  C_9
REMARK    6  A    between atoms: CA_12  and  C_13
REMARK    7  A    between atoms: C_13  and  OXT_15
REMARK                            x       y       z     vdW  Elec       q    Type
REMARK                         _______ _______ _______ _____ _____    ______ ____
ROOT
ATOM      1  N   UNL     1      45.975   5.692  12.560  0.00  0.00    +0.000 N 
ATOM      2  H   UNL     1      45.823   6.679  12.758  0.00  0.00    +0.000 HD
ENDROOT
BRANCH   1   3
ATOM      3  C   UNL     1      46.682   5.027  13.569  0.00  0.00    +0.000 A 
ATOM      4  C   UNL     1      47.184   5.668  14.707  0.00  0.00    +0.000 A 
ATOM      5  C   UNL     1      47.801   4.940  15.726  0.00  0.00    +0.000 A 
ATOM      6  CA  UNL     1      47.882   3.566  15.587  0.00  0.00    +0.000 A 
ATOM      7  N   UNL     1      47.386   2.875  14.523  0.00  0.00    +0.000 NA
ATOM      8  C   UNL     1      46.787   3.629  13.564  0.00  0.00    +0.000 A 
BRANCH   6   9
ATOM      9  C   UNL     1      48.527   2.742  16.652  0.00  0.00    +0.000 C 
ATOM     10  O   UNL     1      48.355   2.886  17.850  0.00  0.00    +0.000 OA
BRANCH   9  11
ATOM     11  OXT UNL     1      49.338   1.809  16.101  0.00  0.00    +0.000 OA
ATOM     12  HXT UNL     1      48.813   1.284  15.449  0.00  0.00    +0.000 HD
ENDBRANCH   9  11
ENDBRANCH   6   9
ENDBRANCH   1   3
BRANCH   1  13
ATOM     13  C   UNL     1      44.780   5.064  12.001  0.00  0.00    +0.000 C 
BRANCH  13  17
ATOM     14  C   UNL     1      45.688   3.487   8.061  0.00  0.00    +0.000 A 
ATOM     15  C   UNL     1      46.004   4.811   8.393  0.00  0.00    +0.000 A 
ATOM     16  C   UNL     1      45.696   5.325   9.655  0.00  0.00    +0.000 A 
ATOM     17  C   UNL     1      45.062   4.525  10.616  0.00  0.00    +0.000 A 
ATOM     18  C   UNL     1      44.739   3.203  10.283  0.00  0.00    +0.000 A 
ATOM     19  C   UNL     1      45.049   2.690   9.019  0.00  0.00    +0.000 A 
BRANCH  14  20
ATOM     20  C   UNL     1      46.006   2.938   6.692  0.00  0.00    +0.000 C 
BRANCH  20  21
ATOM     21  N   UNL     1      47.119   3.646   6.067  0.00  0.00    +0.000 NA
ATOM     22  H   UNL     1      47.626   4.164   6.781  0.00  0.00    +0.000 HD
ATOM     23  H   UNL     1      46.743   4.340   5.420  0.00  0.00    +0.000 HD
ENDBRANCH  20  21
ENDBRANCH  14  20
ENDBRANCH  13  17
ENDBRANCH   1  13
TORSDOF 7
ENDMDL
MODEL 8
REMARK VINA RESULT:    -5.837      4.514      6.204
REMARK INTER + INTRA:          -8.478
REMARK INTER:                  -8.113
REMARK INTRA:                  -0.365
REMARK UNBOUND:                -0.594
REMARK  Name = 
REMARK  7 active torsions:
REMARK  status: ('A' for Active; 'I' for Inactive)
REMARK    1  A    between atoms: N_1  and  C_2
REMARK    2  A    between atoms: C_2  and  C_3
REMARK    3  A    between atoms: C_6  and  C_7
REMARK    4  A    between atoms: C_7  and  N_8
REMARK    5  A    between atoms: N_8  and  C_9
REMARK    6  A    between atoms: CA_12  and  C_13
REMARK    7  A    between atoms: C_13  and  OXT_15
REMARK                            x       y       z     vdW  Elec       q    Type
REMARK                         _______ _______ _______ _____ _____    ______ ____
ROOT
ATOM      1  N   UNL     1      47.454   5.296  15.103  0.00  0.00    +0.000 N 
ATOM      2  H   UNL     1      48.420   5.314  14.783  0.00  0.00    +0.000 HD
ENDROOT
BRANCH   1   3
ATOM      3  C   UNL     1      46.560   4.824  14.135  0.00  0.00    +0.000 A 
ATOM      4  C   UNL     1      45.690   5.654  13.420  0.00  0.00    +0.000 A 
ATOM      5  C   UNL     1      44.885   5.142  12.401  0.00  0.00    +0.000 A 
ATOM      6  CA  UNL     1      44.988   3.794  12.105  0.00  0.00    +0.000 A 
ATOM      7  N   UNL     1      45.835   2.935  12.739  0.00  0.00    +0.000 NA
ATOM      8  C   UNL     1      46.603   3.486  13.716  0.00  0.00    +0.000 A 
BRANCH   6   9
ATOM      9  C   UNL     1      44.152   3.199  11.021  0.00  0.00    +0.000 C 
ATOM     10  O   UNL     1      44.578   2.773   9.962  0.00  0.00    +0.000 OA
BRANCH   9  11
ATOM     11  OXT UNL     1      42.846   3.201  11.376  0.00  0.00    +0.000 OA
ATOM     12  HXT UNL     1      42.761   2.765  12.258  0.00  0.00    +0.000 HD
ENDBRANCH   9  11
ENDBRANCH   6   9
ENDBRANCH   1   3
BRANCH   1  13
ATOM     13  C   UNL     1      47.346   4.794  16.470  0.00  0.00    +0.000 C 
BRANCH  13  17
ATOM     14  C   UNL     1      51.059   2.827  17.560  0.00  0.00    +0.000 A 
ATOM     15  C   UNL     1      49.933   2.078  17.190  0.00  0.00    +0.000 A 
ATOM     16  C   UNL     1      48.732   2.710  16.857  0.00  0.00    +0.000 A 
ATOM     17  C   UNL     1      48.629   4.108  16.886  0.00  0.00    +0.000 A 
ATOM     18  C   UNL     1      49.752   4.857  17.262  0.00  0.00    +0.000 A 
ATOM     19  C   UNL     1      50.954   4.223  17.595  0.00  0.00    +0.000 A 
BRANCH  14  20
ATOM     20  C   UNL     1      52.351   2.143  17.935  0.00  0.00    +0.000 C 
BRANCH  20  21
ATOM     21  N   UNL     1      52.168   0.710  18.141  0.00  0.00    +0.000 NA
ATOM     22  H   UNL     1      52.360   0.487  19.115  0.00  0.00    +0.000 HD
ATOM     23  H   UNL     1      52.862   0.208  17.588  0.00  0.00    +0.000 HD
ENDBRANCH  20  21
ENDBRANCH  14  20
ENDBRANCH  13  17
ENDBRANCH   1  13
TORSDOF 7
ENDMDL
MODEL 9
REMARK VINA RESULT:    -5.571      3.454      4.651
REMARK INTER + INTRA:          -8.119
REMARK INTER:                  -7.722
REMARK INTRA:                  -0.398
REMARK UNBOUND:                -0.594
REMARK  Name = 
REMARK  7 active torsions:
REMARK  status: ('A' for Active; 'I' for Inactive)
REMARK    1  A    between atoms: N_1  and  C_2
REMARK    2  A    between atoms: C_2  and  C_3
REMARK    3  A    between atoms: C_6  and  C_7
REMARK    4  A    between atoms: C_7  and  N_8
REMARK    5  A    between atoms: N_8  and  C_9
REMARK    6  A    between atoms: CA_12  and  C_13
REMARK    7  A    between atoms: C_13  and  OXT_15
REMARK                            x       y       z     vdW  Elec       q    Type
REMARK                         _______ _______ _______ _____ _____    ______ ____
ROOT
ATOM      1  N   UNL     1      45.986   5.727  13.654  0.00  0.00    +0.000 N 
ATOM      2  H   UNL     1      45.434   6.557  13.861  0.00  0.00    +0.000 HD
ENDROOT
BRANCH   1   3
ATOM      3  C   UNL     1      45.582   5.071  12.485  0.00  0.00    +0.000 A 
ATOM      4  C   UNL     1      45.634   5.659  11.216  0.00  0.00    +0.000 A 
ATOM      5  C   UNL     1      45.305   4.927  10.073  0.00  0.00    +0.000 A 
ATOM      6  CA  UNL     1      44.946   3.600  10.231  0.00  0.00    +0.000 A 
ATOM      7  N   UNL     1      44.906   2.956  11.431  0.00  0.00    +0.000 NA
ATOM      8  C   UNL     1      45.244   3.711  12.510  0.00  0.00    +0.000 A 
BRANCH   6   9
ATOM      9  C   UNL     1      44.591   2.774   9.039  0.00  0.00    +0.000 C 
ATOM     10  O   UNL     1      44.645   1.558   8.988  0.00  0.00    +0.000 OA
BRANCH   9  11
ATOM     11  OXT UNL     1      44.202   3.568   8.013  0.00  0.00    +0.000 OA
ATOM     12  HXT UNL     1      43.362   4.020   8.270  0.00  0.00    +0.000 HD
ENDBRANCH   9  11
ENDBRANCH   6   9
ENDBRANCH   1   3
BRANCH   1  13
ATOM     13  C   UNL     1      47.411   5.956  13.879  0.00  0.00    +0.000 C 
BRANCH  13  17
ATOM     14  C   UNL     1      48.638   4.578  17.808  0.00  0.00    +0.000 A 
ATOM     15  C   UNL     1      47.713   3.848  17.049  0.00  0.00    +0.000 A 
ATOM     16  C   UNL     1      47.304   4.301  15.791  0.00  0.00    +0.000 A 
ATOM     17  C   UNL     1      47.811   5.497  15.263  0.00  0.00    +0.000 A 
ATOM     18  C   UNL     1      48.731   6.230  16.024  0.00  0.00    +0.000 A 
ATOM     19  C   UNL     1      49.140   5.775  17.282  0.00  0.00    +0.000 A 
BRANCH  14  20
ATOM     20  C   UNL     1      49.067   4.097  19.172  0.00  0.00    +0.000 C 
BRANCH  20  21
ATOM     21  N   UNL     1      48.266   2.965  19.627  0.00  0.00    +0.000 NA
ATOM     22  H   UNL     1      48.887   2.210  19.911  0.00  0.00    +0.000 HD
ATOM     23  H   UNL     1      47.723   2.611  18.839  0.00  0.00    +0.000 HD
ENDBRANCH  20  21
ENDBRANCH  14  20
ENDBRANCH  13  17
ENDBRANCH   1  13
TORSDOF 7
ENDMDL
