MODEL 1
REMARK VINA RESULT:    -7.695      0.000      0.000
REMARK INTER + INTRA:         -13.027
REMARK INTER:                 -11.744
REMARK INTRA:                  -1.284
REMARK UNBOUND:                -1.284
REMARK  Name = 
REMARK  13 active torsions:
REMARK  status: ('A' for Active; 'I' for Inactive)
REMARK    1  A    between atoms: C_1  and  N_2
REMARK    2  A    between atoms: N_2  and  C_3
REMARK    3  A    between atoms: N_2  and  C_4
REMARK    4  A    between atoms: C_4  and  C_5
REMARK    5  A    between atoms: C_5  and  O_6
REMARK    6  A    between atoms: O_6  and  C_7
REMARK    7  A    between atoms: C_10  and  C_11
REMARK    8  A    between atoms: C_11  and  C_12
REMARK    9  A    between atoms: C_11  and  C_13
REMARK   10  A    between atoms: C_11  and  C_14
REMARK   11  A    between atoms: C_14  and  N_15
REMARK   12  A    between atoms: N_15  and  C_16
REMARK   13  A    between atoms: C_19  and  C_20
REMARK                            x       y       z     vdW  Elec       q    Type
REMARK                         _______ _______ _______ _____ _____    ______ ____
ROOT
ATOM      1  C   UNL     1      43.868   4.623  12.152  0.00  0.00    +0.000 C 
ATOM      2  C   UNL     1      43.709   3.150  12.596  0.00  0.00    +0.000 C 
ATOM      3  C   UNL     1      42.818   5.477  12.903  0.00  0.00    +0.000 C 
ENDROOT
BRANCH   1   7
ATOM      4  C   UNL     1      47.877   6.089  13.152  0.00  0.00    +0.000 A 
ATOM      5  C   UNL     1      47.236   5.168  13.975  0.00  0.00    +0.000 A 
ATOM      6  C   UNL     1      45.962   4.695  13.657  0.00  0.00    +0.000 A 
ATOM      7  C   UNL     1      45.270   5.149  12.526  0.00  0.00    +0.000 A 
ATOM      8  C   UNL     1      45.927   6.092  11.711  0.00  0.00    +0.000 A 
ATOM      9  C   UNL     1      47.216   6.548  12.016  0.00  0.00    +0.000 A 
BRANCH   4  10
ATOM     10  O   UNL     1      49.136   6.591  13.356  0.00  0.00    +0.000 OA
BRANCH  10  11
ATOM     11  C   UNL     1      49.214   7.644  14.322  0.00  0.00    +0.000 C 
BRANCH  11  12
ATOM     12  C   UNL     1      50.234   7.283  15.406  0.00  0.00    +0.000 C 
BRANCH  12  14
ATOM     13  C   UNL     1      51.017   5.588  16.921  0.00  0.00    +0.000 C 
ATOM     14  N   UNL     1      49.844   6.113  16.221  0.00  0.00    +0.000 NA
ATOM     15  C   UNL     1      48.792   6.430  17.190  0.00  0.00    +0.000 C 
ENDBRANCH  12  14
ENDBRANCH  11  12
ENDBRANCH  10  11
ENDBRANCH   4  10
ENDBRANCH   1   7
BRANCH   1  16
ATOM     16  C   UNL     1      43.526   4.726  10.626  0.00  0.00    +0.000 C 
BRANCH  16  17
ATOM     17  N   UNL     1      43.713   3.452   9.928  0.00  0.00    +0.000 N 
ATOM     18  H   UNL     1      43.423   2.631  10.453  0.00  0.00    +0.000 HD
BRANCH  17  19
ATOM     19  C   UNL     1      44.799   3.223   9.090  0.00  0.00    +0.000 A 
ATOM     20  C   UNL     1      45.414   4.220   8.326  0.00  0.00    +0.000 A 
ATOM     21  C   UNL     1      46.408   3.906   7.392  0.00  0.00    +0.000 A 
ATOM     22  C   UNL     1      46.801   2.580   7.195  0.00  0.00    +0.000 A 
ATOM     23  C   UNL     1      46.196   1.570   7.946  0.00  0.00    +0.000 A 
ATOM     24  C   UNL     1      45.203   1.897   8.879  0.00  0.00    +0.000 A 
BRANCH  22  25
ATOM     25  C   UNL     1      47.807   2.288   6.141  0.00  0.00    +0.000 C 
ATOM     26  N   UNL     1      47.824   3.098   5.041  0.00  0.00    +0.000 N 
ATOM     27  O   UNL     1      48.579   1.340   6.233  0.00  0.00    +0.000 OA
ATOM     28  H   UNL     1      47.073   3.737   4.818  0.00  0.00    +0.000 HD
ATOM     29  H   UNL     1      48.456   2.829   4.298  0.00  0.00    +0.000 HD
ENDBRANCH  22  25
ENDBRANCH  17  19
ENDBRANCH  16  17
ENDBRANCH   1  16
TORSDOF 9
ENDMDL
MODEL 2
REMARK VINA RESULT:    -7.306      1.569      2.190
REMARK INTER + INTRA:         -12.434
REMARK INTER:                 -11.156
REMARK INTRA:                  -1.278
REMARK UNBOUND:                -1.284
REMARK  Name = 
REMARK  13 active torsions:
REMARK  status: ('A' for Active; 'I' for Inactive)
REMARK    1  A    between atoms: C_1  and  N_2
REMARK    2  A    between atoms: N_2  and  C_3
REMARK    3  A    between atoms: N_2  and  C_4
REMARK    4  A    between atoms: C_4  and  C_5
REMARK    5  A    between atoms: C_5  and  O_6
REMARK    6  A    between atoms: O_6  and  C_7
REMARK    7  A    between atoms: C_10  and  C_11
REMARK    8  A    between atoms: C_11  and  C_12
REMARK    9  A    between atoms: C_11  and  C_13
REMARK   10  A    between atoms: C_11  and  C_14
REMARK   11  A    between atoms: C_14  and  N_15
REMARK   12  A    between atoms: N_15  and  C_16
REMARK   13  A    between atoms: C_19  and  C_20
REMARK                            x       y       z     vdW  Elec       q    Type
REMARK                         _______ _______ _______ _____ _____    ______ ____
ROOT
ATOM      1  C   UNL     1      43.831   4.582  12.200  0.00  0.00    +0.000 C 
ATOM      2  C   UNL     1      43.679   3.162  12.792  0.00  0.00    +0.000 C 
ATOM      3  C   UNL     1      42.794   5.509  12.878  0.00  0.00    +0.000 C 
ENDROOT
BRANCH   1   7
ATOM      4  C   UNL     1      47.856   6.138  12.975  0.00  0.00    +0.000 A 
ATOM      5  C   UNL     1      47.259   5.248  13.863  0.00  0.00    +0.000 A 
ATOM      6  C   UNL     1      45.980   4.747  13.617  0.00  0.00    +0.000 A 
ATOM      7  C   UNL     1      45.239   5.140  12.494  0.00  0.00    +0.000 A 
ATOM      8  C   UNL     1      45.852   6.052  11.612  0.00  0.00    +0.000 A 
ATOM      9  C   UNL     1      47.146   6.536  11.846  0.00  0.00    +0.000 A 
BRANCH   4  10
ATOM     10  O   UNL     1      49.115   6.662  13.106  0.00  0.00    +0.000 OA
BRANCH  10  11
ATOM     11  C   UNL     1      49.185   7.875  13.864  0.00  0.00    +0.000 C 
BRANCH  11  12
ATOM     12  C   UNL     1      50.141   8.860  13.184  0.00  0.00    +0.000 C 
BRANCH  12  14
ATOM     13  C   UNL     1      49.921  10.445  11.389  0.00  0.00    +0.000 C 
ATOM     14  N   UNL     1      49.489  10.113  12.748  0.00  0.00    +0.000 NA
ATOM     15  C   UNL     1      48.027  10.031  12.796  0.00  0.00    +0.000 C 
ENDBRANCH  12  14
ENDBRANCH  11  12
ENDBRANCH  10  11
ENDBRANCH   4  10
ENDBRANCH   1   7
BRANCH   1  16
ATOM     16  C   UNL     1      43.462   4.532  10.677  0.00  0.00    +0.000 C 
BRANCH  16  17
ATOM     17  N   UNL     1      43.779   3.236  10.072  0.00  0.00    +0.000 N 
ATOM     18  H   UNL     1      43.637   2.434  10.681  0.00  0.00    +0.000 HD
BRANCH  17  19
ATOM     19  C   UNL     1      44.834   3.078   9.178  0.00  0.00    +0.000 A 
ATOM     20  C   UNL     1      45.328   4.106   8.371  0.00  0.00    +0.000 A 
ATOM     21  C   UNL     1      46.293   3.856   7.389  0.00  0.00    +0.000 A 
ATOM     22  C   UNL     1      46.775   2.560   7.185  0.00  0.00    +0.000 A 
ATOM     23  C   UNL     1      46.290   1.519   7.978  0.00  0.00    +0.000 A 
ATOM     24  C   UNL     1      45.326   1.783   8.960  0.00  0.00    +0.000 A 
BRANCH  22  25
ATOM     25  C   UNL     1      47.742   2.330   6.080  0.00  0.00    +0.000 C 
ATOM     26  N   UNL     1      47.694   3.177   5.010  0.00  0.00    +0.000 N 
ATOM     27  O   UNL     1      48.541   1.399   6.108  0.00  0.00    +0.000 OA
ATOM     28  H   UNL     1      46.919   3.803   4.840  0.00  0.00    +0.000 HD
ATOM     29  H   UNL     1      48.301   2.950   4.232  0.00  0.00    +0.000 HD
ENDBRANCH  22  25
ENDBRANCH  17  19
ENDBRANCH  16  17
ENDBRANCH   1  16
TORSDOF 9
ENDMDL
MODEL 3
REMARK VINA RESULT:    -6.925      1.575      2.206
REMARK INTER + INTRA:         -11.853
REMARK INTER:                 -10.755
REMARK INTRA:                  -1.098
REMARK UNBOUND:                -1.284
REMARK  Name = 
REMARK  13 active torsions:
REMARK  status: ('A' for Active; 'I' for Inactive)
REMARK    1  A    between atoms: C_1  and  N_2
REMARK    2  A    between atoms: N_2  and  C_3
REMARK    3  A    between atoms: N_2  and  C_4
REMARK    4  A    between atoms: C_4  and  C_5
REMARK    5  A    between atoms: C_5  and  O_6
REMARK    6  A    between atoms: O_6  and  C_7
REMARK    7  A    between atoms: C_10  and  C_11
REMARK    8  A    between atoms: C_11  and  C_12
REMARK    9  A    between atoms: C_11  and  C_13
REMARK   10  A    between atoms: C_11  and  C_14
REMARK   11  A    between atoms: C_14  and  N_15
REMARK   12  A    between atoms: N_15  and  C_16
REMARK   13  A    between atoms: C_19  and  C_20
REMARK                            x       y       z     vdW  Elec       q    Type
REMARK                         _______ _______ _______ _____ _____    ______ ____
ROOT
ATOM      1  C   UNL     1      44.298   4.922  12.178  0.00  0.00    +0.000 C 
ATOM      2  C   UNL     1      45.000   3.607  12.591  0.00  0.00    +0.000 C 
ATOM      3  C   UNL     1      43.172   5.217  13.198  0.00  0.00    +0.000 C 
ENDROOT
BRANCH   1   7
ATOM      4  C   UNL     1      47.094   8.298  12.224  0.00  0.00    +0.000 A 
ATOM      5  C   UNL     1      47.515   7.039  11.807  0.00  0.00    +0.000 A 
ATOM      6  C   UNL     1      46.626   5.963  11.787  0.00  0.00    +0.000 A 
ATOM      7  C   UNL     1      45.297   6.098  12.211  0.00  0.00    +0.000 A 
ATOM      8  C   UNL     1      44.891   7.377  12.642  0.00  0.00    +0.000 A 
ATOM      9  C   UNL     1      45.776   8.462  12.640  0.00  0.00    +0.000 A 
BRANCH   4  10
ATOM     10  O   UNL     1      47.876   9.424  12.251  0.00  0.00    +0.000 OA
BRANCH  10  11
ATOM     11  C   UNL     1      49.282   9.177  12.356  0.00  0.00    +0.000 C 
BRANCH  11  12
ATOM     12  C   UNL     1      49.866   9.975  13.526  0.00  0.00    +0.000 C 
BRANCH  12  14
ATOM     13  C   UNL     1      50.004   9.607  15.898  0.00  0.00    +0.000 C 
ATOM     14  N   UNL     1      50.449   9.129  14.588  0.00  0.00    +0.000 NA
ATOM     15  C   UNL     1      50.099   7.714  14.434  0.00  0.00    +0.000 C 
ENDBRANCH  12  14
ENDBRANCH  11  12
ENDBRANCH  10  11
ENDBRANCH   4  10
ENDBRANCH   1   7
BRANCH   1  16
ATOM     16  C   UNL     1      43.603   4.704  10.789  0.00  0.00    +0.000 C 
BRANCH  16  17
ATOM     17  N   UNL     1      43.751   3.330  10.305  0.00  0.00    +0.000 N 
ATOM     18  H   UNL     1      43.705   2.615  11.027  0.00  0.00    +0.000 HD
BRANCH  17  19
ATOM     19  C   UNL     1      44.603   3.007   9.254  0.00  0.00    +0.000 A 
ATOM     20  C   UNL     1      45.121   1.726   9.041  0.00  0.00    +0.000 A 
ATOM     21  C   UNL     1      46.086   1.490   8.054  0.00  0.00    +0.000 A 
ATOM     22  C   UNL     1      46.562   2.541   7.265  0.00  0.00    +0.000 A 
ATOM     23  C   UNL     1      46.059   3.828   7.465  0.00  0.00    +0.000 A 
ATOM     24  C   UNL     1      45.092   4.051   8.454  0.00  0.00    +0.000 A 
BRANCH  22  25
ATOM     25  C   UNL     1      47.639   2.256   6.282  0.00  0.00    +0.000 C 
ATOM     26  N   UNL     1      47.764   3.099   5.215  0.00  0.00    +0.000 N 
ATOM     27  O   UNL     1      48.377   1.283   6.401  0.00  0.00    +0.000 OA
ATOM     28  H   UNL     1      47.049   3.766   4.956  0.00  0.00    +0.000 HD
ATOM     29  H   UNL     1      48.445   2.837   4.514  0.00  0.00    +0.000 HD
ENDBRANCH  22  25
ENDBRANCH  17  19
ENDBRANCH  16  17
ENDBRANCH   1  16
TORSDOF 9
ENDMDL
MODEL 4
REMARK VINA RESULT:    -6.835      1.908      2.592
REMARK INTER + INTRA:         -11.714
REMARK INTER:                 -10.855
REMARK INTRA:                  -0.859
REMARK UNBOUND:                -1.284
REMARK  Name = 
REMARK  13 active torsions:
REMARK  status: ('A' for Active; 'I' for Inactive)
REMARK    1  A    between atoms: C_1  and  N_2
REMARK    2  A    between atoms: N_2  and  C_3
REMARK    3  A    between atoms: N_2  and  C_4
REMARK    4  A    between atoms: C_4  and  C_5
REMARK    5  A    between atoms: C_5  and  O_6
REMARK    6  A    between atoms: O_6  and  C_7
REMARK    7  A    between atoms: C_10  and  C_11
REMARK    8  A    between atoms: C_11  and  C_12
REMARK    9  A    between atoms: C_11  and  C_13
REMARK   10  A    between atoms: C_11  and  C_14
REMARK   11  A    between atoms: C_14  and  N_15
REMARK   12  A    between atoms: N_15  and  C_16
REMARK   13  A    between atoms: C_19  and  C_20
REMARK                            x       y       z     vdW  Elec       q    Type
REMARK                         _______ _______ _______ _____ _____    ______ ____
ROOT
ATOM      1  C   UNL     1      44.141   4.807  12.263  0.00  0.00    +0.000 C 
ATOM      2  C   UNL     1      44.525   3.326  12.488  0.00  0.00    +0.000 C 
ATOM      3  C   UNL     1      42.934   5.143  13.171  0.00  0.00    +0.000 C 
ENDROOT
BRANCH   1   7
ATOM      4  C   UNL     1      47.452   7.422  13.454  0.00  0.00    +0.000 A 
ATOM      5  C   UNL     1      46.369   7.932  12.745  0.00  0.00    +0.000 A 
ATOM      6  C   UNL     1      45.311   7.104  12.368  0.00  0.00    +0.000 A 
ATOM      7  C   UNL     1      45.312   5.732  12.658  0.00  0.00    +0.000 A 
ATOM      8  C   UNL     1      46.422   5.229  13.364  0.00  0.00    +0.000 A 
ATOM      9  C   UNL     1      47.473   6.065  13.764  0.00  0.00    +0.000 A 
BRANCH   4  10
ATOM     10  O   UNL     1      48.523   8.153  13.897  0.00  0.00    +0.000 OA
BRANCH  10  11
ATOM     11  C   UNL     1      49.244   8.846  12.872  0.00  0.00    +0.000 C 
BRANCH  11  12
ATOM     12  C   UNL     1      50.538   8.094  12.545  0.00  0.00    +0.000 C 
BRANCH  12  14
ATOM     13  C   UNL     1      52.384   9.361  11.671  0.00  0.00    +0.000 C 
ATOM     14  N   UNL     1      51.205   8.570  11.315  0.00  0.00    +0.000 NA
ATOM     15  C   UNL     1      51.597   7.471  10.429  0.00  0.00    +0.000 C 
ENDBRANCH  12  14
ENDBRANCH  11  12
ENDBRANCH  10  11
ENDBRANCH   4  10
ENDBRANCH   1   7
BRANCH   1  16
ATOM     16  C   UNL     1      43.654   4.978  10.783  0.00  0.00    +0.000 C 
BRANCH  16  17
ATOM     17  N   UNL     1      43.721   3.725  10.028  0.00  0.00    +0.000 N 
ATOM     18  H   UNL     1      43.340   2.915  10.511  0.00  0.00    +0.000 HD
BRANCH  17  19
ATOM     19  C   UNL     1      44.791   3.424   9.192  0.00  0.00    +0.000 A 
ATOM     20  C   UNL     1      45.455   4.372   8.409  0.00  0.00    +0.000 A 
ATOM     21  C   UNL     1      46.429   3.990   7.479  0.00  0.00    +0.000 A 
ATOM     22  C   UNL     1      46.750   2.641   7.305  0.00  0.00    +0.000 A 
ATOM     23  C   UNL     1      46.094   1.679   8.075  0.00  0.00    +0.000 A 
ATOM     24  C   UNL     1      45.123   2.074   9.004  0.00  0.00    +0.000 A 
BRANCH  22  25
ATOM     25  C   UNL     1      47.736   2.278   6.254  0.00  0.00    +0.000 C 
ATOM     26  N   UNL     1      47.815   3.084   5.154  0.00  0.00    +0.000 N 
ATOM     27  O   UNL     1      48.438   1.277   6.349  0.00  0.00    +0.000 OA
ATOM     28  H   UNL     1      47.112   3.775   4.928  0.00  0.00    +0.000 HD
ATOM     29  H   UNL     1      48.428   2.770   4.413  0.00  0.00    +0.000 HD
ENDBRANCH  22  25
ENDBRANCH  17  19
ENDBRANCH  16  17
ENDBRANCH   1  16
TORSDOF 9
ENDMDL
MODEL 5
REMARK VINA RESULT:    -5.998      3.227      8.139
REMARK INTER + INTRA:         -10.438
REMARK INTER:                  -8.855
REMARK INTRA:                  -1.583
REMARK UNBOUND:                -1.284
REMARK  Name = 
REMARK  13 active torsions:
REMARK  status: ('A' for Active; 'I' for Inactive)
REMARK    1  A    between atoms: C_1  and  N_2
REMARK    2  A    between atoms: N_2  and  C_3
REMARK    3  A    between atoms: N_2  and  C_4
REMARK    4  A    between atoms: C_4  and  C_5
REMARK    5  A    between atoms: C_5  and  O_6
REMARK    6  A    between atoms: O_6  and  C_7
REMARK    7  A    between atoms: C_10  and  C_11
REMARK    8  A    between atoms: C_11  and  C_12
REMARK    9  A    between atoms: C_11  and  C_13
REMARK   10  A    between atoms: C_11  and  C_14
REMARK   11  A    between atoms: C_14  and  N_15
REMARK   12  A    between atoms: N_15  and  C_16
REMARK   13  A    between atoms: C_19  and  C_20
REMARK                            x       y       z     vdW  Elec       q    Type
REMARK                         _______ _______ _______ _____ _____    ______ ____
ROOT
ATOM      1  C   UNL     1      49.106   8.678  12.601  0.00  0.00    +0.000 C 
ATOM      2  C   UNL     1      50.207   7.872  11.873  0.00  0.00    +0.000 C 
ATOM      3  C   UNL     1      49.134  10.133  12.072  0.00  0.00    +0.000 C 
ENDROOT
BRANCH   1   7
ATOM      4  C   UNL     1      45.145   6.974  11.814  0.00  0.00    +0.000 A 
ATOM      5  C   UNL     1      46.284   6.401  11.256  0.00  0.00    +0.000 A 
ATOM      6  C   UNL     1      47.547   6.938  11.508  0.00  0.00    +0.000 A 
ATOM      7  C   UNL     1      47.715   8.083  12.299  0.00  0.00    +0.000 A 
ATOM      8  C   UNL     1      46.551   8.658  12.846  0.00  0.00    +0.000 A 
ATOM      9  C   UNL     1      45.285   8.105  12.613  0.00  0.00    +0.000 A 
BRANCH   4  10
ATOM     10  O   UNL     1      43.866   6.507  11.657  0.00  0.00    +0.000 OA
BRANCH  10  11
ATOM     11  C   UNL     1      43.530   5.385  12.480  0.00  0.00    +0.000 C 
BRANCH  11  12
ATOM     12  C   UNL     1      42.968   4.253  11.615  0.00  0.00    +0.000 C 
BRANCH  12  14
ATOM     13  C   UNL     1      44.384   3.146  10.018  0.00  0.00    +0.000 C 
ATOM     14  N   UNL     1      43.917   3.139  11.406  0.00  0.00    +0.000 NA
ATOM     15  C   UNL     1      45.065   3.203  12.314  0.00  0.00    +0.000 C 
ENDBRANCH  12  14
ENDBRANCH  11  12
ENDBRANCH  10  11
ENDBRANCH   4  10
ENDBRANCH   1   7
BRANCH   1  16
ATOM     16  C   UNL     1      49.463   8.747  14.126  0.00  0.00    +0.000 C 
BRANCH  16  17
ATOM     17  N   UNL     1      50.115   7.524  14.599  0.00  0.00    +0.000 N 
ATOM     18  H   UNL     1      50.713   7.066  13.915  0.00  0.00    +0.000 HD
BRANCH  17  19
ATOM     19  C   UNL     1      49.485   6.640  15.468  0.00  0.00    +0.000 A 
ATOM     20  C   UNL     1      50.069   6.156  16.642  0.00  0.00    +0.000 A 
ATOM     21  C   UNL     1      49.447   5.159  17.402  0.00  0.00    +0.000 A 
ATOM     22  C   UNL     1      48.226   4.615  16.993  0.00  0.00    +0.000 A 
ATOM     23  C   UNL     1      47.629   5.083  15.821  0.00  0.00    +0.000 A 
ATOM     24  C   UNL     1      48.260   6.083  15.070  0.00  0.00    +0.000 A 
BRANCH  22  25
ATOM     25  C   UNL     1      47.642   3.506  17.792  0.00  0.00    +0.000 C 
ATOM     26  N   UNL     1      48.298   3.131  18.929  0.00  0.00    +0.000 N 
ATOM     27  O   UNL     1      46.622   2.925  17.436  0.00  0.00    +0.000 OA
ATOM     28  H   UNL     1      49.245   3.418  19.137  0.00  0.00    +0.000 HD
ATOM     29  H   UNL     1      47.932   2.319  19.409  0.00  0.00    +0.000 HD
ENDBRANCH  22  25
ENDBRANCH  17  19
ENDBRANCH  16  17
ENDBRANCH   1  16
TORSDOF 9
ENDMDL
MODEL 6
REMARK VINA RESULT:    -5.782      2.848      8.544
REMARK INTER + INTRA:         -10.108
REMARK INTER:                  -8.579
REMARK INTRA:                  -1.528
REMARK UNBOUND:                -1.284
REMARK  Name = 
REMARK  13 active torsions:
REMARK  status: ('A' for Active; 'I' for Inactive)
REMARK    1  A    between atoms: C_1  and  N_2
REMARK    2  A    between atoms: N_2  and  C_3
REMARK    3  A    between atoms: N_2  and  C_4
REMARK    4  A    between atoms: C_4  and  C_5
REMARK    5  A    between atoms: C_5  and  O_6
REMARK    6  A    between atoms: O_6  and  C_7
REMARK    7  A    between atoms: C_10  and  C_11
REMARK    8  A    between atoms: C_11  and  C_12
REMARK    9  A    between atoms: C_11  and  C_13
REMARK   10  A    between atoms: C_11  and  C_14
REMARK   11  A    between atoms: C_14  and  N_15
REMARK   12  A    between atoms: N_15  and  C_16
REMARK   13  A    between atoms: C_19  and  C_20
REMARK                            x       y       z     vdW  Elec       q    Type
REMARK                         _______ _______ _______ _____ _____    ______ ____
ROOT
ATOM      1  C   UNL     1      48.124   8.258  12.791  0.00  0.00    +0.000 C 
ATOM      2  C   UNL     1      49.417   7.772  12.097  0.00  0.00    +0.000 C 
ATOM      3  C   UNL     1      47.493   9.375  11.925  0.00  0.00    +0.000 C 
ENDROOT
BRANCH   1   7
ATOM      4  C   UNL     1      45.200   5.013  13.163  0.00  0.00    +0.000 A 
ATOM      5  C   UNL     1      46.553   4.772  13.379  0.00  0.00    +0.000 A 
ATOM      6  C   UNL     1      47.486   5.804  13.266  0.00  0.00    +0.000 A 
ATOM      7  C   UNL     1      47.106   7.104  12.903  0.00  0.00    +0.000 A 
ATOM      8  C   UNL     1      45.734   7.327  12.675  0.00  0.00    +0.000 A 
ATOM      9  C   UNL     1      44.794   6.298  12.812  0.00  0.00    +0.000 A 
BRANCH   4  10
ATOM     10  O   UNL     1      44.202   4.081  13.279  0.00  0.00    +0.000 OA
BRANCH  10  11
ATOM     11  C   UNL     1      43.386   3.926  12.113  0.00  0.00    +0.000 C 
BRANCH  11  12
ATOM     12  C   UNL     1      43.857   2.714  11.303  0.00  0.00    +0.000 C 
BRANCH  12  14
ATOM     13  C   UNL     1      44.334   4.358   9.615  0.00  0.00    +0.000 C 
ATOM     14  N   UNL     1      43.939   2.968   9.850  0.00  0.00    +0.000 NA
ATOM     15  C   UNL     1      44.878   2.067   9.176  0.00  0.00    +0.000 C 
ENDBRANCH  12  14
ENDBRANCH  11  12
ENDBRANCH  10  11
ENDBRANCH   4  10
ENDBRANCH   1   7
BRANCH   1  16
ATOM     16  C   UNL     1      48.509   8.915  14.162  0.00  0.00    +0.000 C 
BRANCH  16  17
ATOM     17  N   UNL     1      49.802   8.442  14.660  0.00  0.00    +0.000 N 
ATOM     18  H   UNL     1      50.529   8.361  13.952  0.00  0.00    +0.000 HD
BRANCH  17  19
ATOM     19  C   UNL     1      49.901   7.493  15.672  0.00  0.00    +0.000 A 
ATOM     20  C   UNL     1      51.074   6.792  15.966  0.00  0.00    +0.000 A 
ATOM     21  C   UNL     1      51.079   5.747  16.897  0.00  0.00    +0.000 A 
ATOM     22  C   UNL     1      49.899   5.373  17.547  0.00  0.00    +0.000 A 
ATOM     23  C   UNL     1      48.717   6.059  17.263  0.00  0.00    +0.000 A 
ATOM     24  C   UNL     1      48.725   7.105  16.331  0.00  0.00    +0.000 A 
BRANCH  22  25
ATOM     25  C   UNL     1      49.938   4.210  18.471  0.00  0.00    +0.000 C 
ATOM     26  N   UNL     1      51.153   3.637  18.718  0.00  0.00    +0.000 N 
ATOM     27  O   UNL     1      48.917   3.755  18.976  0.00  0.00    +0.000 OA
ATOM     28  H   UNL     1      51.973   3.827  18.158  0.00  0.00    +0.000 HD
ATOM     29  H   UNL     1      51.145   2.795  19.278  0.00  0.00    +0.000 HD
ENDBRANCH  22  25
ENDBRANCH  17  19
ENDBRANCH  16  17
ENDBRANCH   1  16
TORSDOF 9
ENDMDL
MODEL 7
REMARK VINA RESULT:    -5.249      3.399      5.718
REMARK INTER + INTRA:          -9.295
REMARK INTER:                  -7.949
REMARK INTRA:                  -1.346
REMARK UNBOUND:                -1.284
REMARK  Name = 
REMARK  13 active torsions:
REMARK  status: ('A' for Active; 'I' for Inactive)
REMARK    1  A    between atoms: C_1  and  N_2
REMARK    2  A    between atoms: N_2  and  C_3
REMARK    3  A    between atoms: N_2  and  C_4
REMARK    4  A    between atoms: C_4  and  C_5
REMARK    5  A    between atoms: C_5  and  O_6
REMARK    6  A    between atoms: O_6  and  C_7
REMARK    7  A    between atoms: C_10  and  C_11
REMARK    8  A    between atoms: C_11  and  C_12
REMARK    9  A    between atoms: C_11  and  C_13
REMARK   10  A    between atoms: C_11  and  C_14
REMARK   11  A    between atoms: C_14  and  N_15
REMARK   12  A    between atoms: N_15  and  C_16
REMARK   13  A    between atoms: C_19  and  C_20
REMARK                            x       y       z     vdW  Elec       q    Type
REMARK                         _______ _______ _______ _____ _____    ______ ____
ROOT
ATOM      1  C   UNL     1      48.883   9.269  13.277  0.00  0.00    +0.000 C 
ATOM      2  C   UNL     1      48.904  10.798  13.507  0.00  0.00    +0.000 C 
ATOM      3  C   UNL     1      50.056   8.899  12.339  0.00  0.00    +0.000 C 
ENDROOT
BRANCH   1   7
ATOM      4  C   UNL     1      49.419   7.084  17.039  0.00  0.00    +0.000 A 
ATOM      5  C   UNL     1      48.560   8.177  16.974  0.00  0.00    +0.000 A 
ATOM      6  C   UNL     1      48.383   8.871  15.776  0.00  0.00    +0.000 A 
ATOM      7  C   UNL     1      49.081   8.521  14.612  0.00  0.00    +0.000 A 
ATOM      8  C   UNL     1      49.957   7.421  14.700  0.00  0.00    +0.000 A 
ATOM      9  C   UNL     1      50.116   6.708  15.895  0.00  0.00    +0.000 A 
BRANCH   4  10
ATOM     10  O   UNL     1      49.639   6.316  18.154  0.00  0.00    +0.000 OA
BRANCH  10  11
ATOM     11  C   UNL     1      48.516   5.536  18.577  0.00  0.00    +0.000 C 
BRANCH  11  12
ATOM     12  C   UNL     1      48.888   4.050  18.587  0.00  0.00    +0.000 C 
BRANCH  12  14
ATOM     13  C   UNL     1      50.626   2.847  17.441  0.00  0.00    +0.000 C 
ATOM     14  N   UNL     1      49.350   3.545  17.277  0.00  0.00    +0.000 NA
ATOM     15  C   UNL     1      48.376   2.651  16.645  0.00  0.00    +0.000 C 
ENDBRANCH  12  14
ENDBRANCH  11  12
ENDBRANCH  10  11
ENDBRANCH   4  10
ENDBRANCH   1   7
BRANCH   1  16
ATOM     16  C   UNL     1      47.563   8.896  12.517  0.00  0.00    +0.000 C 
BRANCH  16  17
ATOM     17  N   UNL     1      47.678   7.626  11.797  0.00  0.00    +0.000 N 
ATOM     18  H   UNL     1      48.067   7.700  10.860  0.00  0.00    +0.000 HD
BRANCH  17  19
ATOM     19  C   UNL     1      46.733   6.615  11.929  0.00  0.00    +0.000 A 
ATOM     20  C   UNL     1      46.525   5.895  13.109  0.00  0.00    +0.000 A 
ATOM     21  C   UNL     1      45.663   4.793  13.143  0.00  0.00    +0.000 A 
ATOM     22  C   UNL     1      44.996   4.380  11.986  0.00  0.00    +0.000 A 
ATOM     23  C   UNL     1      45.194   5.083  10.797  0.00  0.00    +0.000 A 
ATOM     24  C   UNL     1      46.058   6.186  10.776  0.00  0.00    +0.000 A 
BRANCH  22  25
ATOM     25  C   UNL     1      44.150   3.160  12.055  0.00  0.00    +0.000 C 
ATOM     26  N   UNL     1      44.030   2.407  10.921  0.00  0.00    +0.000 N 
ATOM     27  O   UNL     1      43.554   2.848  13.080  0.00  0.00    +0.000 OA
ATOM     28  H   UNL     1      44.310   2.741  10.009  0.00  0.00    +0.000 HD
ATOM     29  H   UNL     1      43.381   1.632  10.966  0.00  0.00    +0.000 HD
ENDBRANCH  22  25
ENDBRANCH  17  19
ENDBRANCH  16  17
ENDBRANCH   1  16
TORSDOF 9
ENDMDL
MODEL 8
REMARK VINA RESULT:    -5.022      3.296      5.700
REMARK INTER + INTRA:          -8.948
REMARK INTER:                  -8.012
REMARK INTRA:                  -0.936
REMARK UNBOUND:                -1.284
REMARK  Name = 
REMARK  13 active torsions:
REMARK  status: ('A' for Active; 'I' for Inactive)
REMARK    1  A    between atoms: C_1  and  N_2
REMARK    2  A    between atoms: N_2  and  C_3
REMARK    3  A    between atoms: N_2  and  C_4
REMARK    4  A    between atoms: C_4  and  C_5
REMARK    5  A    between atoms: C_5  and  O_6
REMARK    6  A    between atoms: O_6  and  C_7
REMARK    7  A    between atoms: C_10  and  C_11
REMARK    8  A    between atoms: C_11  and  C_12
REMARK    9  A    between atoms: C_11  and  C_13
REMARK   10  A    between atoms: C_11  and  C_14
REMARK   11  A    between atoms: C_14  and  N_15
REMARK   12  A    between atoms: N_15  and  C_16
REMARK   13  A    between atoms: C_19  and  C_20
REMARK                            x       y       z     vdW  Elec       q    Type
REMARK                         _______ _______ _______ _____ _____    ______ ____
ROOT
ATOM      1  C   UNL     1      48.887   8.038  14.226  0.00  0.00    +0.000 C 
ATOM      2  C   UNL     1      49.166   9.525  14.547  0.00  0.00    +0.000 C 
ATOM      3  C   UNL     1      49.831   7.599  13.081  0.00  0.00    +0.000 C 
ENDROOT
BRANCH   1   7
ATOM      4  C   UNL     1      49.794   5.518  17.697  0.00  0.00    +0.000 A 
ATOM      5  C   UNL     1      48.712   5.223  16.874  0.00  0.00    +0.000 A 
ATOM      6  C   UNL     1      48.423   6.020  15.766  0.00  0.00    +0.000 A 
ATOM      7  C   UNL     1      49.184   7.157  15.458  0.00  0.00    +0.000 A 
ATOM      8  C   UNL     1      50.268   7.449  16.309  0.00  0.00    +0.000 A 
ATOM      9  C   UNL     1      50.573   6.635  17.408  0.00  0.00    +0.000 A 
BRANCH   4  10
ATOM     10  O   UNL     1      50.182   4.784  18.788  0.00  0.00    +0.000 OA
BRANCH  10  11
ATOM     11  C   UNL     1      51.510   4.253  18.713  0.00  0.00    +0.000 C 
BRANCH  11  12
ATOM     12  C   UNL     1      51.628   3.315  17.507  0.00  0.00    +0.000 C 
BRANCH  12  14
ATOM     13  C   UNL     1      53.436   2.521  18.880  0.00  0.00    +0.000 C 
ATOM     14  N   UNL     1      52.642   2.253  17.680  0.00  0.00    +0.000 NA
ATOM     15  C   UNL     1      52.045   0.918  17.771  0.00  0.00    +0.000 C 
ENDBRANCH  12  14
ENDBRANCH  11  12
ENDBRANCH  10  11
ENDBRANCH   4  10
ENDBRANCH   1   7
BRANCH   1  16
ATOM     16  C   UNL     1      47.423   7.910  13.679  0.00  0.00    +0.000 C 
BRANCH  16  17
ATOM     17  N   UNL     1      47.373   7.228  12.383  0.00  0.00    +0.000 N 
ATOM     18  H   UNL     1      47.558   7.824  11.580  0.00  0.00    +0.000 HD
BRANCH  17  19
ATOM     19  C   UNL     1      46.467   6.206  12.122  0.00  0.00    +0.000 A 
ATOM     20  C   UNL     1      46.262   5.115  12.972  0.00  0.00    +0.000 A 
ATOM     21  C   UNL     1      45.445   4.044  12.591  0.00  0.00    +0.000 A 
ATOM     22  C   UNL     1      44.823   4.039  11.339  0.00  0.00    +0.000 A 
ATOM     23  C   UNL     1      45.019   5.118  10.476  0.00  0.00    +0.000 A 
ATOM     24  C   UNL     1      45.837   6.185  10.869  0.00  0.00    +0.000 A 
BRANCH  22  25
ATOM     25  C   UNL     1      44.026   2.846  10.950  0.00  0.00    +0.000 C 
ATOM     26  N   UNL     1      44.456   2.119   9.877  0.00  0.00    +0.000 N 
ATOM     27  O   UNL     1      43.001   2.535  11.548  0.00  0.00    +0.000 OA
ATOM     28  H   UNL     1      45.150   2.460   9.226  0.00  0.00    +0.000 HD
ATOM     29  H   UNL     1      43.852   1.365   9.577  0.00  0.00    +0.000 HD
ENDBRANCH  22  25
ENDBRANCH  17  19
ENDBRANCH  16  17
ENDBRANCH   1  16
TORSDOF 9
ENDMDL
MODEL 9
REMARK VINA RESULT:    -4.825      4.076      6.916
REMARK INTER + INTRA:          -8.647
REMARK INTER:                  -6.960
REMARK INTRA:                  -1.687
REMARK UNBOUND:                -1.284
REMARK  Name = 
REMARK  13 active torsions:
REMARK  status: ('A' for Active; 'I' for Inactive)
REMARK    1  A    between atoms: C_1  and  N_2
REMARK    2  A    between atoms: N_2  and  C_3
REMARK    3  A    between atoms: N_2  and  C_4
REMARK    4  A    between atoms: C_4  and  C_5
REMARK    5  A    between atoms: C_5  and  O_6
REMARK    6  A    between atoms: O_6  and  C_7
REMARK    7  A    between atoms: C_10  and  C_11
REMARK    8  A    between atoms: C_11  and  C_12
REMARK    9  A    between atoms: C_11  and  C_13
REMARK   10  A    between atoms: C_11  and  C_14
REMARK   11  A    between atoms: C_14  and  N_15
REMARK   12  A    between atoms: N_15  and  C_16
REMARK   13  A    between atoms: C_19  and  C_20
REMARK                            x       y       z     vdW  Elec       q    Type
REMARK                         _______ _______ _______ _____ _____    ______ ____
ROOT
ATOM      1  C   UNL     1      45.592   5.489  12.364  0.00  0.00    +0.000 C 
ATOM      2  C   UNL     1      44.168   5.626  12.953  0.00  0.00    +0.000 C 
ATOM      3  C   UNL     1      45.471   4.998  10.901  0.00  0.00    +0.000 C 
ENDROOT
BRANCH   1   7
ATOM      4  C   UNL     1      47.568   9.401  12.287  0.00  0.00    +0.000 A 
ATOM      5  C   UNL     1      48.265   8.251  11.930  0.00  0.00    +0.000 A 
ATOM      6  C   UNL     1      47.637   7.005  11.949  0.00  0.00    +0.000 A 
ATOM      7  C   UNL     1      46.304   6.858  12.354  0.00  0.00    +0.000 A 
ATOM      8  C   UNL     1      45.617   8.031  12.725  0.00  0.00    +0.000 A 
ATOM      9  C   UNL     1      46.239   9.286  12.683  0.00  0.00    +0.000 A 
BRANCH   4  10
ATOM     10  O   UNL     1      48.079  10.673  12.272  0.00  0.00    +0.000 OA
BRANCH  10  11
ATOM     11  C   UNL     1      49.507  10.746  12.184  0.00  0.00    +0.000 C 
BRANCH  11  12
ATOM     12  C   UNL     1      50.094  11.131  13.545  0.00  0.00    +0.000 C 
BRANCH  12  14
ATOM     13  C   UNL     1      50.226   9.232  15.014  0.00  0.00    +0.000 C 
ATOM     14  N   UNL     1      50.988  10.103  14.117  0.00  0.00    +0.000 NA
ATOM     15  C   UNL     1      51.646   9.296  13.087  0.00  0.00    +0.000 C 
ENDBRANCH  12  14
ENDBRANCH  11  12
ENDBRANCH  10  11
ENDBRANCH   4  10
ENDBRANCH   1   7
BRANCH   1  16
ATOM     16  C   UNL     1      46.355   4.370  13.153  0.00  0.00    +0.000 C 
BRANCH  16  17
ATOM     17  N   UNL     1      46.111   4.444  14.595  0.00  0.00    +0.000 N 
ATOM     18  H   UNL     1      45.235   4.888  14.859  0.00  0.00    +0.000 HD
BRANCH  17  19
ATOM     19  C   UNL     1      47.140   4.657  15.507  0.00  0.00    +0.000 A 
ATOM     20  C   UNL     1      47.961   5.788  15.500  0.00  0.00    +0.000 A 
ATOM     21  C   UNL     1      49.070   5.883  16.348  0.00  0.00    +0.000 A 
ATOM     22  C   UNL     1      49.388   4.836  17.217  0.00  0.00    +0.000 A 
ATOM     23  C   UNL     1      48.582   3.696  17.236  0.00  0.00    +0.000 A 
ATOM     24  C   UNL     1      47.473   3.614  16.384  0.00  0.00    +0.000 A 
BRANCH  22  25
ATOM     25  C   UNL     1      50.617   4.951  18.044  0.00  0.00    +0.000 C 
ATOM     26  N   UNL     1      50.827   4.001  19.004  0.00  0.00    +0.000 N 
ATOM     27  O   UNL     1      51.407   5.877  17.897  0.00  0.00    +0.000 OA
ATOM     28  H   UNL     1      50.106   3.363  19.311  0.00  0.00    +0.000 HD
ATOM     29  H   UNL     1      51.623   4.148  19.612  0.00  0.00    +0.000 HD
ENDBRANCH  22  25
ENDBRANCH  17  19
ENDBRANCH  16  17
ENDBRANCH   1  16
TORSDOF 9
ENDMDL
