MODEL 1
REMARK VINA RESULT:    -8.287      0.000      0.000
REMARK INTER + INTRA:         -11.970
REMARK INTER:                 -10.709
REMARK INTRA:                  -1.261
REMARK UNBOUND:                -1.261
REMARK  Name = 
REMARK  5 active torsions:
REMARK  status: ('A' for Active; 'I' for Inactive)
REMARK    1  A    between atoms: C_2  and  C_3
REMARK    2  A    between atoms: C_6  and  N_7
REMARK    3  A    between atoms: N_7  and  C_8
REMARK    4  A    between atoms: C_8  and  C_9
REMARK    5  A    between atoms: C_13  and  C_14
REMARK                            x       y       z     vdW  Elec       q    Type
REMARK                         _______ _______ _______ _____ _____    ______ ____
ROOT
ATOM      1  C   UNL     1      43.764   5.059  11.279  0.00  0.00    +0.000 C 
ATOM      2  C   UNL     1      42.366   5.333  11.837  0.00  0.00    +0.000 C 
ATOM      3  C   UNL     1      43.038   6.370  11.012  0.00  0.00    +0.000 C 
ENDROOT
BRANCH   1   4
ATOM      4  C   UNL     1      44.984   5.234  12.172  0.00  0.00    +0.000 A 
ATOM      5  C   UNL     1      45.434   4.176  12.975  0.00  0.00    +0.000 A 
ATOM      6  C   UNL     1      46.689   4.218  13.572  0.00  0.00    +0.000 A 
ATOM      7  C   UNL     1      47.514   5.327  13.374  0.00  0.00    +0.000 A 
ATOM      8  C   UNL     1      47.076   6.437  12.633  0.00  0.00    +0.000 A 
ATOM      9  C   UNL     1      45.780   6.388  12.097  0.00  0.00    +0.000 A 
BRANCH   8  10
ATOM     10  C   UNL     1      47.972   7.559  12.289  0.00  0.00    +0.000 A 
ATOM     11  C   UNL     1      49.319   7.318  11.967  0.00  0.00    +0.000 A 
ATOM     12  C   UNL     1      50.162   8.351  11.549  0.00  0.00    +0.000 A 
ATOM     13  C   UNL     1      49.665   9.645  11.438  0.00  0.00    +0.000 A 
ATOM     14 CL   UNL     1      50.696  10.913  10.903  0.00  0.00    +0.000 Cl
ATOM     15  C   UNL     1      48.336   9.915  11.746  0.00  0.00    +0.000 A 
ATOM     16  C   UNL     1      47.497   8.879  12.175  0.00  0.00    +0.000 A 
ENDBRANCH   8  10
ENDBRANCH   1   4
BRANCH   1  17
ATOM     17  N   UNL     1      43.845   3.872  10.425  0.00  0.00    +0.000 N 
ATOM     18  H   UNL     1      43.226   3.104  10.675  0.00  0.00    +0.000 HD
BRANCH  17  22
ATOM     19  C   UNL     1      46.598   2.577   7.591  0.00  0.00    +0.000 A 
ATOM     20  C   UNL     1      46.381   3.944   7.691  0.00  0.00    +0.000 A 
ATOM     21  C   UNL     1      45.494   4.411   8.663  0.00  0.00    +0.000 A 
ATOM     22  C   UNL     1      44.844   3.520   9.512  0.00  0.00    +0.000 A 
ATOM     23  C   UNL     1      45.149   2.165   9.324  0.00  0.00    +0.000 A 
ATOM     24  N   UNL     1      46.002   1.671   8.396  0.00  0.00    +0.000 NA
BRANCH  19  26
ATOM     25  N   UNL     1      48.247   1.653   5.810  0.00  0.00    +0.000 NA
ATOM     26  C   UNL     1      47.482   2.038   6.597  0.00  0.00    +0.000 C 
ENDBRANCH  19  26
ENDBRANCH  17  22
ENDBRANCH   1  17
TORSDOF 5
ENDMDL
MODEL 2
REMARK VINA RESULT:    -8.197      2.881      4.170
REMARK INTER + INTRA:         -11.854
REMARK INTER:                 -11.328
REMARK INTRA:                  -0.527
REMARK UNBOUND:                -1.261
REMARK  Name = 
REMARK  5 active torsions:
REMARK  status: ('A' for Active; 'I' for Inactive)
REMARK    1  A    between atoms: C_2  and  C_3
REMARK    2  A    between atoms: C_6  and  N_7
REMARK    3  A    between atoms: N_7  and  C_8
REMARK    4  A    between atoms: C_8  and  C_9
REMARK    5  A    between atoms: C_13  and  C_14
REMARK                            x       y       z     vdW  Elec       q    Type
REMARK                         _______ _______ _______ _____ _____    ______ ____
ROOT
ATOM      1  C   UNL     1      44.120   4.760  11.586  0.00  0.00    +0.000 C 
ATOM      2  C   UNL     1      43.425   3.649  12.376  0.00  0.00    +0.000 C 
ATOM      3  C   UNL     1      43.036   5.063  12.610  0.00  0.00    +0.000 C 
ENDROOT
BRANCH   1   4
ATOM      4  C   UNL     1      45.493   5.253  12.018  0.00  0.00    +0.000 A 
ATOM      5  C   UNL     1      46.108   6.320  11.348  0.00  0.00    +0.000 A 
ATOM      6  C   UNL     1      47.214   6.962  11.893  0.00  0.00    +0.000 A 
ATOM      7  C   UNL     1      47.723   6.540  13.123  0.00  0.00    +0.000 A 
ATOM      8  C   UNL     1      47.179   5.434  13.795  0.00  0.00    +0.000 A 
ATOM      9  C   UNL     1      46.104   4.770  13.186  0.00  0.00    +0.000 A 
BRANCH   8  10
ATOM     10  C   UNL     1      47.603   5.052  15.157  0.00  0.00    +0.000 A 
ATOM     11  C   UNL     1      48.438   5.901  15.905  0.00  0.00    +0.000 A 
ATOM     12  C   UNL     1      48.777   5.606  17.228  0.00  0.00    +0.000 A 
ATOM     13  C   UNL     1      48.276   4.456  17.828  0.00  0.00    +0.000 A 
ATOM     14 CL   UNL     1      48.674   4.104  19.464  0.00  0.00    +0.000 Cl
ATOM     15  C   UNL     1      47.444   3.598  17.116  0.00  0.00    +0.000 A 
ATOM     16  C   UNL     1      47.116   3.892  15.788  0.00  0.00    +0.000 A 
ENDBRANCH   8  10
ENDBRANCH   1   4
BRANCH   1  17
ATOM     17  N   UNL     1      43.988   4.631  10.133  0.00  0.00    +0.000 N 
ATOM     18  H   UNL     1      43.104   4.942   9.738  0.00  0.00    +0.000 HD
BRANCH  17  22
ATOM     19  C   UNL     1      46.563   2.602   7.575  0.00  0.00    +0.000 A 
ATOM     20  C   UNL     1      45.830   1.843   8.475  0.00  0.00    +0.000 A 
ATOM     21  C   UNL     1      44.925   2.493   9.317  0.00  0.00    +0.000 A 
ATOM     22  C   UNL     1      44.766   3.874   9.250  0.00  0.00    +0.000 A 
ATOM     23  C   UNL     1      45.553   4.533   8.298  0.00  0.00    +0.000 A 
ATOM     24  N   UNL     1      46.440   3.942   7.461  0.00  0.00    +0.000 NA
BRANCH  19  26
ATOM     25  N   UNL     1      48.344   1.557   6.000  0.00  0.00    +0.000 NA
ATOM     26  C   UNL     1      47.523   1.992   6.699  0.00  0.00    +0.000 C 
ENDBRANCH  19  26
ENDBRANCH  17  22
ENDBRANCH   1  17
TORSDOF 5
ENDMDL
MODEL 3
REMARK VINA RESULT:    -7.276      1.605      2.486
REMARK INTER + INTRA:         -10.664
REMARK INTER:                 -10.189
REMARK INTRA:                  -0.475
REMARK UNBOUND:                -1.261
REMARK  Name = 
REMARK  5 active torsions:
REMARK  status: ('A' for Active; 'I' for Inactive)
REMARK    1  A    between atoms: C_2  and  C_3
REMARK    2  A    between atoms: C_6  and  N_7
REMARK    3  A    between atoms: N_7  and  C_8
REMARK    4  A    between atoms: C_8  and  C_9
REMARK    5  A    between atoms: C_13  and  C_14
REMARK                            x       y       z     vdW  Elec       q    Type
REMARK                         _______ _______ _______ _____ _____    ______ ____
ROOT
ATOM      1  C   UNL     1      44.262   4.706  11.574  0.00  0.00    +0.000 C 
ATOM      2  C   UNL     1      44.804   3.643  12.532  0.00  0.00    +0.000 C 
ATOM      3  C   UNL     1      43.600   4.425  12.915  0.00  0.00    +0.000 C 
ENDROOT
BRANCH   1   4
ATOM      4  C   UNL     1      44.917   6.079  11.516  0.00  0.00    +0.000 A 
ATOM      5  C   UNL     1      44.136   7.231  11.345  0.00  0.00    +0.000 A 
ATOM      6  C   UNL     1      44.671   8.495  11.570  0.00  0.00    +0.000 A 
ATOM      7  C   UNL     1      46.003   8.622  11.970  0.00  0.00    +0.000 A 
ATOM      8  C   UNL     1      46.838   7.499  12.088  0.00  0.00    +0.000 A 
ATOM      9  C   UNL     1      46.283   6.244  11.792  0.00  0.00    +0.000 A 
BRANCH   8  10
ATOM     10  C   UNL     1      48.204   7.587  12.641  0.00  0.00    +0.000 A 
ATOM     11  C   UNL     1      49.254   8.102  11.861  0.00  0.00    +0.000 A 
ATOM     12  C   UNL     1      50.534   8.282  12.392  0.00  0.00    +0.000 A 
ATOM     13  C   UNL     1      50.781   7.955  13.720  0.00  0.00    +0.000 A 
ATOM     14 CL   UNL     1      52.351   8.196  14.381  0.00  0.00    +0.000 Cl
ATOM     15  C   UNL     1      49.763   7.447  14.519  0.00  0.00    +0.000 A 
ATOM     16  C   UNL     1      48.485   7.258  13.981  0.00  0.00    +0.000 A 
ENDBRANCH   8  10
ENDBRANCH   1   4
BRANCH   1  17
ATOM     17  N   UNL     1      43.898   4.189  10.253  0.00  0.00    +0.000 N 
ATOM     18  H   UNL     1      42.902   4.078  10.080  0.00  0.00    +0.000 HD
BRANCH  17  22
ATOM     19  C   UNL     1      46.562   2.510   7.537  0.00  0.00    +0.000 A 
ATOM     20  C   UNL     1      45.894   1.646   8.392  0.00  0.00    +0.000 A 
ATOM     21  C   UNL     1      44.962   2.177   9.285  0.00  0.00    +0.000 A 
ATOM     22  C   UNL     1      44.710   3.546   9.313  0.00  0.00    +0.000 A 
ATOM     23  C   UNL     1      45.438   4.318   8.399  0.00  0.00    +0.000 A 
ATOM     24  N   UNL     1      46.349   3.844   7.515  0.00  0.00    +0.000 NA
BRANCH  19  26
ATOM     25  N   UNL     1      48.359   1.703   5.845  0.00  0.00    +0.000 NA
ATOM     26  C   UNL     1      47.547   2.025   6.612  0.00  0.00    +0.000 C 
ENDBRANCH  19  26
ENDBRANCH  17  22
ENDBRANCH   1  17
TORSDOF 5
ENDMDL
MODEL 4
REMARK VINA RESULT:    -7.016      3.976      7.351
REMARK INTER + INTRA:         -10.328
REMARK INTER:                  -9.288
REMARK INTRA:                  -1.041
REMARK UNBOUND:                -1.261
REMARK  Name = 
REMARK  5 active torsions:
REMARK  status: ('A' for Active; 'I' for Inactive)
REMARK    1  A    between atoms: C_2  and  C_3
REMARK    2  A    between atoms: C_6  and  N_7
REMARK    3  A    between atoms: N_7  and  C_8
REMARK    4  A    between atoms: C_8  and  C_9
REMARK    5  A    between atoms: C_13  and  C_14
REMARK                            x       y       z     vdW  Elec       q    Type
REMARK                         _______ _______ _______ _____ _____    ______ ____
ROOT
ATOM      1  C   UNL     1      46.314   7.431  12.695  0.00  0.00    +0.000 C 
ATOM      2  C   UNL     1      46.505   8.788  12.014  0.00  0.00    +0.000 C 
ATOM      3  C   UNL     1      45.645   8.693  13.221  0.00  0.00    +0.000 C 
ENDROOT
BRANCH   1   4
ATOM      4  C   UNL     1      45.319   6.430  12.126  0.00  0.00    +0.000 A 
ATOM      5  C   UNL     1      43.943   6.597  12.338  0.00  0.00    +0.000 A 
ATOM      6  C   UNL     1      43.015   5.868  11.603  0.00  0.00    +0.000 A 
ATOM      7  C   UNL     1      43.454   4.957  10.641  0.00  0.00    +0.000 A 
ATOM      8  C   UNL     1      44.823   4.711  10.443  0.00  0.00    +0.000 A 
ATOM      9  C   UNL     1      45.732   5.417  11.246  0.00  0.00    +0.000 A 
BRANCH   8  10
ATOM     10  C   UNL     1      45.320   3.861   9.343  0.00  0.00    +0.000 A 
ATOM     11  C   UNL     1      45.981   4.438   8.243  0.00  0.00    +0.000 A 
ATOM     12  C   UNL     1      46.541   3.649   7.236  0.00  0.00    +0.000 A 
ATOM     13  C   UNL     1      46.457   2.263   7.319  0.00  0.00    +0.000 A 
ATOM     14 CL   UNL     1      47.167   1.290   6.091  0.00  0.00    +0.000 Cl
ATOM     15  C   UNL     1      45.814   1.662   8.396  0.00  0.00    +0.000 A 
ATOM     16  C   UNL     1      45.245   2.457   9.397  0.00  0.00    +0.000 A 
ENDBRANCH   8  10
ENDBRANCH   1   4
BRANCH   1  17
ATOM     17  N   UNL     1      47.561   6.808  13.144  0.00  0.00    +0.000 N 
ATOM     18  H   UNL     1      48.278   6.687  12.431  0.00  0.00    +0.000 HD
BRANCH  17  22
ATOM     19  C   UNL     1      48.231   4.960  16.809  0.00  0.00    +0.000 A 
ATOM     20  C   UNL     1      47.369   4.329  15.924  0.00  0.00    +0.000 A 
ATOM     21  C   UNL     1      47.159   4.904  14.669  0.00  0.00    +0.000 A 
ATOM     22  C   UNL     1      47.803   6.086  14.317  0.00  0.00    +0.000 A 
ATOM     23  C   UNL     1      48.655   6.628  15.288  0.00  0.00    +0.000 A 
ATOM     24  N   UNL     1      48.889   6.103  16.514  0.00  0.00    +0.000 NA
BRANCH  19  26
ATOM     25  N   UNL     1      48.599   4.030  19.204  0.00  0.00    +0.000 NA
ATOM     26  C   UNL     1      48.469   4.428  18.120  0.00  0.00    +0.000 C 
ENDBRANCH  19  26
ENDBRANCH  17  22
ENDBRANCH   1  17
TORSDOF 5
ENDMDL
MODEL 5
REMARK VINA RESULT:    -6.536      3.635      6.695
REMARK INTER + INTRA:          -9.707
REMARK INTER:                  -8.523
REMARK INTRA:                  -1.184
REMARK UNBOUND:                -1.261
REMARK  Name = 
REMARK  5 active torsions:
REMARK  status: ('A' for Active; 'I' for Inactive)
REMARK    1  A    between atoms: C_2  and  C_3
REMARK    2  A    between atoms: C_6  and  N_7
REMARK    3  A    between atoms: N_7  and  C_8
REMARK    4  A    between atoms: C_8  and  C_9
REMARK    5  A    between atoms: C_13  and  C_14
REMARK                            x       y       z     vdW  Elec       q    Type
REMARK                         _______ _______ _______ _____ _____    ______ ____
ROOT
ATOM      1  C   UNL     1      46.431   4.872  14.016  0.00  0.00    +0.000 C 
ATOM      2  C   UNL     1      46.381   4.189  15.384  0.00  0.00    +0.000 C 
ATOM      3  C   UNL     1      47.307   3.671  14.344  0.00  0.00    +0.000 C 
ENDROOT
BRANCH   1   4
ATOM      4  C   UNL     1      45.369   4.559  12.972  0.00  0.00    +0.000 A 
ATOM      5  C   UNL     1      44.063   5.046  13.119  0.00  0.00    +0.000 A 
ATOM      6  C   UNL     1      43.165   5.013  12.058  0.00  0.00    +0.000 A 
ATOM      7  C   UNL     1      43.565   4.487  10.829  0.00  0.00    +0.000 A 
ATOM      8  C   UNL     1      44.842   3.927  10.657  0.00  0.00    +0.000 A 
ATOM      9  C   UNL     1      45.701   3.919  11.767  0.00  0.00    +0.000 A 
BRANCH   8  10
ATOM     10  C   UNL     1      45.342   3.492   9.338  0.00  0.00    +0.000 A 
ATOM     11  C   UNL     1      45.781   4.441   8.397  0.00  0.00    +0.000 A 
ATOM     12  C   UNL     1      46.343   4.051   7.179  0.00  0.00    +0.000 A 
ATOM     13  C   UNL     1      46.485   2.698   6.887  0.00  0.00    +0.000 A 
ATOM     14 CL   UNL     1      47.198   2.217   5.398  0.00  0.00    +0.000 Cl
ATOM     15  C   UNL     1      46.065   1.736   7.799  0.00  0.00    +0.000 A 
ATOM     16  C   UNL     1      45.492   2.131   9.013  0.00  0.00    +0.000 A 
ENDBRANCH   8  10
ENDBRANCH   1   4
BRANCH   1  17
ATOM     17  N   UNL     1      46.779   6.293  14.070  0.00  0.00    +0.000 N 
ATOM     18  H   UNL     1      46.073   6.907  14.472  0.00  0.00    +0.000 HD
BRANCH  17  22
ATOM     19  C   UNL     1      50.025   8.081  12.184  0.00  0.00    +0.000 A 
ATOM     20  C   UNL     1      48.909   7.806  11.408  0.00  0.00    +0.000 A 
ATOM     21  C   UNL     1      47.788   7.246  12.024  0.00  0.00    +0.000 A 
ATOM     22  C   UNL     1      47.795   6.971  13.388  0.00  0.00    +0.000 A 
ATOM     23  C   UNL     1      48.973   7.299  14.070  0.00  0.00    +0.000 A 
ATOM     24  N   UNL     1      50.081   7.844  13.513  0.00  0.00    +0.000 NA
BRANCH  19  26
ATOM     25  N   UNL     1      52.186   9.127  11.195  0.00  0.00    +0.000 NA
ATOM     26  C   UNL     1      51.214   8.637  11.603  0.00  0.00    +0.000 C 
ENDBRANCH  19  26
ENDBRANCH  17  22
ENDBRANCH   1  17
TORSDOF 5
ENDMDL
MODEL 6
REMARK VINA RESULT:    -6.349      1.645      2.721
REMARK INTER + INTRA:          -9.466
REMARK INTER:                  -9.017
REMARK INTRA:                  -0.449
REMARK UNBOUND:                -1.261
REMARK  Name = 
REMARK  5 active torsions:
REMARK  status: ('A' for Active; 'I' for Inactive)
REMARK    1  A    between atoms: C_2  and  C_3
REMARK    2  A    between atoms: C_6  and  N_7
REMARK    3  A    between atoms: N_7  and  C_8
REMARK    4  A    between atoms: C_8  and  C_9
REMARK    5  A    between atoms: C_13  and  C_14
REMARK                            x       y       z     vdW  Elec       q    Type
REMARK                         _______ _______ _______ _____ _____    ______ ____
ROOT
ATOM      1  C   UNL     1      45.690   5.186  12.539  0.00  0.00    +0.000 C 
ATOM      2  C   UNL     1      46.756   4.191  13.005  0.00  0.00    +0.000 C 
ATOM      3  C   UNL     1      45.817   4.773  13.998  0.00  0.00    +0.000 C 
ENDROOT
BRANCH   1   4
ATOM      4  C   UNL     1      46.063   6.642  12.305  0.00  0.00    +0.000 A 
ATOM      5  C   UNL     1      45.205   7.671  12.718  0.00  0.00    +0.000 A 
ATOM      6  C   UNL     1      45.644   8.989  12.770  0.00  0.00    +0.000 A 
ATOM      7  C   UNL     1      46.956   9.296  12.407  0.00  0.00    +0.000 A 
ATOM      8  C   UNL     1      47.829   8.307  11.924  0.00  0.00    +0.000 A 
ATOM      9  C   UNL     1      47.333   6.998  11.824  0.00  0.00    +0.000 A 
BRANCH   8  10
ATOM     10  C   UNL     1      49.258   8.574  11.666  0.00  0.00    +0.000 A 
ATOM     11  C   UNL     1      50.105   7.541  11.227  0.00  0.00    +0.000 A 
ATOM     12  C   UNL     1      51.438   7.788  10.888  0.00  0.00    +0.000 A 
ATOM     13  C   UNL     1      51.942   9.081  10.973  0.00  0.00    +0.000 A 
ATOM     14 CL   UNL     1      53.576   9.390  10.534  0.00  0.00    +0.000 Cl
ATOM     15  C   UNL     1      51.129  10.125  11.399  0.00  0.00    +0.000 A 
ATOM     16  C   UNL     1      49.797   9.871  11.749  0.00  0.00    +0.000 A 
ENDBRANCH   8  10
ENDBRANCH   1   4
BRANCH   1  17
ATOM     17  N   UNL     1      44.784   4.655  11.519  0.00  0.00    +0.000 N 
ATOM     18  H   UNL     1      43.863   4.372  11.847  0.00  0.00    +0.000 HD
BRANCH  17  22
ATOM     19  C   UNL     1      45.998   3.470   7.722  0.00  0.00    +0.000 A 
ATOM     20  C   UNL     1      45.465   2.496   8.554  0.00  0.00    +0.000 A 
ATOM     21  C   UNL     1      45.009   2.873   9.818  0.00  0.00    +0.000 A 
ATOM     22  C   UNL     1      45.089   4.200  10.231  0.00  0.00    +0.000 A 
ATOM     23  C   UNL     1      45.638   5.095   9.304  0.00  0.00    +0.000 A 
ATOM     24  N   UNL     1      46.090   4.772   8.069  0.00  0.00    +0.000 NA
BRANCH  19  26
ATOM     25  N   UNL     1      46.880   2.802   5.373  0.00  0.00    +0.000 NA
ATOM     26  C   UNL     1      46.502   3.138   6.420  0.00  0.00    +0.000 C 
ENDBRANCH  19  26
ENDBRANCH  17  22
ENDBRANCH   1  17
TORSDOF 5
ENDMDL
MODEL 7
REMARK VINA RESULT:    -6.032      4.297      6.586
REMARK INTER + INTRA:          -9.056
REMARK INTER:                  -8.082
REMARK INTRA:                  -0.974
REMARK UNBOUND:                -1.261
REMARK  Name = 
REMARK  5 active torsions:
REMARK  status: ('A' for Active; 'I' for Inactive)
REMARK    1  A    between atoms: C_2  and  C_3
REMARK    2  A    between atoms: C_6  and  N_7
REMARK    3  A    between atoms: N_7  and  C_8
REMARK    4  A    between atoms: C_8  and  C_9
REMARK    5  A    between atoms: C_13  and  C_14
REMARK                            x       y       z     vdW  Elec       q    Type
REMARK                         _______ _______ _______ _____ _____    ______ ____
ROOT
ATOM      1  C   UNL     1      47.858   8.064  13.445  0.00  0.00    +0.000 C 
ATOM      2  C   UNL     1      48.331   9.177  12.507  0.00  0.00    +0.000 C 
ATOM      3  C   UNL     1      48.891   7.809  12.357  0.00  0.00    +0.000 C 
ENDROOT
BRANCH   1   4
ATOM      4  C   UNL     1      48.440   7.957  14.847  0.00  0.00    +0.000 A 
ATOM      5  C   UNL     1      48.146   8.928  15.815  0.00  0.00    +0.000 A 
ATOM      6  C   UNL     1      48.429   8.705  17.158  0.00  0.00    +0.000 A 
ATOM      7  C   UNL     1      49.014   7.500  17.551  0.00  0.00    +0.000 A 
ATOM      8  C   UNL     1      49.386   6.529  16.608  0.00  0.00    +0.000 A 
ATOM      9  C   UNL     1      49.144   6.813  15.255  0.00  0.00    +0.000 A 
BRANCH   8  10
ATOM     10  C   UNL     1      49.876   5.193  17.002  0.00  0.00    +0.000 A 
ATOM     11  C   UNL     1      49.008   4.087  16.992  0.00  0.00    +0.000 A 
ATOM     12  C   UNL     1      49.469   2.798  17.271  0.00  0.00    +0.000 A 
ATOM     13  C   UNL     1      50.815   2.595  17.557  0.00  0.00    +0.000 A 
ATOM     14 CL   UNL     1      51.388   1.005  17.879  0.00  0.00    +0.000 Cl
ATOM     15  C   UNL     1      51.700   3.667  17.571  0.00  0.00    +0.000 A 
ATOM     16  C   UNL     1      51.231   4.958  17.301  0.00  0.00    +0.000 A 
ENDBRANCH   8  10
ENDBRANCH   1   4
BRANCH   1  17
ATOM     17  N   UNL     1      46.414   7.822  13.403  0.00  0.00    +0.000 N 
ATOM     18  H   UNL     1      45.847   8.419  14.001  0.00  0.00    +0.000 HD
BRANCH  17  22
ATOM     19  C   UNL     1      44.317   4.420  12.252  0.00  0.00    +0.000 A 
ATOM     20  C   UNL     1      44.000   5.611  11.615  0.00  0.00    +0.000 A 
ATOM     21  C   UNL     1      44.718   6.761  11.951  0.00  0.00    +0.000 A 
ATOM     22  C   UNL     1      45.730   6.709  12.904  0.00  0.00    +0.000 A 
ATOM     23  C   UNL     1      45.967   5.451  13.474  0.00  0.00    +0.000 A 
ATOM     24  N   UNL     1      45.297   4.312  13.176  0.00  0.00    +0.000 NA
BRANCH  19  26
ATOM     25  N   UNL     1      43.048   2.233  11.662  0.00  0.00    +0.000 NA
ATOM     26  C   UNL     1      43.600   3.211  11.964  0.00  0.00    +0.000 C 
ENDBRANCH  19  26
ENDBRANCH  17  22
ENDBRANCH   1  17
TORSDOF 5
ENDMDL
MODEL 8
REMARK VINA RESULT:    -5.928      6.016      8.366
REMARK INTER + INTRA:          -8.922
REMARK INTER:                  -7.938
REMARK INTRA:                  -0.984
REMARK UNBOUND:                -1.261
REMARK  Name = 
REMARK  5 active torsions:
REMARK  status: ('A' for Active; 'I' for Inactive)
REMARK    1  A    between atoms: C_2  and  C_3
REMARK    2  A    between atoms: C_6  and  N_7
REMARK    3  A    between atoms: N_7  and  C_8
REMARK    4  A    between atoms: C_8  and  C_9
REMARK    5  A    between atoms: C_13  and  C_14
REMARK                            x       y       z     vdW  Elec       q    Type
REMARK                         _______ _______ _______ _____ _____    ______ ____
ROOT
ATOM      1  C   UNL     1      48.769   5.128  17.531  0.00  0.00    +0.000 C 
ATOM      2  C   UNL     1      47.759   5.405  18.646  0.00  0.00    +0.000 C 
ATOM      3  C   UNL     1      47.524   4.272  17.714  0.00  0.00    +0.000 C 
ENDROOT
BRANCH   1   4
ATOM      4  C   UNL     1      48.734   5.954  16.253  0.00  0.00    +0.000 A 
ATOM      5  C   UNL     1      49.780   6.836  15.948  0.00  0.00    +0.000 A 
ATOM      6  C   UNL     1      49.906   7.379  14.674  0.00  0.00    +0.000 A 
ATOM      7  C   UNL     1      48.981   7.045  13.684  0.00  0.00    +0.000 A 
ATOM      8  C   UNL     1      47.881   6.218  13.965  0.00  0.00    +0.000 A 
ATOM      9  C   UNL     1      47.748   5.739  15.276  0.00  0.00    +0.000 A 
BRANCH   8  10
ATOM     10  C   UNL     1      46.967   5.736  12.910  0.00  0.00    +0.000 A 
ATOM     11  C   UNL     1      46.179   4.591  13.123  0.00  0.00    +0.000 A 
ATOM     12  C   UNL     1      45.241   4.168  12.177  0.00  0.00    +0.000 A 
ATOM     13  C   UNL     1      45.069   4.895  11.004  0.00  0.00    +0.000 A 
ATOM     14 CL   UNL     1      43.898   4.388   9.850  0.00  0.00    +0.000 Cl
ATOM     15  C   UNL     1      45.830   6.034  10.766  0.00  0.00    +0.000 A 
ATOM     16  C   UNL     1      46.777   6.448  11.710  0.00  0.00    +0.000 A 
ENDBRANCH   8  10
ENDBRANCH   1   4
BRANCH   1  17
ATOM     17  N   UNL     1      50.129   4.870  18.008  0.00  0.00    +0.000 N 
ATOM     18  H   UNL     1      50.653   5.685  18.320  0.00  0.00    +0.000 HD
BRANCH  17  22
ATOM     19  C   UNL     1      52.584   1.521  17.784  0.00  0.00    +0.000 A 
ATOM     20  C   UNL     1      51.285   1.391  17.316  0.00  0.00    +0.000 A 
ATOM     21  C   UNL     1      50.451   2.511  17.339  0.00  0.00    +0.000 A 
ATOM     22  C   UNL     1      50.918   3.730  17.821  0.00  0.00    +0.000 A 
ATOM     23  C   UNL     1      52.249   3.742  18.259  0.00  0.00    +0.000 A 
ATOM     24  N   UNL     1      53.092   2.682  18.253  0.00  0.00    +0.000 NA
BRANCH  19  26
ATOM     25  N   UNL     1      54.250  -0.470  17.868  0.00  0.00    +0.000 NA
ATOM     26  C   UNL     1      53.480   0.400  17.805  0.00  0.00    +0.000 C 
ENDBRANCH  19  26
ENDBRANCH  17  22
ENDBRANCH   1  17
TORSDOF 5
ENDMDL
MODEL 9
REMARK VINA RESULT:    -5.908      4.510      8.126
REMARK INTER + INTRA:          -8.896
REMARK INTER:                  -7.751
REMARK INTRA:                  -1.145
REMARK UNBOUND:                -1.261
REMARK  Name = 
REMARK  5 active torsions:
REMARK  status: ('A' for Active; 'I' for Inactive)
REMARK    1  A    between atoms: C_2  and  C_3
REMARK    2  A    between atoms: C_6  and  N_7
REMARK    3  A    between atoms: N_7  and  C_8
REMARK    4  A    between atoms: C_8  and  C_9
REMARK    5  A    between atoms: C_13  and  C_14
REMARK                            x       y       z     vdW  Elec       q    Type
REMARK                         _______ _______ _______ _____ _____    ______ ____
ROOT
ATOM      1  C   UNL     1      49.080   8.176  12.645  0.00  0.00    +0.000 C 
ATOM      2  C   UNL     1      49.984   8.161  11.411  0.00  0.00    +0.000 C 
ATOM      3  C   UNL     1      49.540   9.463  11.973  0.00  0.00    +0.000 C 
ENDROOT
BRANCH   1   4
ATOM      4  C   UNL     1      47.585   7.934  12.493  0.00  0.00    +0.000 A 
ATOM      5  C   UNL     1      46.677   8.993  12.624  0.00  0.00    +0.000 A 
ATOM      6  C   UNL     1      45.355   8.854  12.216  0.00  0.00    +0.000 A 
ATOM      7  C   UNL     1      44.923   7.645  11.669  0.00  0.00    +0.000 A 
ATOM      8  C   UNL     1      45.782   6.537  11.580  0.00  0.00    +0.000 A 
ATOM      9  C   UNL     1      47.092   6.693  12.060  0.00  0.00    +0.000 A 
BRANCH   8  10
ATOM     10  C   UNL     1      45.398   5.295  10.881  0.00  0.00    +0.000 A 
ATOM     11  C   UNL     1      45.623   5.159   9.500  0.00  0.00    +0.000 A 
ATOM     12  C   UNL     1      45.354   3.960   8.834  0.00  0.00    +0.000 A 
ATOM     13  C   UNL     1      44.862   2.872   9.546  0.00  0.00    +0.000 A 
ATOM     14 CL   UNL     1      44.551   1.389   8.731  0.00  0.00    +0.000 Cl
ATOM     15  C   UNL     1      44.633   2.973  10.914  0.00  0.00    +0.000 A 
ATOM     16  C   UNL     1      44.893   4.179  11.575  0.00  0.00    +0.000 A 
ENDBRANCH   8  10
ENDBRANCH   1   4
BRANCH   1  17
ATOM     17  N   UNL     1      49.653   7.505  13.813  0.00  0.00    +0.000 N 
ATOM     18  H   UNL     1      50.391   6.831  13.620  0.00  0.00    +0.000 HD
BRANCH  17  22
ATOM     19  C   UNL     1      48.354   7.001  17.731  0.00  0.00    +0.000 A 
ATOM     20  C   UNL     1      48.646   8.292  17.317  0.00  0.00    +0.000 A 
ATOM     21  C   UNL     1      49.043   8.497  15.994  0.00  0.00    +0.000 A 
ATOM     22  C   UNL     1      49.142   7.425  15.113  0.00  0.00    +0.000 A 
ATOM     23  C   UNL     1      48.814   6.169  15.640  0.00  0.00    +0.000 A 
ATOM     24  N   UNL     1      48.423   5.927  16.914  0.00  0.00    +0.000 NA
BRANCH  19  26
ATOM     25  N   UNL     1      47.576   6.531  20.163  0.00  0.00    +0.000 NA
ATOM     26  C   UNL     1      47.962   6.727  19.084  0.00  0.00    +0.000 C 
ENDBRANCH  19  26
ENDBRANCH  17  22
ENDBRANCH   1  17
TORSDOF 5
ENDMDL
