MODEL 1
REMARK VINA RESULT:    -7.060      0.000      0.000
REMARK INTER + INTRA:          -7.894
REMARK INTER:                  -8.298
REMARK INTRA:                   0.404
REMARK UNBOUND:                 0.404
REMARK  Name = 
REMARK  3 active torsions:
REMARK  status: ('A' for Active; 'I' for Inactive)
REMARK    1  A    between atoms: C_2  and  C_3
REMARK    2  A    between atoms: N_7  and  C_8
REMARK    3  A    between atoms: C_8  and  C_9
REMARK                            x       y       z     vdW  Elec       q    Type
REMARK                         _______ _______ _______ _____ _____    ______ ____
ROOT
ATOM      1  C   UNL     1      46.769   2.579   7.256  0.00  0.00    +0.000 A 
ATOM      2  C   UNL     1      46.475   3.896   7.581  0.00  0.00    +0.000 A 
ATOM      3  C   UNL     1      45.668   4.163   8.694  0.00  0.00    +0.000 A 
ATOM      4  C   UNL     1      45.189   3.109   9.467  0.00  0.00    +0.000 A 
ATOM      5  N   UNL     1      44.385   3.264  10.591  0.00  0.00    +0.000 N 
ATOM      6  N   UNL     1      45.476   1.827   9.155  0.00  0.00    +0.000 NA
ATOM      7  C   UNL     1      46.250   1.586   8.069  0.00  0.00    +0.000 A 
ATOM      8  H   UNL     1      44.192   2.354  10.997  0.00  0.00    +0.000 HD
ENDROOT
BRANCH   5   9
ATOM      9  C   UNL     1      44.098   4.491  11.336  0.00  0.00    +0.000 C 
ATOM     10  C   UNL     1      42.674   4.820  11.752  0.00  0.00    +0.000 C 
ATOM     11  C   UNL     1      43.285   5.580  10.628  0.00  0.00    +0.000 C 
BRANCH   9  12
ATOM     12  C   UNL     1      45.289   5.071  12.080  0.00  0.00    +0.000 A 
ATOM     13  C   UNL     1      45.803   4.483  13.230  0.00  0.00    +0.000 A 
ATOM     14  N   UNL     1      46.962   4.830  13.832  0.00  0.00    +0.000 NA
ATOM     15  C   UNL     1      47.628   5.837  13.255  0.00  0.00    +0.000 A 
ATOM     16  N   UNL     1      47.219   6.538  12.189  0.00  0.00    +0.000 NA
ATOM     17  C   UNL     1      46.051   6.138  11.637  0.00  0.00    +0.000 A 
ENDBRANCH   9  12
ENDBRANCH   5   9
BRANCH   1  19
ATOM     18  N   UNL     1      48.233   1.960   5.207  0.00  0.00    +0.000 NA
ATOM     19  C   UNL     1      47.577   2.239   6.123  0.00  0.00    +0.000 C 
ENDBRANCH   1  19
TORSDOF 3
ENDMDL
MODEL 2
REMARK VINA RESULT:    -6.897      1.755      5.995
REMARK INTER + INTRA:          -7.702
REMARK INTER:                  -7.516
REMARK INTRA:                  -0.187
REMARK UNBOUND:                 0.404
REMARK  Name = 
REMARK  3 active torsions:
REMARK  status: ('A' for Active; 'I' for Inactive)
REMARK    1  A    between atoms: C_2  and  C_3
REMARK    2  A    between atoms: N_7  and  C_8
REMARK    3  A    between atoms: C_8  and  C_9
REMARK                            x       y       z     vdW  Elec       q    Type
REMARK                         _______ _______ _______ _____ _____    ______ ____
ROOT
ATOM      1  C   UNL     1      47.727   5.784  14.515  0.00  0.00    +0.000 A 
ATOM      2  C   UNL     1      47.069   6.268  13.392  0.00  0.00    +0.000 A 
ATOM      3  C   UNL     1      46.281   5.396  12.632  0.00  0.00    +0.000 A 
ATOM      4  C   UNL     1      46.152   4.066  13.020  0.00  0.00    +0.000 A 
ATOM      5  N   UNL     1      45.393   3.121  12.339  0.00  0.00    +0.000 N 
ATOM      6  N   UNL     1      46.788   3.593  14.114  0.00  0.00    +0.000 NA
ATOM      7  C   UNL     1      47.555   4.448  14.833  0.00  0.00    +0.000 A 
ATOM      8  H   UNL     1      45.434   2.235  12.833  0.00  0.00    +0.000 HD
ENDROOT
BRANCH   5   9
ATOM      9  C   UNL     1      44.401   3.344  11.286  0.00  0.00    +0.000 C 
ATOM     10  C   UNL     1      43.087   4.038  11.605  0.00  0.00    +0.000 C 
ATOM     11  C   UNL     1      43.083   2.568  11.375  0.00  0.00    +0.000 C 
BRANCH   9  12
ATOM     12  C   UNL     1      44.966   3.338   9.875  0.00  0.00    +0.000 A 
ATOM     13  C   UNL     1      45.245   4.510   9.182  0.00  0.00    +0.000 A 
ATOM     14  N   UNL     1      45.915   4.583   8.012  0.00  0.00    +0.000 NA
ATOM     15  C   UNL     1      46.309   3.410   7.503  0.00  0.00    +0.000 A 
ATOM     16  N   UNL     1      46.049   2.203   8.025  0.00  0.00    +0.000 NA
ATOM     17  C   UNL     1      45.373   2.203   9.196  0.00  0.00    +0.000 A 
ENDBRANCH   9  12
ENDBRANCH   5   9
BRANCH   1  19
ATOM     18  N   UNL     1      49.233   7.296  15.988  0.00  0.00    +0.000 NA
ATOM     19  C   UNL     1      48.559   6.621  15.328  0.00  0.00    +0.000 C 
ENDBRANCH   1  19
TORSDOF 3
ENDMDL
MODEL 3
REMARK VINA RESULT:    -5.563      3.924      6.819
REMARK INTER + INTRA:          -6.135
REMARK INTER:                  -6.104
REMARK INTRA:                  -0.032
REMARK UNBOUND:                 0.404
REMARK  Name = 
REMARK  3 active torsions:
REMARK  status: ('A' for Active; 'I' for Inactive)
REMARK    1  A    between atoms: C_2  and  C_3
REMARK    2  A    between atoms: N_7  and  C_8
REMARK    3  A    between atoms: C_8  and  C_9
REMARK                            x       y       z     vdW  Elec       q    Type
REMARK                         _______ _______ _______ _____ _____    ______ ____
ROOT
ATOM      1  C   UNL     1      46.084   5.296  12.462  0.00  0.00    +0.000 A 
ATOM      2  C   UNL     1      46.033   4.290  13.417  0.00  0.00    +0.000 A 
ATOM      3  C   UNL     1      46.765   4.433  14.602  0.00  0.00    +0.000 A 
ATOM      4  C   UNL     1      47.517   5.585  14.814  0.00  0.00    +0.000 A 
ATOM      5  N   UNL     1      48.276   5.828  15.954  0.00  0.00    +0.000 N 
ATOM      6  N   UNL     1      47.566   6.567  13.888  0.00  0.00    +0.000 NA
ATOM      7  C   UNL     1      46.859   6.408  12.742  0.00  0.00    +0.000 A 
ATOM      8  H   UNL     1      48.705   6.745  15.885  0.00  0.00    +0.000 HD
ENDROOT
BRANCH   5   9
ATOM      9  C   UNL     1      48.249   5.108  17.228  0.00  0.00    +0.000 C 
ATOM     10  C   UNL     1      47.018   5.166  18.117  0.00  0.00    +0.000 C 
ATOM     11  C   UNL     1      48.225   5.941  18.515  0.00  0.00    +0.000 C 
BRANCH   9  12
ATOM     12  C   UNL     1      49.234   3.955  17.322  0.00  0.00    +0.000 A 
ATOM     13  C   UNL     1      48.938   2.685  16.840  0.00  0.00    +0.000 A 
ATOM     14  N   UNL     1      49.821   1.671  16.719  0.00  0.00    +0.000 NA
ATOM     15  C   UNL     1      51.067   1.945  17.125  0.00  0.00    +0.000 A 
ATOM     16  N   UNL     1      51.477   3.097  17.673  0.00  0.00    +0.000 NA
ATOM     17  C   UNL     1      50.540   4.068  17.765  0.00  0.00    +0.000 A 
ENDBRANCH   9  12
ENDBRANCH   5   9
BRANCH   1  19
ATOM     18  N   UNL     1      44.788   5.131  10.223  0.00  0.00    +0.000 NA
ATOM     19  C   UNL     1      45.369   5.205  11.224  0.00  0.00    +0.000 C 
ENDBRANCH   1  19
TORSDOF 3
ENDMDL
MODEL 4
REMARK VINA RESULT:    -5.559      2.980      5.181
REMARK INTER + INTRA:          -6.131
REMARK INTER:                  -5.979
REMARK INTRA:                  -0.151
REMARK UNBOUND:                 0.404
REMARK  Name = 
REMARK  3 active torsions:
REMARK  status: ('A' for Active; 'I' for Inactive)
REMARK    1  A    between atoms: C_2  and  C_3
REMARK    2  A    between atoms: N_7  and  C_8
REMARK    3  A    between atoms: C_8  and  C_9
REMARK                            x       y       z     vdW  Elec       q    Type
REMARK                         _______ _______ _______ _____ _____    ______ ____
ROOT
ATOM      1  C   UNL     1      44.948   3.996  10.658  0.00  0.00    +0.000 A 
ATOM      2  C   UNL     1      45.533   5.132  10.117  0.00  0.00    +0.000 A 
ATOM      3  C   UNL     1      45.937   6.166  10.970  0.00  0.00    +0.000 A 
ATOM      4  C   UNL     1      45.765   6.034  12.345  0.00  0.00    +0.000 A 
ATOM      5  N   UNL     1      46.133   6.998  13.277  0.00  0.00    +0.000 N 
ATOM      6  N   UNL     1      45.199   4.928  12.874  0.00  0.00    +0.000 NA
ATOM      7  C   UNL     1      44.804   3.941  12.034  0.00  0.00    +0.000 A 
ATOM      8  H   UNL     1      45.933   6.657  14.212  0.00  0.00    +0.000 HD
ENDROOT
BRANCH   5   9
ATOM      9  C   UNL     1      46.978   8.176  13.075  0.00  0.00    +0.000 C 
ATOM     10  C   UNL     1      48.482   8.023  12.915  0.00  0.00    +0.000 C 
ATOM     11  C   UNL     1      47.950   8.555  14.198  0.00  0.00    +0.000 C 
BRANCH   9  12
ATOM     12  C   UNL     1      46.247   9.391  12.528  0.00  0.00    +0.000 A 
ATOM     13  C   UNL     1      46.906  10.410  11.849  0.00  0.00    +0.000 A 
ATOM     14  N   UNL     1      46.305  11.416  11.179  0.00  0.00    +0.000 NA
ATOM     15  C   UNL     1      44.966  11.406  11.210  0.00  0.00    +0.000 A 
ATOM     16  N   UNL     1      44.205  10.529  11.880  0.00  0.00    +0.000 NA
ATOM     17  C   UNL     1      44.873   9.550  12.530  0.00  0.00    +0.000 A 
ENDBRANCH   9  12
ENDBRANCH   5   9
BRANCH   1  19
ATOM     18  N   UNL     1      44.141   2.028   9.175  0.00  0.00    +0.000 NA
ATOM     19  C   UNL     1      44.501   2.908   9.840  0.00  0.00    +0.000 C 
ENDBRANCH   1  19
TORSDOF 3
ENDMDL
MODEL 5
REMARK VINA RESULT:    -5.399      2.748      6.914
REMARK INTER + INTRA:          -5.942
REMARK INTER:                  -6.567
REMARK INTRA:                   0.625
REMARK UNBOUND:                 0.404
REMARK  Name = 
REMARK  3 active torsions:
REMARK  status: ('A' for Active; 'I' for Inactive)
REMARK    1  A    between atoms: C_2  and  C_3
REMARK    2  A    between atoms: N_7  and  C_8
REMARK    3  A    between atoms: C_8  and  C_9
REMARK                            x       y       z     vdW  Elec       q    Type
REMARK                         _______ _______ _______ _____ _____    ______ ____
ROOT
ATOM      1  C   UNL     1      48.513   4.624  16.896  0.00  0.00    +0.000 A 
ATOM      2  C   UNL     1      48.325   5.719  16.063  0.00  0.00    +0.000 A 
ATOM      3  C   UNL     1      47.543   5.576  14.911  0.00  0.00    +0.000 A 
ATOM      4  C   UNL     1      46.950   4.350  14.626  0.00  0.00    +0.000 A 
ATOM      5  N   UNL     1      46.154   4.103  13.513  0.00  0.00    +0.000 N 
ATOM      6  N   UNL     1      47.127   3.284  15.437  0.00  0.00    +0.000 NA
ATOM      7  C   UNL     1      47.896   3.437  16.543  0.00  0.00    +0.000 A 
ATOM      8  H   UNL     1      45.817   3.146  13.545  0.00  0.00    +0.000 HD
ENDROOT
BRANCH   5   9
ATOM      9  C   UNL     1      45.566   5.073  12.588  0.00  0.00    +0.000 C 
ATOM     10  C   UNL     1      45.672   6.562  12.869  0.00  0.00    +0.000 C 
ATOM     11  C   UNL     1      44.364   5.886  13.079  0.00  0.00    +0.000 C 
BRANCH   9  12
ATOM     12  C   UNL     1      45.356   4.551  11.176  0.00  0.00    +0.000 A 
ATOM     13  C   UNL     1      44.751   3.326  10.921  0.00  0.00    +0.000 A 
ATOM     14  N   UNL     1      44.365   2.885   9.704  0.00  0.00    +0.000 NA
ATOM     15  C   UNL     1      44.620   3.716   8.687  0.00  0.00    +0.000 A 
ATOM     16  N   UNL     1      45.256   4.892   8.776  0.00  0.00    +0.000 NA
ATOM     17  C   UNL     1      45.616   5.271  10.024  0.00  0.00    +0.000 A 
ENDBRANCH   9  12
ENDBRANCH   5   9
BRANCH   1  19
ATOM     18  N   UNL     1      49.961   4.765  19.042  0.00  0.00    +0.000 NA
ATOM     19  C   UNL     1      49.312   4.701  18.083  0.00  0.00    +0.000 C 
ENDBRANCH   1  19
TORSDOF 3
ENDMDL
MODEL 6
REMARK VINA RESULT:    -5.240      3.159      5.211
REMARK INTER + INTRA:          -5.756
REMARK INTER:                  -5.545
REMARK INTRA:                  -0.211
REMARK UNBOUND:                 0.404
REMARK  Name = 
REMARK  3 active torsions:
REMARK  status: ('A' for Active; 'I' for Inactive)
REMARK    1  A    between atoms: C_2  and  C_3
REMARK    2  A    between atoms: N_7  and  C_8
REMARK    3  A    between atoms: C_8  and  C_9
REMARK                            x       y       z     vdW  Elec       q    Type
REMARK                         _______ _______ _______ _____ _____    ______ ____
ROOT
ATOM      1  C   UNL     1      44.470   4.206  11.729  0.00  0.00    +0.000 A 
ATOM      2  C   UNL     1      44.647   4.940  12.894  0.00  0.00    +0.000 A 
ATOM      3  C   UNL     1      45.503   6.048  12.882  0.00  0.00    +0.000 A 
ATOM      4  C   UNL     1      46.148   6.409  11.703  0.00  0.00    +0.000 A 
ATOM      5  N   UNL     1      47.014   7.490  11.583  0.00  0.00    +0.000 N 
ATOM      6  N   UNL     1      45.975   5.699  10.567  0.00  0.00    +0.000 NA
ATOM      7  C   UNL     1      45.151   4.623  10.598  0.00  0.00    +0.000 A 
ATOM      8  H   UNL     1      47.332   7.563  10.621  0.00  0.00    +0.000 HD
ENDROOT
BRANCH   5   9
ATOM      9  C   UNL     1      47.226   8.589  12.526  0.00  0.00    +0.000 C 
ATOM     10  C   UNL     1      46.225   9.729  12.611  0.00  0.00    +0.000 C 
ATOM     11  C   UNL     1      47.533   9.974  11.946  0.00  0.00    +0.000 C 
BRANCH   9  12
ATOM     12  C   UNL     1      48.137   8.252  13.694  0.00  0.00    +0.000 A 
ATOM     13  C   UNL     1      47.970   8.818  14.953  0.00  0.00    +0.000 A 
ATOM     14  N   UNL     1      48.615   8.431  16.074  0.00  0.00    +0.000 NA
ATOM     15  C   UNL     1      49.491   7.431  15.915  0.00  0.00    +0.000 A 
ATOM     16  N   UNL     1      49.802   6.841  14.752  0.00  0.00    +0.000 NA
ATOM     17  C   UNL     1      49.120   7.279  13.671  0.00  0.00    +0.000 A 
ENDBRANCH   9  12
ENDBRANCH   5   9
BRANCH   1  19
ATOM     18  N   UNL     1      42.928   2.123  11.633  0.00  0.00    +0.000 NA
ATOM     19  C   UNL     1      43.618   3.055  11.678  0.00  0.00    +0.000 C 
ENDBRANCH   1  19
TORSDOF 3
ENDMDL
MODEL 7
REMARK VINA RESULT:    -5.216      3.659      6.782
REMARK INTER + INTRA:          -5.727
REMARK INTER:                  -5.725
REMARK INTRA:                  -0.002
REMARK UNBOUND:                 0.404
REMARK  Name = 
REMARK  3 active torsions:
REMARK  status: ('A' for Active; 'I' for Inactive)
REMARK    1  A    between atoms: C_2  and  C_3
REMARK    2  A    between atoms: N_7  and  C_8
REMARK    3  A    between atoms: C_8  and  C_9
REMARK                            x       y       z     vdW  Elec       q    Type
REMARK                         _______ _______ _______ _____ _____    ______ ____
ROOT
ATOM      1  C   UNL     1      48.313   3.997  17.270  0.00  0.00    +0.000 A 
ATOM      2  C   UNL     1      47.547   5.029  16.748  0.00  0.00    +0.000 A 
ATOM      3  C   UNL     1      46.980   4.885  15.476  0.00  0.00    +0.000 A 
ATOM      4  C   UNL     1      47.176   3.707  14.762  0.00  0.00    +0.000 A 
ATOM      5  N   UNL     1      46.656   3.461  13.496  0.00  0.00    +0.000 N 
ATOM      6  N   UNL     1      47.918   2.699  15.270  0.00  0.00    +0.000 NA
ATOM      7  C   UNL     1      48.468   2.858  16.498  0.00  0.00    +0.000 A 
ATOM      8  H   UNL     1      46.912   2.524  13.202  0.00  0.00    +0.000 HD
ENDROOT
BRANCH   5   9
ATOM      9  C   UNL     1      45.627   4.216  12.778  0.00  0.00    +0.000 C 
ATOM     10  C   UNL     1      44.181   3.748  12.795  0.00  0.00    +0.000 C 
ATOM     11  C   UNL     1      44.982   3.553  11.556  0.00  0.00    +0.000 C 
BRANCH   9  12
ATOM     12  C   UNL     1      45.982   5.669  12.511  0.00  0.00    +0.000 A 
ATOM     13  C   UNL     1      45.107   6.711  12.796  0.00  0.00    +0.000 A 
ATOM     14  N   UNL     1      45.421   8.024  12.761  0.00  0.00    +0.000 NA
ATOM     15  C   UNL     1      46.679   8.303  12.400  0.00  0.00    +0.000 A 
ATOM     16  N   UNL     1      47.605   7.407  12.031  0.00  0.00    +0.000 NA
ATOM     17  C   UNL     1      47.223   6.111  12.088  0.00  0.00    +0.000 A 
ENDBRANCH   9  12
ENDBRANCH   5   9
BRANCH   1  19
ATOM     18  N   UNL     1      49.433   4.162  19.604  0.00  0.00    +0.000 NA
ATOM     19  C   UNL     1      48.932   4.086  18.560  0.00  0.00    +0.000 C 
ENDBRANCH   1  19
TORSDOF 3
ENDMDL
MODEL 8
REMARK VINA RESULT:    -4.976      4.376      6.461
REMARK INTER + INTRA:          -5.445
REMARK INTER:                  -5.327
REMARK INTRA:                  -0.118
REMARK UNBOUND:                 0.404
REMARK  Name = 
REMARK  3 active torsions:
REMARK  status: ('A' for Active; 'I' for Inactive)
REMARK    1  A    between atoms: C_2  and  C_3
REMARK    2  A    between atoms: N_7  and  C_8
REMARK    3  A    between atoms: C_8  and  C_9
REMARK                            x       y       z     vdW  Elec       q    Type
REMARK                         _______ _______ _______ _____ _____    ______ ____
ROOT
ATOM      1  C   UNL     1      49.995   9.717  11.664  0.00  0.00    +0.000 A 
ATOM      2  C   UNL     1      49.993   8.339  11.493  0.00  0.00    +0.000 A 
ATOM      3  C   UNL     1      48.949   7.583  12.040  0.00  0.00    +0.000 A 
ATOM      4  C   UNL     1      47.922   8.222  12.729  0.00  0.00    +0.000 A 
ATOM      5  N   UNL     1      46.840   7.566  13.307  0.00  0.00    +0.000 N 
ATOM      6  N   UNL     1      47.919   9.562  12.893  0.00  0.00    +0.000 NA
ATOM      7  C   UNL     1      48.942  10.278  12.366  0.00  0.00    +0.000 A 
ATOM      8  H   UNL     1      46.215   8.249  13.723  0.00  0.00    +0.000 HD
ENDROOT
BRANCH   5   9
ATOM      9  C   UNL     1      46.410   6.181  13.109  0.00  0.00    +0.000 C 
ATOM     10  C   UNL     1      45.795   5.751  11.787  0.00  0.00    +0.000 C 
ATOM     11  C   UNL     1      44.907   5.917  12.970  0.00  0.00    +0.000 C 
BRANCH   9  12
ATOM     12  C   UNL     1      47.077   5.175  14.031  0.00  0.00    +0.000 A 
ATOM     13  C   UNL     1      47.642   5.544  15.247  0.00  0.00    +0.000 A 
ATOM     14  N   UNL     1      48.080   4.687  16.195  0.00  0.00    +0.000 NA
ATOM     15  C   UNL     1      47.961   3.389  15.893  0.00  0.00    +0.000 A 
ATOM     16  N   UNL     1      47.502   2.892  14.735  0.00  0.00    +0.000 NA
ATOM     17  C   UNL     1      47.082   3.806  13.832  0.00  0.00    +0.000 A 
ENDBRANCH   9  12
ENDBRANCH   5   9
BRANCH   1  19
ATOM     18  N   UNL     1      51.888  11.215  10.717  0.00  0.00    +0.000 NA
ATOM     19  C   UNL     1      51.040  10.546  11.140  0.00  0.00    +0.000 C 
ENDBRANCH   1  19
TORSDOF 3
ENDMDL
MODEL 9
REMARK VINA RESULT:    -4.855      3.008      6.262
REMARK INTER + INTRA:          -5.303
REMARK INTER:                  -5.901
REMARK INTRA:                   0.598
REMARK UNBOUND:                 0.404
REMARK  Name = 
REMARK  3 active torsions:
REMARK  status: ('A' for Active; 'I' for Inactive)
REMARK    1  A    between atoms: C_2  and  C_3
REMARK    2  A    between atoms: N_7  and  C_8
REMARK    3  A    between atoms: C_8  and  C_9
REMARK                            x       y       z     vdW  Elec       q    Type
REMARK                         _______ _______ _______ _____ _____    ______ ____
ROOT
ATOM      1  C   UNL     1      50.435   8.122  13.024  0.00  0.00    +0.000 A 
ATOM      2  C   UNL     1      49.710   8.143  11.840  0.00  0.00    +0.000 A 
ATOM      3  C   UNL     1      48.502   7.441  11.764  0.00  0.00    +0.000 A 
ATOM      4  C   UNL     1      48.034   6.749  12.878  0.00  0.00    +0.000 A 
ATOM      5  N   UNL     1      46.848   6.024  12.910  0.00  0.00    +0.000 N 
ATOM      6  N   UNL     1      48.735   6.730  14.032  0.00  0.00    +0.000 NA
ATOM      7  C   UNL     1      49.908   7.406  14.086  0.00  0.00    +0.000 A 
ATOM      8  H   UNL     1      46.713   5.637  13.838  0.00  0.00    +0.000 HD
ENDROOT
BRANCH   5   9
ATOM      9  C   UNL     1      45.752   6.040  11.940  0.00  0.00    +0.000 C 
ATOM     10  C   UNL     1      45.741   7.058  10.811  0.00  0.00    +0.000 C 
ATOM     11  C   UNL     1      44.807   7.246  11.954  0.00  0.00    +0.000 C 
BRANCH   9  12
ATOM     12  C   UNL     1      44.992   4.729  11.825  0.00  0.00    +0.000 A 
ATOM     13  C   UNL     1      44.554   4.026  12.941  0.00  0.00    +0.000 A 
ATOM     14  N   UNL     1      43.719   2.964  12.916  0.00  0.00    +0.000 NA
ATOM     15  C   UNL     1      43.320   2.578  11.698  0.00  0.00    +0.000 A 
ATOM     16  N   UNL     1      43.716   3.117  10.537  0.00  0.00    +0.000 NA
ATOM     17  C   UNL     1      44.552   4.175  10.636  0.00  0.00    +0.000 A 
ENDBRANCH   9  12
ENDBRANCH   5   9
BRANCH   1  19
ATOM     18  N   UNL     1      52.697   9.364  13.278  0.00  0.00    +0.000 NA
ATOM     19  C   UNL     1      51.685   8.808  13.163  0.00  0.00    +0.000 C 
ENDBRANCH   1  19
TORSDOF 3
ENDMDL
