MODEL 1
REMARK VINA RESULT:    -7.842      0.000      0.000
REMARK INTER + INTRA:         -11.928
REMARK INTER:                 -10.592
REMARK INTRA:                  -1.336
REMARK UNBOUND:                -1.336
REMARK  Name = 
REMARK  7 active torsions:
REMARK  status: ('A' for Active; 'I' for Inactive)
REMARK    1  A    between atoms: C_1  and  C_2
REMARK    2  A    between atoms: C_4  and  C_5
REMARK    3  A    between atoms: C_5  and  N_6
REMARK    4  A    between atoms: C_7  and  C_9
REMARK    5  A    between atoms: C_20  and  C_21
REMARK    6  A    between atoms: C_21  and  N_22
REMARK    7  A    between atoms: C_23  and  C_25
REMARK                            x       y       z     vdW  Elec       q    Type
REMARK                         _______ _______ _______ _____ _____    ______ ____
ROOT
ATOM      1  C   UNL     1      49.630   7.311  12.268  0.00  0.00    +0.000 C 
ATOM      2  C   UNL     1      48.216   7.749  12.542  0.00  0.00    +0.000 A 
ATOM      3  C   UNL     1      47.185   7.180  11.766  0.00  0.00    +0.000 A 
ATOM      4  C   UNL     1      45.845   7.559  11.924  0.00  0.00    +0.000 A 
ATOM      5  C   UNL     1      45.535   8.510  12.899  0.00  0.00    +0.000 A 
ATOM      6  C   UNL     1      46.549   9.092  13.669  0.00  0.00    +0.000 A 
ATOM      7  C   UNL     1      47.898   8.723  13.511  0.00  0.00    +0.000 A 
ENDROOT
BRANCH   4   8
ATOM      8  C   UNL     1      44.773   6.931  11.069  0.00  0.00    +0.000 C 
BRANCH   8   9
ATOM      9  N   UNL     1      45.304   5.879  10.237  0.00  0.00    +0.000 N 
ATOM     10  C   UNL     1      44.579   4.736   9.976  0.00  0.00    +0.000 C 
ATOM     11  O   UNL     1      43.440   4.546  10.383  0.00  0.00    +0.000 OA
ATOM     12  H   UNL     1      46.139   6.084   9.700  0.00  0.00    +0.000 HD
BRANCH  10  13
ATOM     13  C   UNL     1      45.250   3.718   9.135  0.00  0.00    +0.000 A 
ATOM     14  C   UNL     1      45.071   2.363   9.421  0.00  0.00    +0.000 A 
ATOM     15  N   UNL     1      45.621   1.320   8.734  0.00  0.00    +0.000 NA
ATOM     16  C   UNL     1      46.405   1.746   7.725  0.00  0.00    +0.000 A 
ATOM     17  N   UNL     1      47.110   0.974   6.847  0.00  0.00    +0.000 N 
ATOM     18  C   UNL     1      47.774   1.818   5.998  0.00  0.00    +0.000 A 
ATOM     19  N   UNL     1      47.538   3.081   6.276  0.00  0.00    +0.000 NA
ATOM     20  C   UNL     1      46.683   3.053   7.349  0.00  0.00    +0.000 A 
ATOM     21  C   UNL     1      46.092   4.089   8.079  0.00  0.00    +0.000 A 
ATOM     22  H   UNL     1      47.128  -0.034   6.845  0.00  0.00    +0.000 HD
ENDBRANCH  10  13
ENDBRANCH   8   9
ENDBRANCH   4   8
BRANCH   7  23
ATOM     23  C   UNL     1      48.939   9.429  14.359  0.00  0.00    +0.000 C 
BRANCH  23  24
ATOM     24  N   UNL     1      49.327   8.623  15.493  0.00  0.00    +0.000 N 
ATOM     25  C   UNL     1      48.716   8.742  16.716  0.00  0.00    +0.000 C 
ATOM     26  O   UNL     1      47.784   9.522  16.910  0.00  0.00    +0.000 OA
ATOM     27  H   UNL     1      50.253   8.211  15.451  0.00  0.00    +0.000 HD
BRANCH  25  28
ATOM     28  C   UNL     1      49.180   7.825  17.769  0.00  0.00    +0.000 A 
ATOM     29  C   UNL     1      49.680   8.326  18.965  0.00  0.00    +0.000 A 
ATOM     30  S   UNL     1      50.032   7.119  20.119  0.00  0.00    +0.000 S 
ATOM     31  C   UNL     1      49.583   5.880  19.043  0.00  0.00    +0.000 A 
ATOM     32  N   UNL     1      49.627   4.573  19.417  0.00  0.00    +0.000 NA
ATOM     33  C   UNL     1      49.276   3.741  18.493  0.00  0.00    +0.000 A 
ATOM     34  N   UNL     1      48.903   4.098  17.222  0.00  0.00    +0.000 N 
ATOM     35  C   UNL     1      48.862   5.403  16.797  0.00  0.00    +0.000 A 
ATOM     36  O   UNL     1      48.559   5.690  15.643  0.00  0.00    +0.000 OA
ATOM     37  C   UNL     1      49.196   6.381  17.814  0.00  0.00    +0.000 A 
ATOM     38  H   UNL     1      48.662   3.399  16.537  0.00  0.00    +0.000 HD
ENDBRANCH  25  28
ENDBRANCH  23  24
ENDBRANCH   7  23
TORSDOF 6
ENDMDL
MODEL 2
REMARK VINA RESULT:    -7.556      3.417      9.085
REMARK INTER + INTRA:         -11.541
REMARK INTER:                 -10.379
REMARK INTRA:                  -1.162
REMARK UNBOUND:                -1.336
REMARK  Name = 
REMARK  7 active torsions:
REMARK  status: ('A' for Active; 'I' for Inactive)
REMARK    1  A    between atoms: C_1  and  C_2
REMARK    2  A    between atoms: C_4  and  C_5
REMARK    3  A    between atoms: C_5  and  N_6
REMARK    4  A    between atoms: C_7  and  C_9
REMARK    5  A    between atoms: C_20  and  C_21
REMARK    6  A    between atoms: C_21  and  N_22
REMARK    7  A    between atoms: C_23  and  C_25
REMARK                            x       y       z     vdW  Elec       q    Type
REMARK                         _______ _______ _______ _____ _____    ______ ____
ROOT
ATOM      1  C   UNL     1      50.401   8.063  11.549  0.00  0.00    +0.000 C 
ATOM      2  C   UNL     1      49.785   7.846  12.905  0.00  0.00    +0.000 A 
ATOM      3  C   UNL     1      50.648   7.704  14.010  0.00  0.00    +0.000 A 
ATOM      4  C   UNL     1      50.162   7.459  15.302  0.00  0.00    +0.000 A 
ATOM      5  C   UNL     1      48.780   7.380  15.487  0.00  0.00    +0.000 A 
ATOM      6  C   UNL     1      47.911   7.508  14.398  0.00  0.00    +0.000 A 
ATOM      7  C   UNL     1      48.391   7.746  13.096  0.00  0.00    +0.000 A 
ENDROOT
BRANCH   4   8
ATOM      8  C   UNL     1      51.120   7.306  16.457  0.00  0.00    +0.000 C 
BRANCH   8   9
ATOM      9  N   UNL     1      51.530   5.933  16.630  0.00  0.00    +0.000 N 
ATOM     10  C   UNL     1      50.861   5.089  17.489  0.00  0.00    +0.000 C 
ATOM     11  O   UNL     1      49.867   5.415  18.126  0.00  0.00    +0.000 OA
ATOM     12  H   UNL     1      52.198   5.558  15.967  0.00  0.00    +0.000 HD
BRANCH  10  13
ATOM     13  C   UNL     1      51.401   3.714  17.601  0.00  0.00    +0.000 A 
ATOM     14  C   UNL     1      50.589   2.627  17.268  0.00  0.00    +0.000 A 
ATOM     15  N   UNL     1      50.951   1.313  17.319  0.00  0.00    +0.000 NA
ATOM     16  C   UNL     1      52.212   1.160  17.764  0.00  0.00    +0.000 A 
ATOM     17  N   UNL     1      52.886  -0.014  17.944  0.00  0.00    +0.000 N 
ATOM     18  C   UNL     1      54.132   0.294  18.420  0.00  0.00    +0.000 A 
ATOM     19  N   UNL     1      54.299   1.592  18.555  0.00  0.00    +0.000 NA
ATOM     20  C   UNL     1      53.112   2.146  18.148  0.00  0.00    +0.000 A 
ATOM     21  C   UNL     1      52.699   3.479  18.072  0.00  0.00    +0.000 A 
ATOM     22  H   UNL     1      52.513  -0.932  17.758  0.00  0.00    +0.000 HD
ENDBRANCH  10  13
ENDBRANCH   8   9
ENDBRANCH   4   8
BRANCH   7  23
ATOM     23  C   UNL     1      47.384   7.834  11.965  0.00  0.00    +0.000 C 
BRANCH  23  24
ATOM     24  N   UNL     1      46.750   6.559  11.725  0.00  0.00    +0.000 N 
ATOM     25  C   UNL     1      45.386   6.409  11.733  0.00  0.00    +0.000 C 
ATOM     26  O   UNL     1      44.623   7.356  11.917  0.00  0.00    +0.000 OA
ATOM     27  H   UNL     1      47.329   5.739  11.870  0.00  0.00    +0.000 HD
BRANCH  25  28
ATOM     28  C   UNL     1      44.876   5.063  11.425  0.00  0.00    +0.000 A 
ATOM     29  C   UNL     1      44.175   4.343  12.385  0.00  0.00    +0.000 A 
ATOM     30  S   UNL     1      43.538   2.869  11.806  0.00  0.00    +0.000 S 
ATOM     31  C   UNL     1      44.223   3.113  10.268  0.00  0.00    +0.000 A 
ATOM     32  N   UNL     1      44.037   2.214   9.264  0.00  0.00    +0.000 NA
ATOM     33  C   UNL     1      44.630   2.519   8.157  0.00  0.00    +0.000 A 
ATOM     34  N   UNL     1      45.407   3.634   7.970  0.00  0.00    +0.000 N 
ATOM     35  C   UNL     1      45.635   4.557   8.960  0.00  0.00    +0.000 A 
ATOM     36  O   UNL     1      46.365   5.527   8.773  0.00  0.00    +0.000 OA
ATOM     37  C   UNL     1      44.948   4.289  10.207  0.00  0.00    +0.000 A 
ATOM     38  H   UNL     1      45.864   3.805   7.087  0.00  0.00    +0.000 HD
ENDBRANCH  25  28
ENDBRANCH  23  24
ENDBRANCH   7  23
TORSDOF 6
ENDMDL
MODEL 3
REMARK VINA RESULT:    -7.414      4.608      7.911
REMARK INTER + INTRA:         -11.350
REMARK INTER:                 -10.182
REMARK INTRA:                  -1.168
REMARK UNBOUND:                -1.336
REMARK  Name = 
REMARK  7 active torsions:
REMARK  status: ('A' for Active; 'I' for Inactive)
REMARK    1  A    between atoms: C_1  and  C_2
REMARK    2  A    between atoms: C_4  and  C_5
REMARK    3  A    between atoms: C_5  and  N_6
REMARK    4  A    between atoms: C_7  and  C_9
REMARK    5  A    between atoms: C_20  and  C_21
REMARK    6  A    between atoms: C_21  and  N_22
REMARK    7  A    between atoms: C_23  and  C_25
REMARK                            x       y       z     vdW  Elec       q    Type
REMARK                         _______ _______ _______ _____ _____    ______ ____
ROOT
ATOM      1  C   UNL     1      47.297  10.956  11.733  0.00  0.00    +0.000 C 
ATOM      2  C   UNL     1      48.117   9.707  11.907  0.00  0.00    +0.000 A 
ATOM      3  C   UNL     1      49.521   9.822  11.849  0.00  0.00    +0.000 A 
ATOM      4  C   UNL     1      50.361   8.705  11.960  0.00  0.00    +0.000 A 
ATOM      5  C   UNL     1      49.776   7.453  12.157  0.00  0.00    +0.000 A 
ATOM      6  C   UNL     1      48.383   7.320  12.206  0.00  0.00    +0.000 A 
ATOM      7  C   UNL     1      47.533   8.435  12.087  0.00  0.00    +0.000 A 
ENDROOT
BRANCH   4   8
ATOM      8  C   UNL     1      51.858   8.871  11.885  0.00  0.00    +0.000 C 
BRANCH   8   9
ATOM      9  N   UNL     1      52.478   7.787  11.160  0.00  0.00    +0.000 N 
ATOM     10  C   UNL     1      52.747   7.889   9.813  0.00  0.00    +0.000 C 
ATOM     11  O   UNL     1      52.529   8.896   9.149  0.00  0.00    +0.000 OA
ATOM     12  H   UNL     1      52.877   7.030  11.702  0.00  0.00    +0.000 HD
BRANCH  10  13
ATOM     13  C   UNL     1      53.354   6.695   9.179  0.00  0.00    +0.000 A 
ATOM     14  C   UNL     1      54.289   5.939   9.890  0.00  0.00    +0.000 A 
ATOM     15  N   UNL     1      54.923   4.819   9.436  0.00  0.00    +0.000 NA
ATOM     16  C   UNL     1      54.563   4.518   8.175  0.00  0.00    +0.000 A 
ATOM     17  N   UNL     1      55.010   3.474   7.417  0.00  0.00    +0.000 N 
ATOM     18  C   UNL     1      54.391   3.554   6.198  0.00  0.00    +0.000 A 
ATOM     19  N   UNL     1      53.576   4.584   6.128  0.00  0.00    +0.000 NA
ATOM     20  C   UNL     1      53.670   5.194   7.354  0.00  0.00    +0.000 A 
ATOM     21  C   UNL     1      53.038   6.332   7.863  0.00  0.00    +0.000 A 
ATOM     22  H   UNL     1      55.678   2.781   7.719  0.00  0.00    +0.000 HD
ENDBRANCH  10  13
ENDBRANCH   8   9
ENDBRANCH   4   8
BRANCH   7  23
ATOM     23  C   UNL     1      46.034   8.201  12.113  0.00  0.00    +0.000 C 
BRANCH  23  24
ATOM     24  N   UNL     1      45.715   6.812  11.881  0.00  0.00    +0.000 N 
ATOM     25  C   UNL     1      44.466   6.407  11.483  0.00  0.00    +0.000 C 
ATOM     26  O   UNL     1      43.553   7.205  11.274  0.00  0.00    +0.000 OA
ATOM     27  H   UNL     1      46.328   6.135  12.322  0.00  0.00    +0.000 HD
BRANCH  25  28
ATOM     28  C   UNL     1      44.296   4.965  11.237  0.00  0.00    +0.000 A 
ATOM     29  C   UNL     1      43.583   4.181  12.136  0.00  0.00    +0.000 A 
ATOM     30  S   UNL     1      43.365   2.570  11.616  0.00  0.00    +0.000 S 
ATOM     31  C   UNL     1      44.263   2.847  10.198  0.00  0.00    +0.000 A 
ATOM     32  N   UNL     1      44.448   1.862   9.278  0.00  0.00    +0.000 NA
ATOM     33  C   UNL     1      45.165   2.210   8.261  0.00  0.00    +0.000 A 
ATOM     34  N   UNL     1      45.730   3.448   8.091  0.00  0.00    +0.000 N 
ATOM     35  C   UNL     1      45.584   4.464   9.002  0.00  0.00    +0.000 A 
ATOM     36  O   UNL     1      46.132   5.551   8.840  0.00  0.00    +0.000 OA
ATOM     37  C   UNL     1      44.743   4.142  10.137  0.00  0.00    +0.000 A 
ATOM     38  H   UNL     1      46.300   3.651   7.284  0.00  0.00    +0.000 HD
ENDBRANCH  25  28
ENDBRANCH  23  24
ENDBRANCH   7  23
TORSDOF 6
ENDMDL
MODEL 4
REMARK VINA RESULT:    -6.622      5.214      7.769
REMARK INTER + INTRA:         -10.281
REMARK INTER:                  -9.269
REMARK INTRA:                  -1.011
REMARK UNBOUND:                -1.336
REMARK  Name = 
REMARK  7 active torsions:
REMARK  status: ('A' for Active; 'I' for Inactive)
REMARK    1  A    between atoms: C_1  and  C_2
REMARK    2  A    between atoms: C_4  and  C_5
REMARK    3  A    between atoms: C_5  and  N_6
REMARK    4  A    between atoms: C_7  and  C_9
REMARK    5  A    between atoms: C_20  and  C_21
REMARK    6  A    between atoms: C_21  and  N_22
REMARK    7  A    between atoms: C_23  and  C_25
REMARK                            x       y       z     vdW  Elec       q    Type
REMARK                         _______ _______ _______ _____ _____    ______ ____
ROOT
ATOM      1  C   UNL     1      49.628  11.302  10.521  0.00  0.00    +0.000 C 
ATOM      2  C   UNL     1      49.938  10.238  11.540  0.00  0.00    +0.000 A 
ATOM      3  C   UNL     1      48.877   9.749  12.330  0.00  0.00    +0.000 A 
ATOM      4  C   UNL     1      49.082   8.789  13.330  0.00  0.00    +0.000 A 
ATOM      5  C   UNL     1      50.374   8.294  13.521  0.00  0.00    +0.000 A 
ATOM      6  C   UNL     1      51.439   8.777  12.752  0.00  0.00    +0.000 A 
ATOM      7  C   UNL     1      51.244   9.748  11.751  0.00  0.00    +0.000 A 
ENDROOT
BRANCH   4   8
ATOM      8  C   UNL     1      47.922   8.297  14.159  0.00  0.00    +0.000 C 
BRANCH   8   9
ATOM      9  N   UNL     1      47.324   7.114  13.589  0.00  0.00    +0.000 N 
ATOM     10  C   UNL     1      46.169   7.184  12.841  0.00  0.00    +0.000 C 
ATOM     11  O   UNL     1      45.596   8.233  12.571  0.00  0.00    +0.000 OA
ATOM     12  H   UNL     1      47.875   6.263  13.594  0.00  0.00    +0.000 HD
BRANCH  10  13
ATOM     13  C   UNL     1      45.639   5.895  12.339  0.00  0.00    +0.000 A 
ATOM     14  C   UNL     1      45.308   4.887  13.247  0.00  0.00    +0.000 A 
ATOM     15  N   UNL     1      44.810   3.657  12.930  0.00  0.00    +0.000 NA
ATOM     16  C   UNL     1      44.687   3.496  11.599  0.00  0.00    +0.000 A 
ATOM     17  N   UNL     1      44.231   2.390  10.941  0.00  0.00    +0.000 N 
ATOM     18  C   UNL     1      44.284   2.656   9.600  0.00  0.00    +0.000 A 
ATOM     19  N   UNL     1      44.746   3.864   9.357  0.00  0.00    +0.000 NA
ATOM     20  C   UNL     1      44.999   4.401  10.594  0.00  0.00    +0.000 A 
ATOM     21  C   UNL     1      45.501   5.652  10.966  0.00  0.00    +0.000 A 
ATOM     22  H   UNL     1      43.919   1.539  11.383  0.00  0.00    +0.000 HD
ENDBRANCH  10  13
ENDBRANCH   8   9
ENDBRANCH   4   8
BRANCH   7  23
ATOM     23  C   UNL     1      52.456  10.246  10.988  0.00  0.00    +0.000 C 
BRANCH  23  24
ATOM     24  N   UNL     1      52.586   9.579   9.713  0.00  0.00    +0.000 N 
ATOM     25  C   UNL     1      53.721   8.895   9.360  0.00  0.00    +0.000 C 
ATOM     26  O   UNL     1      54.684   8.786  10.118  0.00  0.00    +0.000 OA
ATOM     27  H   UNL     1      51.961   9.896   8.980  0.00  0.00    +0.000 HD
BRANCH  25  28
ATOM     28  C   UNL     1      53.697   8.223   8.050  0.00  0.00    +0.000 A 
ATOM     29  C   UNL     1      53.711   8.970   6.879  0.00  0.00    +0.000 A 
ATOM     30  S   UNL     1      53.826   8.023   5.464  0.00  0.00    +0.000 S 
ATOM     31  C   UNL     1      53.803   6.578   6.362  0.00  0.00    +0.000 A 
ATOM     32  N   UNL     1      53.895   5.367   5.749  0.00  0.00    +0.000 NA
ATOM     33  C   UNL     1      53.846   4.357   6.554  0.00  0.00    +0.000 A 
ATOM     34  N   UNL     1      53.695   4.449   7.913  0.00  0.00    +0.000 N 
ATOM     35  C   UNL     1      53.581   5.649   8.571  0.00  0.00    +0.000 A 
ATOM     36  O   UNL     1      53.411   5.698   9.785  0.00  0.00    +0.000 OA
ATOM     37  C   UNL     1      53.683   6.816   7.719  0.00  0.00    +0.000 A 
ATOM     38  H   UNL     1      53.641   3.620   8.486  0.00  0.00    +0.000 HD
ENDBRANCH  25  28
ENDBRANCH  23  24
ENDBRANCH   7  23
TORSDOF 6
ENDMDL
MODEL 5
REMARK VINA RESULT:    -6.607      3.830      8.524
REMARK INTER + INTRA:         -10.260
REMARK INTER:                  -8.867
REMARK INTRA:                  -1.393
REMARK UNBOUND:                -1.336
REMARK  Name = 
REMARK  7 active torsions:
REMARK  status: ('A' for Active; 'I' for Inactive)
REMARK    1  A    between atoms: C_1  and  C_2
REMARK    2  A    between atoms: C_4  and  C_5
REMARK    3  A    between atoms: C_5  and  N_6
REMARK    4  A    between atoms: C_7  and  C_9
REMARK    5  A    between atoms: C_20  and  C_21
REMARK    6  A    between atoms: C_21  and  N_22
REMARK    7  A    between atoms: C_23  and  C_25
REMARK                            x       y       z     vdW  Elec       q    Type
REMARK                         _______ _______ _______ _____ _____    ______ ____
ROOT
ATOM      1  C   UNL     1      51.439   8.514  12.815  0.00  0.00    +0.000 C 
ATOM      2  C   UNL     1      50.628   8.372  14.075  0.00  0.00    +0.000 A 
ATOM      3  C   UNL     1      51.295   7.969  15.250  0.00  0.00    +0.000 A 
ATOM      4  C   UNL     1      50.611   7.772  16.458  0.00  0.00    +0.000 A 
ATOM      5  C   UNL     1      49.235   8.008  16.487  0.00  0.00    +0.000 A 
ATOM      6  C   UNL     1      48.557   8.397  15.326  0.00  0.00    +0.000 A 
ATOM      7  C   UNL     1      49.234   8.589  14.108  0.00  0.00    +0.000 A 
ENDROOT
BRANCH   4   8
ATOM      8  C   UNL     1      51.361   7.334  17.691  0.00  0.00    +0.000 C 
BRANCH   8   9
ATOM      9  N   UNL     1      51.758   5.949  17.609  0.00  0.00    +0.000 N 
ATOM     10  C   UNL     1      50.943   4.942  18.078  0.00  0.00    +0.000 C 
ATOM     11  O   UNL     1      49.829   5.132  18.551  0.00  0.00    +0.000 OA
ATOM     12  H   UNL     1      52.559   5.726  17.030  0.00  0.00    +0.000 HD
BRANCH  10  13
ATOM     13  C   UNL     1      51.480   3.565  17.965  0.00  0.00    +0.000 A 
ATOM     14  C   UNL     1      50.727   2.585  17.314  0.00  0.00    +0.000 A 
ATOM     15  N   UNL     1      51.094   1.283  17.133  0.00  0.00    +0.000 NA
ATOM     16  C   UNL     1      52.293   1.022  17.688  0.00  0.00    +0.000 A 
ATOM     17  N   UNL     1      52.952  -0.174  17.699  0.00  0.00    +0.000 N 
ATOM     18  C   UNL     1      54.127   0.009  18.377  0.00  0.00    +0.000 A 
ATOM     19  N   UNL     1      54.262   1.247  18.801  0.00  0.00    +0.000 NA
ATOM     20  C   UNL     1      53.127   1.892  18.376  0.00  0.00    +0.000 A 
ATOM     21  C   UNL     1      52.713   3.217  18.532  0.00  0.00    +0.000 A 
ATOM     22  H   UNL     1      52.615  -1.027  17.280  0.00  0.00    +0.000 HD
ENDBRANCH  10  13
ENDBRANCH   8   9
ENDBRANCH   4   8
BRANCH   7  23
ATOM     23  C   UNL     1      48.420   8.974  12.887  0.00  0.00    +0.000 C 
BRANCH  23  24
ATOM     24  N   UNL     1      47.480   7.936  12.533  0.00  0.00    +0.000 N 
ATOM     25  C   UNL     1      46.130   8.075  12.735  0.00  0.00    +0.000 C 
ATOM     26  O   UNL     1      45.639   9.102  13.202  0.00  0.00    +0.000 OA
ATOM     27  H   UNL     1      47.863   7.002  12.438  0.00  0.00    +0.000 HD
BRANCH  25  28
ATOM     28  C   UNL     1      45.285   6.958  12.283  0.00  0.00    +0.000 A 
ATOM     29  C   UNL     1      44.177   7.197  11.480  0.00  0.00    +0.000 A 
ATOM     30  S   UNL     1      43.404   5.775  10.937  0.00  0.00    +0.000 S 
ATOM     31  C   UNL     1      44.488   4.789  11.802  0.00  0.00    +0.000 A 
ATOM     32  N   UNL     1      44.399   3.433  11.752  0.00  0.00    +0.000 NA
ATOM     33  C   UNL     1      45.275   2.814  12.472  0.00  0.00    +0.000 A 
ATOM     34  N   UNL     1      46.221   3.429  13.252  0.00  0.00    +0.000 N 
ATOM     35  C   UNL     1      46.335   4.794  13.345  0.00  0.00    +0.000 A 
ATOM     36  O   UNL     1      47.168   5.317  14.080  0.00  0.00    +0.000 OA
ATOM     37  C   UNL     1      45.408   5.537  12.514  0.00  0.00    +0.000 A 
ATOM     38  H   UNL     1      46.863   2.889  13.811  0.00  0.00    +0.000 HD
ENDBRANCH  25  28
ENDBRANCH  23  24
ENDBRANCH   7  23
TORSDOF 6
ENDMDL
MODEL 6
REMARK VINA RESULT:    -6.206      5.452      8.317
REMARK INTER + INTRA:          -9.718
REMARK INTER:                  -8.477
REMARK INTRA:                  -1.240
REMARK UNBOUND:                -1.336
REMARK  Name = 
REMARK  7 active torsions:
REMARK  status: ('A' for Active; 'I' for Inactive)
REMARK    1  A    between atoms: C_1  and  C_2
REMARK    2  A    between atoms: C_4  and  C_5
REMARK    3  A    between atoms: C_5  and  N_6
REMARK    4  A    between atoms: C_7  and  C_9
REMARK    5  A    between atoms: C_20  and  C_21
REMARK    6  A    between atoms: C_21  and  N_22
REMARK    7  A    between atoms: C_23  and  C_25
REMARK                            x       y       z     vdW  Elec       q    Type
REMARK                         _______ _______ _______ _____ _____    ______ ____
ROOT
ATOM      1  C   UNL     1      50.068  11.157  10.385  0.00  0.00    +0.000 C 
ATOM      2  C   UNL     1      50.305  10.206  11.527  0.00  0.00    +0.000 A 
ATOM      3  C   UNL     1      49.206   9.863  12.342  0.00  0.00    +0.000 A 
ATOM      4  C   UNL     1      49.344   9.017  13.451  0.00  0.00    +0.000 A 
ATOM      5  C   UNL     1      50.606   8.489  13.731  0.00  0.00    +0.000 A 
ATOM      6  C   UNL     1      51.708   8.829  12.938  0.00  0.00    +0.000 A 
ATOM      7  C   UNL     1      51.581   9.684  11.827  0.00  0.00    +0.000 A 
ENDROOT
BRANCH   4   8
ATOM      8  C   UNL     1      48.145   8.680  14.302  0.00  0.00    +0.000 C 
BRANCH   8   9
ATOM      9  N   UNL     1      47.354   7.627  13.712  0.00  0.00    +0.000 N 
ATOM     10  C   UNL     1      47.566   6.305  14.038  0.00  0.00    +0.000 C 
ATOM     11  O   UNL     1      48.391   5.931  14.863  0.00  0.00    +0.000 OA
ATOM     12  H   UNL     1      46.521   7.896  13.202  0.00  0.00    +0.000 HD
BRANCH  10  13
ATOM     13  C   UNL     1      46.710   5.317  13.339  0.00  0.00    +0.000 A 
ATOM     14  C   UNL     1      46.787   3.968  13.693  0.00  0.00    +0.000 A 
ATOM     15  N   UNL     1      46.060   2.954  13.140  0.00  0.00    +0.000 NA
ATOM     16  C   UNL     1      45.247   3.398  12.163  0.00  0.00    +0.000 A 
ATOM     17  N   UNL     1      44.392   2.654  11.401  0.00  0.00    +0.000 N 
ATOM     18  C   UNL     1      43.771   3.506  10.528  0.00  0.00    +0.000 A 
ATOM     19  N   UNL     1      44.173   4.748  10.683  0.00  0.00    +0.000 NA
ATOM     20  C   UNL     1      45.091   4.698  11.702  0.00  0.00    +0.000 A 
ATOM     21  C   UNL     1      45.851   5.706  12.302  0.00  0.00    +0.000 A 
ATOM     22  H   UNL     1      44.261   1.657  11.481  0.00  0.00    +0.000 HD
ENDBRANCH  10  13
ENDBRANCH   8   9
ENDBRANCH   4   8
BRANCH   7  23
ATOM     23  C   UNL     1      52.831  10.033  11.042  0.00  0.00    +0.000 C 
BRANCH  23  24
ATOM     24  N   UNL     1      52.999   9.159   9.905  0.00  0.00    +0.000 N 
ATOM     25  C   UNL     1      53.800   8.046   9.952  0.00  0.00    +0.000 C 
ATOM     26  O   UNL     1      54.401   7.713  10.973  0.00  0.00    +0.000 OA
ATOM     27  H   UNL     1      52.774   9.558   9.000  0.00  0.00    +0.000 HD
BRANCH  25  28
ATOM     28  C   UNL     1      53.841   7.220   8.735  0.00  0.00    +0.000 A 
ATOM     29  C   UNL     1      53.651   5.845   8.814  0.00  0.00    +0.000 A 
ATOM     30  S   UNL     1      53.586   5.074   7.293  0.00  0.00    +0.000 S 
ATOM     31  C   UNL     1      53.866   6.540   6.475  0.00  0.00    +0.000 A 
ATOM     32  N   UNL     1      53.909   6.591   5.116  0.00  0.00    +0.000 NA
ATOM     33  C   UNL     1      54.147   7.765   4.634  0.00  0.00    +0.000 A 
ATOM     34  N   UNL     1      54.364   8.890   5.388  0.00  0.00    +0.000 N 
ATOM     35  C   UNL     1      54.348   8.880   6.761  0.00  0.00    +0.000 A 
ATOM     36  O   UNL     1      54.582   9.895   7.410  0.00  0.00    +0.000 OA
ATOM     37  C   UNL     1      54.032   7.596   7.353  0.00  0.00    +0.000 A 
ATOM     38  H   UNL     1      54.569   9.775   4.951  0.00  0.00    +0.000 HD
ENDBRANCH  25  28
ENDBRANCH  23  24
ENDBRANCH   7  23
TORSDOF 6
ENDMDL
MODEL 7
REMARK VINA RESULT:    -6.120      3.028      9.838
REMARK INTER + INTRA:          -9.603
REMARK INTER:                  -8.494
REMARK INTRA:                  -1.109
REMARK UNBOUND:                -1.336
REMARK  Name = 
REMARK  7 active torsions:
REMARK  status: ('A' for Active; 'I' for Inactive)
REMARK    1  A    between atoms: C_1  and  C_2
REMARK    2  A    between atoms: C_4  and  C_5
REMARK    3  A    between atoms: C_5  and  N_6
REMARK    4  A    between atoms: C_7  and  C_9
REMARK    5  A    between atoms: C_20  and  C_21
REMARK    6  A    between atoms: C_21  and  N_22
REMARK    7  A    between atoms: C_23  and  C_25
REMARK                            x       y       z     vdW  Elec       q    Type
REMARK                         _______ _______ _______ _____ _____    ______ ____
ROOT
ATOM      1  C   UNL     1      45.296   9.257  12.352  0.00  0.00    +0.000 C 
ATOM      2  C   UNL     1      46.247   8.247  12.937  0.00  0.00    +0.000 A 
ATOM      3  C   UNL     1      47.447   8.719  13.506  0.00  0.00    +0.000 A 
ATOM      4  C   UNL     1      48.408   7.847  14.036  0.00  0.00    +0.000 A 
ATOM      5  C   UNL     1      48.143   6.476  14.014  0.00  0.00    +0.000 A 
ATOM      6  C   UNL     1      46.961   5.991  13.442  0.00  0.00    +0.000 A 
ATOM      7  C   UNL     1      45.995   6.859  12.900  0.00  0.00    +0.000 A 
ENDROOT
BRANCH   4   8
ATOM      8  C   UNL     1      49.683   8.392  14.630  0.00  0.00    +0.000 C 
BRANCH   8   9
ATOM      9  N   UNL     1      50.291   7.451  15.540  0.00  0.00    +0.000 N 
ATOM     10  C   UNL     1      49.995   7.463  16.886  0.00  0.00    +0.000 C 
ATOM     11  O   UNL     1      49.183   8.225  17.397  0.00  0.00    +0.000 OA
ATOM     12  H   UNL     1      50.790   6.667  15.137  0.00  0.00    +0.000 HD
BRANCH  10  13
ATOM     13  C   UNL     1      50.710   6.467  17.718  0.00  0.00    +0.000 A 
ATOM     14  C   UNL     1      50.719   6.611  19.107  0.00  0.00    +0.000 A 
ATOM     15  N   UNL     1      51.330   5.773  19.994  0.00  0.00    +0.000 NA
ATOM     16  C   UNL     1      51.971   4.767  19.370  0.00  0.00    +0.000 A 
ATOM     17  N   UNL     1      52.688   3.760  19.950  0.00  0.00    +0.000 N 
ATOM     18  C   UNL     1      53.173   2.967  18.946  0.00  0.00    +0.000 A 
ATOM     19  N   UNL     1      52.812   3.402  17.758  0.00  0.00    +0.000 NA
ATOM     20  C   UNL     1      52.059   4.522  18.006  0.00  0.00    +0.000 A 
ATOM     21  C   UNL     1      51.411   5.404  17.135  0.00  0.00    +0.000 A 
ATOM     22  H   UNL     1      52.825   3.642  20.942  0.00  0.00    +0.000 HD
ENDBRANCH  10  13
ENDBRANCH   8   9
ENDBRANCH   4   8
BRANCH   7  23
ATOM     23  C   UNL     1      44.759   6.251  12.265  0.00  0.00    +0.000 C 
BRANCH  23  24
ATOM     24  N   UNL     1      45.097   5.117  11.438  0.00  0.00    +0.000 N 
ATOM     25  C   UNL     1      44.223   4.601  10.514  0.00  0.00    +0.000 C 
ATOM     26  O   UNL     1      43.112   5.091  10.318  0.00  0.00    +0.000 OA
ATOM     27  H   UNL     1      45.850   4.527  11.776  0.00  0.00    +0.000 HD
BRANCH  25  28
ATOM     28  C   UNL     1      44.718   3.474   9.707  0.00  0.00    +0.000 A 
ATOM     29  C   UNL     1      44.241   2.188   9.932  0.00  0.00    +0.000 A 
ATOM     30  S   UNL     1      44.817   1.038   8.809  0.00  0.00    +0.000 S 
ATOM     31  C   UNL     1      45.766   2.205   8.015  0.00  0.00    +0.000 A 
ATOM     32  N   UNL     1      46.513   1.883   6.925  0.00  0.00    +0.000 NA
ATOM     33  C   UNL     1      47.197   2.864   6.437  0.00  0.00    +0.000 A 
ATOM     34  N   UNL     1      47.216   4.135   6.953  0.00  0.00    +0.000 N 
ATOM     35  C   UNL     1      46.492   4.500   8.061  0.00  0.00    +0.000 A 
ATOM     36  O   UNL     1      46.558   5.636   8.521  0.00  0.00    +0.000 OA
ATOM     37  C   UNL     1      45.665   3.447   8.616  0.00  0.00    +0.000 A 
ATOM     38  H   UNL     1      47.791   4.853   6.540  0.00  0.00    +0.000 HD
ENDBRANCH  25  28
ENDBRANCH  23  24
ENDBRANCH   7  23
TORSDOF 6
ENDMDL
MODEL 8
REMARK VINA RESULT:    -6.048      5.039      7.512
REMARK INTER + INTRA:          -9.505
REMARK INTER:                  -8.492
REMARK INTRA:                  -1.013
REMARK UNBOUND:                -1.336
REMARK  Name = 
REMARK  7 active torsions:
REMARK  status: ('A' for Active; 'I' for Inactive)
REMARK    1  A    between atoms: C_1  and  C_2
REMARK    2  A    between atoms: C_4  and  C_5
REMARK    3  A    between atoms: C_5  and  N_6
REMARK    4  A    between atoms: C_7  and  C_9
REMARK    5  A    between atoms: C_20  and  C_21
REMARK    6  A    between atoms: C_21  and  N_22
REMARK    7  A    between atoms: C_23  and  C_25
REMARK                            x       y       z     vdW  Elec       q    Type
REMARK                         _______ _______ _______ _____ _____    ______ ____
ROOT
ATOM      1  C   UNL     1      49.078  11.516  11.003  0.00  0.00    +0.000 C 
ATOM      2  C   UNL     1      49.093  10.092  11.491  0.00  0.00    +0.000 A 
ATOM      3  C   UNL     1      47.892   9.552  11.995  0.00  0.00    +0.000 A 
ATOM      4  C   UNL     1      47.825   8.249  12.507  0.00  0.00    +0.000 A 
ATOM      5  C   UNL     1      48.983   7.468  12.489  0.00  0.00    +0.000 A 
ATOM      6  C   UNL     1      50.185   7.994  12.002  0.00  0.00    +0.000 A 
ATOM      7  C   UNL     1      50.263   9.304  11.493  0.00  0.00    +0.000 A 
ENDROOT
BRANCH   4   8
ATOM      8  C   UNL     1      46.522   7.711  13.044  0.00  0.00    +0.000 C 
BRANCH   8   9
ATOM      9  N   UNL     1      46.157   6.468  12.407  0.00  0.00    +0.000 N 
ATOM     10  C   UNL     1      45.058   6.382  11.581  0.00  0.00    +0.000 C 
ATOM     11  O   UNL     1      44.346   7.337  11.295  0.00  0.00    +0.000 OA
ATOM     12  H   UNL     1      46.833   5.714  12.432  0.00  0.00    +0.000 HD
BRANCH  10  13
ATOM     13  C   UNL     1      44.772   5.043  11.016  0.00  0.00    +0.000 A 
ATOM     14  C   UNL     1      43.771   4.254  11.587  0.00  0.00    +0.000 A 
ATOM     15  N   UNL     1      43.399   3.009  11.171  0.00  0.00    +0.000 NA
ATOM     16  C   UNL     1      44.140   2.589  10.129  0.00  0.00    +0.000 A 
ATOM     17  N   UNL     1      44.040   1.395   9.474  0.00  0.00    +0.000 N 
ATOM     18  C   UNL     1      44.990   1.383   8.489  0.00  0.00    +0.000 A 
ATOM     19  N   UNL     1      45.692   2.496   8.470  0.00  0.00    +0.000 NA
ATOM     20  C   UNL     1      45.172   3.259   9.485  0.00  0.00    +0.000 A 
ATOM     21  C   UNL     1      45.514   4.535   9.941  0.00  0.00    +0.000 A 
ATOM     22  H   UNL     1      43.380   0.665   9.695  0.00  0.00    +0.000 HD
ENDBRANCH  10  13
ENDBRANCH   8   9
ENDBRANCH   4   8
BRANCH   7  23
ATOM     23  C   UNL     1      51.613   9.811  11.020  0.00  0.00    +0.000 C 
BRANCH  23  24
ATOM     24  N   UNL     1      52.157   8.965   9.983  0.00  0.00    +0.000 N 
ATOM     25  C   UNL     1      53.186   8.089  10.222  0.00  0.00    +0.000 C 
ATOM     26  O   UNL     1      53.687   7.953  11.338  0.00  0.00    +0.000 OA
ATOM     27  H   UNL     1      51.984   9.262   9.030  0.00  0.00    +0.000 HD
BRANCH  25  28
ATOM     28  C   UNL     1      53.610   7.255   9.085  0.00  0.00    +0.000 A 
ATOM     29  C   UNL     1      53.912   5.912   9.276  0.00  0.00    +0.000 A 
ATOM     30  S   UNL     1      54.241   5.073   7.826  0.00  0.00    +0.000 S 
ATOM     31  C   UNL     1      54.047   6.485   6.898  0.00  0.00    +0.000 A 
ATOM     32  N   UNL     1      54.174   6.460   5.544  0.00  0.00    +0.000 NA
ATOM     33  C   UNL     1      54.018   7.608   4.972  0.00  0.00    +0.000 A 
ATOM     34  N   UNL     1      53.766   8.782   5.634  0.00  0.00    +0.000 N 
ATOM     35  C   UNL     1      53.648   8.856   7.000  0.00  0.00    +0.000 A 
ATOM     36  O   UNL     1      53.458   9.928   7.568  0.00  0.00    +0.000 OA
ATOM     37  C   UNL     1      53.761   7.585   7.686  0.00  0.00    +0.000 A 
ATOM     38  H   UNL     1      53.678   9.652   5.132  0.00  0.00    +0.000 HD
ENDBRANCH  25  28
ENDBRANCH  23  24
ENDBRANCH   7  23
TORSDOF 6
ENDMDL
