MODEL 1
REMARK VINA RESULT:    -7.966      0.000      0.000
REMARK INTER + INTRA:         -13.117
REMARK INTER:                 -11.691
REMARK INTRA:                  -1.427
REMARK UNBOUND:                -1.427
REMARK  Name = 
REMARK  9 active torsions:
REMARK  status: ('A' for Active; 'I' for Inactive)
REMARK    1  A    between atoms: C_1  and  O_2
REMARK    2  A    between atoms: O_2  and  C_3
REMARK    3  A    between atoms: C_7  and  C_8
REMARK    4  A    between atoms: C_8  and  N_9
REMARK    5  A    between atoms: N_9  and  C_10
REMARK    6  A    between atoms: C_10  and  C_11
REMARK    7  A    between atoms: C_14  and  C_15
REMARK    8  A    between atoms: C_15  and  N_16
REMARK    9  A    between atoms: C_17  and  C_19
REMARK                            x       y       z     vdW  Elec       q    Type
REMARK                         _______ _______ _______ _____ _____    ______ ____
ROOT
ATOM      1  C   UNL     1      44.526   5.168  11.879  0.00  0.00    +0.000 A 
ATOM      2  C   UNL     1      45.268   6.218  11.314  0.00  0.00    +0.000 A 
ATOM      3  C   UNL     1      46.469   6.644  11.885  0.00  0.00    +0.000 A 
ATOM      4  C   UNL     1      46.964   6.028  13.042  0.00  0.00    +0.000 A 
ATOM      5  C   UNL     1      46.218   4.984  13.612  0.00  0.00    +0.000 A 
ATOM      6  C   UNL     1      45.018   4.551  13.034  0.00  0.00    +0.000 A 
ENDROOT
BRANCH   1   7
ATOM      7  C   UNL     1      43.210   4.755  11.255  0.00  0.00    +0.000 C 
BRANCH   7   8
ATOM      8  N   UNL     1      43.434   4.243   9.906  0.00  0.00    +0.000 NA
ATOM      9  H   UNL     1      42.535   4.110   9.449  0.00  0.00    +0.000 HD
BRANCH   8  10
ATOM     10  C   UNL     1      44.140   2.967   9.883  0.00  0.00    +0.000 C 
BRANCH  10  15
ATOM     11  C   UNL     1      46.765   1.824   7.354  0.00  0.00    +0.000 A 
ATOM     12  C   UNL     1      47.200   3.042   6.836  0.00  0.00    +0.000 A 
ATOM     13  C   UNL     1      46.706   4.240   7.349  0.00  0.00    +0.000 A 
ATOM     14  C   UNL     1      45.748   4.227   8.365  0.00  0.00    +0.000 A 
ATOM     15  C   UNL     1      45.263   3.011   8.869  0.00  0.00    +0.000 A 
ATOM     16  C   UNL     1      45.807   1.816   8.374  0.00  0.00    +0.000 A 
BRANCH  11  18
ATOM     17  C   UNL     1      46.642  -0.524   7.649  0.00  0.00    +0.000 C 
ATOM     18  O   UNL     1      47.172   0.586   6.936  0.00  0.00    +0.000 OA
ENDBRANCH  11  18
ENDBRANCH  10  15
ENDBRANCH   8  10
ENDBRANCH   7   8
ENDBRANCH   1   7
BRANCH   4  19
ATOM     19  C   UNL     1      48.257   6.473  13.683  0.00  0.00    +0.000 C 
BRANCH  19  20
ATOM     20  N   UNL     1      48.179   6.479  15.121  0.00  0.00    +0.000 N 
ATOM     21  C   UNL     1      49.006   7.257  15.894  0.00  0.00    +0.000 C 
ATOM     22  O   UNL     1      49.857   8.001  15.416  0.00  0.00    +0.000 OA
ATOM     23  H   UNL     1      47.728   5.681  15.556  0.00  0.00    +0.000 HD
BRANCH  21  24
ATOM     24  C   UNL     1      48.752   7.201  17.339  0.00  0.00    +0.000 A 
ATOM     25  C   UNL     1      48.383   8.350  18.029  0.00  0.00    +0.000 A 
ATOM     26  S   UNL     1      48.064   8.069  19.682  0.00  0.00    +0.000 S 
ATOM     27  C   UNL     1      48.461   6.420  19.541  0.00  0.00    +0.000 A 
ATOM     28  N   UNL     1      48.411   5.592  20.620  0.00  0.00    +0.000 NA
ATOM     29  C   UNL     1      48.771   4.386  20.364  0.00  0.00    +0.000 A 
ATOM     30  N   UNL     1      49.163   3.908  19.143  0.00  0.00    +0.000 N 
ATOM     31  C   UNL     1      49.165   4.692  18.020  0.00  0.00    +0.000 A 
ATOM     32  O   UNL     1      49.431   4.222  16.917  0.00  0.00    +0.000 OA
ATOM     33  C   UNL     1      48.806   6.081  18.248  0.00  0.00    +0.000 A 
ATOM     34  H   UNL     1      49.401   2.936  19.022  0.00  0.00    +0.000 HD
ENDBRANCH  21  24
ENDBRANCH  19  20
ENDBRANCH   4  19
TORSDOF 8
ENDMDL
MODEL 2
REMARK VINA RESULT:    -7.379      3.041      8.762
REMARK INTER + INTRA:         -12.256
REMARK INTER:                 -10.376
REMARK INTRA:                  -1.880
REMARK UNBOUND:                -1.427
REMARK  Name = 
REMARK  9 active torsions:
REMARK  status: ('A' for Active; 'I' for Inactive)
REMARK    1  A    between atoms: C_1  and  O_2
REMARK    2  A    between atoms: O_2  and  C_3
REMARK    3  A    between atoms: C_7  and  C_8
REMARK    4  A    between atoms: C_8  and  N_9
REMARK    5  A    between atoms: N_9  and  C_10
REMARK    6  A    between atoms: C_10  and  C_11
REMARK    7  A    between atoms: C_14  and  C_15
REMARK    8  A    between atoms: C_15  and  N_16
REMARK    9  A    between atoms: C_17  and  C_19
REMARK                            x       y       z     vdW  Elec       q    Type
REMARK                         _______ _______ _______ _____ _____    ______ ____
ROOT
ATOM      1  C   UNL     1      49.371   8.161  15.517  0.00  0.00    +0.000 A 
ATOM      2  C   UNL     1      48.161   8.828  15.265  0.00  0.00    +0.000 A 
ATOM      3  C   UNL     1      47.520   8.722  14.029  0.00  0.00    +0.000 A 
ATOM      4  C   UNL     1      48.074   7.943  13.005  0.00  0.00    +0.000 A 
ATOM      5  C   UNL     1      49.288   7.283  13.254  0.00  0.00    +0.000 A 
ATOM      6  C   UNL     1      49.926   7.382  14.496  0.00  0.00    +0.000 A 
ENDROOT
BRANCH   1   7
ATOM      7  C   UNL     1      50.057   8.326  16.856  0.00  0.00    +0.000 C 
BRANCH   7   8
ATOM      8  N   UNL     1      49.598   7.296  17.784  0.00  0.00    +0.000 NA
ATOM      9  H   UNL     1      49.472   7.713  18.704  0.00  0.00    +0.000 HD
BRANCH   8  10
ATOM     10  C   UNL     1      50.533   6.185  17.921  0.00  0.00    +0.000 C 
BRANCH  10  15
ATOM     11  C   UNL     1      47.999   3.727  16.464  0.00  0.00    +0.000 A 
ATOM     12  C   UNL     1      48.650   2.510  16.655  0.00  0.00    +0.000 A 
ATOM     13  C   UNL     1      49.875   2.466  17.319  0.00  0.00    +0.000 A 
ATOM     14  C   UNL     1      50.472   3.644  17.772  0.00  0.00    +0.000 A 
ATOM     15  C   UNL     1      49.854   4.885  17.549  0.00  0.00    +0.000 A 
ATOM     16  C   UNL     1      48.598   4.905  16.921  0.00  0.00    +0.000 A 
BRANCH  11  18
ATOM     17  C   UNL     1      46.834   4.629  14.608  0.00  0.00    +0.000 C 
ATOM     18  O   UNL     1      46.799   3.899  15.829  0.00  0.00    +0.000 OA
ENDBRANCH  11  18
ENDBRANCH  10  15
ENDBRANCH   8  10
ENDBRANCH   7   8
ENDBRANCH   1   7
BRANCH   4  19
ATOM     19  C   UNL     1      47.405   7.816  11.658  0.00  0.00    +0.000 C 
BRANCH  19  20
ATOM     20  N   UNL     1      46.714   6.561  11.508  0.00  0.00    +0.000 N 
ATOM     21  C   UNL     1      45.347   6.464  11.602  0.00  0.00    +0.000 C 
ATOM     22  O   UNL     1      44.625   7.434  11.812  0.00  0.00    +0.000 OA
ATOM     23  H   UNL     1      47.264   5.720  11.642  0.00  0.00    +0.000 HD
BRANCH  21  24
ATOM     24  C   UNL     1      44.794   5.127  11.356  0.00  0.00    +0.000 A 
ATOM     25  C   UNL     1      44.024   4.499  12.328  0.00  0.00    +0.000 A 
ATOM     26  S   UNL     1      43.413   2.984  11.830  0.00  0.00    +0.000 S 
ATOM     27  C   UNL     1      44.200   3.094  10.325  0.00  0.00    +0.000 A 
ATOM     28  N   UNL     1      44.100   2.095   9.407  0.00  0.00    +0.000 NA
ATOM     29  C   UNL     1      44.776   2.306   8.336  0.00  0.00    +0.000 A 
ATOM     30  N   UNL     1      45.534   3.415   8.071  0.00  0.00    +0.000 N 
ATOM     31  C   UNL     1      45.609   4.471   8.940  0.00  0.00    +0.000 A 
ATOM     32  O   UNL     1      46.217   5.496   8.645  0.00  0.00    +0.000 OA
ATOM     33  C   UNL     1      44.897   4.279  10.192  0.00  0.00    +0.000 A 
ATOM     34  H   UNL     1      46.009   3.516   7.188  0.00  0.00    +0.000 HD
ENDBRANCH  21  24
ENDBRANCH  19  20
ENDBRANCH   4  19
TORSDOF 8
ENDMDL
MODEL 3
REMARK VINA RESULT:    -7.119      1.370      2.028
REMARK INTER + INTRA:         -11.875
REMARK INTER:                 -11.180
REMARK INTRA:                  -0.696
REMARK UNBOUND:                -1.427
REMARK  Name = 
REMARK  9 active torsions:
REMARK  status: ('A' for Active; 'I' for Inactive)
REMARK    1  A    between atoms: C_1  and  O_2
REMARK    2  A    between atoms: O_2  and  C_3
REMARK    3  A    between atoms: C_7  and  C_8
REMARK    4  A    between atoms: C_8  and  N_9
REMARK    5  A    between atoms: N_9  and  C_10
REMARK    6  A    between atoms: C_10  and  C_11
REMARK    7  A    between atoms: C_14  and  C_15
REMARK    8  A    between atoms: C_15  and  N_16
REMARK    9  A    between atoms: C_17  and  C_19
REMARK                            x       y       z     vdW  Elec       q    Type
REMARK                         _______ _______ _______ _____ _____    ______ ____
ROOT
ATOM      1  C   UNL     1      44.343   5.715  11.513  0.00  0.00    +0.000 A 
ATOM      2  C   UNL     1      45.375   5.050  12.194  0.00  0.00    +0.000 A 
ATOM      3  C   UNL     1      46.398   5.759  12.827  0.00  0.00    +0.000 A 
ATOM      4  C   UNL     1      46.418   7.160  12.796  0.00  0.00    +0.000 A 
ATOM      5  C   UNL     1      45.392   7.824  12.107  0.00  0.00    +0.000 A 
ATOM      6  C   UNL     1      44.360   7.114  11.479  0.00  0.00    +0.000 A 
ENDROOT
BRANCH   1   7
ATOM      7  C   UNL     1      43.269   4.915  10.807  0.00  0.00    +0.000 C 
BRANCH   7   8
ATOM      8  N   UNL     1      43.631   4.717   9.406  0.00  0.00    +0.000 NA
ATOM      9  H   UNL     1      43.340   3.785   9.118  0.00  0.00    +0.000 HD
BRANCH   8  10
ATOM     10  C   UNL     1      45.064   4.833   9.159  0.00  0.00    +0.000 C 
BRANCH  10  15
ATOM     11  C   UNL     1      47.195   2.420   7.102  0.00  0.00    +0.000 A 
ATOM     12  C   UNL     1      46.753   1.186   7.575  0.00  0.00    +0.000 A 
ATOM     13  C   UNL     1      45.716   1.121   8.504  0.00  0.00    +0.000 A 
ATOM     14  C   UNL     1      45.133   2.293   8.990  0.00  0.00    +0.000 A 
ATOM     15  C   UNL     1      45.595   3.547   8.561  0.00  0.00    +0.000 A 
ATOM     16  C   UNL     1      46.607   3.592   7.589  0.00  0.00    +0.000 A 
BRANCH  11  18
ATOM     17  C   UNL     1      47.882   2.344   4.835  0.00  0.00    +0.000 C 
ATOM     18  O   UNL     1      48.201   2.614   6.195  0.00  0.00    +0.000 OA
ENDBRANCH  11  18
ENDBRANCH  10  15
ENDBRANCH   8  10
ENDBRANCH   7   8
ENDBRANCH   1   7
BRANCH   4  19
ATOM     19  C   UNL     1      47.515   7.950  13.467  0.00  0.00    +0.000 C 
BRANCH  19  20
ATOM     20  N   UNL     1      47.869   7.409  14.754  0.00  0.00    +0.000 N 
ATOM     21  C   UNL     1      49.153   7.029  15.059  0.00  0.00    +0.000 C 
ATOM     22  O   UNL     1      50.083   7.130  14.265  0.00  0.00    +0.000 OA
ATOM     23  H   UNL     1      47.111   7.027  15.311  0.00  0.00    +0.000 HD
BRANCH  21  24
ATOM     24  C   UNL     1      49.360   6.562  16.436  0.00  0.00    +0.000 A 
ATOM     25  C   UNL     1      50.092   7.332  17.332  0.00  0.00    +0.000 A 
ATOM     26  S   UNL     1      50.162   6.657  18.899  0.00  0.00    +0.000 S 
ATOM     27  C   UNL     1      49.266   5.293  18.417  0.00  0.00    +0.000 A 
ATOM     28  N   UNL     1      48.980   4.296  19.297  0.00  0.00    +0.000 NA
ATOM     29  C   UNL     1      48.327   3.319  18.778  0.00  0.00    +0.000 A 
ATOM     30  N   UNL     1      47.915   3.231  17.477  0.00  0.00    +0.000 N 
ATOM     31  C   UNL     1      48.126   4.241  16.575  0.00  0.00    +0.000 A 
ATOM     32  O   UNL     1      47.667   4.184  15.438  0.00  0.00    +0.000 OA
ATOM     33  C   UNL     1      48.895   5.362  17.089  0.00  0.00    +0.000 A 
ATOM     34  H   UNL     1      47.378   2.440  17.158  0.00  0.00    +0.000 HD
ENDBRANCH  21  24
ENDBRANCH  19  20
ENDBRANCH   4  19
TORSDOF 8
ENDMDL
MODEL 4
REMARK VINA RESULT:    -7.080      2.991      8.965
REMARK INTER + INTRA:         -11.818
REMARK INTER:                 -10.183
REMARK INTRA:                  -1.635
REMARK UNBOUND:                -1.427
REMARK  Name = 
REMARK  9 active torsions:
REMARK  status: ('A' for Active; 'I' for Inactive)
REMARK    1  A    between atoms: C_1  and  O_2
REMARK    2  A    between atoms: O_2  and  C_3
REMARK    3  A    between atoms: C_7  and  C_8
REMARK    4  A    between atoms: C_8  and  N_9
REMARK    5  A    between atoms: N_9  and  C_10
REMARK    6  A    between atoms: C_10  and  C_11
REMARK    7  A    between atoms: C_14  and  C_15
REMARK    8  A    between atoms: C_15  and  N_16
REMARK    9  A    between atoms: C_17  and  C_19
REMARK                            x       y       z     vdW  Elec       q    Type
REMARK                         _______ _______ _______ _____ _____    ______ ____
ROOT
ATOM      1  C   UNL     1      48.810   7.988  16.160  0.00  0.00    +0.000 A 
ATOM      2  C   UNL     1      48.288   9.106  15.490  0.00  0.00    +0.000 A 
ATOM      3  C   UNL     1      47.832   9.013  14.173  0.00  0.00    +0.000 A 
ATOM      4  C   UNL     1      47.886   7.792  13.487  0.00  0.00    +0.000 A 
ATOM      5  C   UNL     1      48.416   6.677  14.154  0.00  0.00    +0.000 A 
ATOM      6  C   UNL     1      48.865   6.768  15.477  0.00  0.00    +0.000 A 
ENDROOT
BRANCH   1   7
ATOM      7  C   UNL     1      49.329   8.133  17.575  0.00  0.00    +0.000 C 
BRANCH   7   8
ATOM      8  N   UNL     1      48.369   7.569  18.520  0.00  0.00    +0.000 NA
ATOM      9  H   UNL     1      48.138   8.275  19.216  0.00  0.00    +0.000 HD
BRANCH   8  10
ATOM     10  C   UNL     1      48.874   6.396  19.224  0.00  0.00    +0.000 C 
BRANCH  10  15
ATOM     11  C   UNL     1      49.532   3.126  17.362  0.00  0.00    +0.000 A 
ATOM     12  C   UNL     1      48.238   2.729  17.031  0.00  0.00    +0.000 A 
ATOM     13  C   UNL     1      47.152   3.546  17.340  0.00  0.00    +0.000 A 
ATOM     14  C   UNL     1      47.351   4.755  18.010  0.00  0.00    +0.000 A 
ATOM     15  C   UNL     1      48.642   5.151  18.393  0.00  0.00    +0.000 A 
ATOM     16  C   UNL     1      49.727   4.338  18.031  0.00  0.00    +0.000 A 
BRANCH  11  18
ATOM     17  C   UNL     1      51.871   2.925  17.689  0.00  0.00    +0.000 C 
ATOM     18  O   UNL     1      50.674   2.413  17.115  0.00  0.00    +0.000 OA
ENDBRANCH  11  18
ENDBRANCH  10  15
ENDBRANCH   8  10
ENDBRANCH   7   8
ENDBRANCH   1   7
BRANCH   4  19
ATOM     19  C   UNL     1      47.405   7.665  12.061  0.00  0.00    +0.000 C 
BRANCH  19  20
ATOM     20  N   UNL     1      46.718   6.421  11.827  0.00  0.00    +0.000 N 
ATOM     21  C   UNL     1      45.348   6.339  11.784  0.00  0.00    +0.000 C 
ATOM     22  O   UNL     1      44.619   7.315  11.936  0.00  0.00    +0.000 OA
ATOM     23  H   UNL     1      47.244   5.571  12.002  0.00  0.00    +0.000 HD
BRANCH  21  24
ATOM     24  C   UNL     1      44.807   5.013  11.466  0.00  0.00    +0.000 A 
ATOM     25  C   UNL     1      44.056   4.319  12.408  0.00  0.00    +0.000 A 
ATOM     26  S   UNL     1      43.456   2.829  11.828  0.00  0.00    +0.000 S 
ATOM     27  C   UNL     1      44.224   3.038  10.323  0.00  0.00    +0.000 A 
ATOM     28  N   UNL     1      44.124   2.093   9.349  0.00  0.00    +0.000 NA
ATOM     29  C   UNL     1      44.784   2.376   8.284  0.00  0.00    +0.000 A 
ATOM     30  N   UNL     1      45.526   3.507   8.077  0.00  0.00    +0.000 N 
ATOM     31  C   UNL     1      45.599   4.511   9.006  0.00  0.00    +0.000 A 
ATOM     32  O   UNL     1      46.193   5.559   8.765  0.00  0.00    +0.000 OA
ATOM     33  C   UNL     1      44.905   4.236  10.253  0.00  0.00    +0.000 A 
ATOM     34  H   UNL     1      45.990   3.666   7.196  0.00  0.00    +0.000 HD
ENDBRANCH  21  24
ENDBRANCH  19  20
ENDBRANCH   4  19
TORSDOF 8
ENDMDL
MODEL 5
REMARK VINA RESULT:    -6.916      3.647      8.239
REMARK INTER + INTRA:         -11.577
REMARK INTER:                  -9.587
REMARK INTRA:                  -1.990
REMARK UNBOUND:                -1.427
REMARK  Name = 
REMARK  9 active torsions:
REMARK  status: ('A' for Active; 'I' for Inactive)
REMARK    1  A    between atoms: C_1  and  O_2
REMARK    2  A    between atoms: O_2  and  C_3
REMARK    3  A    between atoms: C_7  and  C_8
REMARK    4  A    between atoms: C_8  and  N_9
REMARK    5  A    between atoms: N_9  and  C_10
REMARK    6  A    between atoms: C_10  and  C_11
REMARK    7  A    between atoms: C_14  and  C_15
REMARK    8  A    between atoms: C_15  and  N_16
REMARK    9  A    between atoms: C_17  and  C_19
REMARK                            x       y       z     vdW  Elec       q    Type
REMARK                         _______ _______ _______ _____ _____    ______ ____
ROOT
ATOM      1  C   UNL     1      49.225   7.925  18.614  0.00  0.00    +0.000 A 
ATOM      2  C   UNL     1      49.814   7.418  17.445  0.00  0.00    +0.000 A 
ATOM      3  C   UNL     1      49.459   7.906  16.186  0.00  0.00    +0.000 A 
ATOM      4  C   UNL     1      48.500   8.919  16.060  0.00  0.00    +0.000 A 
ATOM      5  C   UNL     1      47.904   9.420  17.228  0.00  0.00    +0.000 A 
ATOM      6  C   UNL     1      48.266   8.938  18.492  0.00  0.00    +0.000 A 
ENDROOT
BRANCH   1   7
ATOM      7  C   UNL     1      49.606   7.349  19.961  0.00  0.00    +0.000 C 
BRANCH   7   8
ATOM      8  N   UNL     1      50.200   6.026  19.790  0.00  0.00    +0.000 NA
ATOM      9  H   UNL     1      50.521   5.930  18.829  0.00  0.00    +0.000 HD
BRANCH   8  10
ATOM     10  C   UNL     1      49.269   4.936  20.061  0.00  0.00    +0.000 C 
BRANCH  10  15
ATOM     11  C   UNL     1      49.266   2.680  16.979  0.00  0.00    +0.000 A 
ATOM     12  C   UNL     1      47.989   2.908  16.468  0.00  0.00    +0.000 A 
ATOM     13  C   UNL     1      47.149   3.844  17.070  0.00  0.00    +0.000 A 
ATOM     14  C   UNL     1      47.571   4.537  18.207  0.00  0.00    +0.000 A 
ATOM     15  C   UNL     1      48.835   4.289  18.763  0.00  0.00    +0.000 A 
ATOM     16  C   UNL     1      49.684   3.378  18.116  0.00  0.00    +0.000 A 
BRANCH  11  18
ATOM     17  C   UNL     1      51.284   1.486  17.321  0.00  0.00    +0.000 C 
ATOM     18  O   UNL     1      50.178   1.790  16.480  0.00  0.00    +0.000 OA
ENDBRANCH  11  18
ENDBRANCH  10  15
ENDBRANCH   8  10
ENDBRANCH   7   8
ENDBRANCH   1   7
BRANCH   4  19
ATOM     19  C   UNL     1      48.094   9.460  14.710  0.00  0.00    +0.000 C 
BRANCH  19  20
ATOM     20  N   UNL     1      47.047   8.681  14.102  0.00  0.00    +0.000 N 
ATOM     21  C   UNL     1      47.233   7.999  12.924  0.00  0.00    +0.000 C 
ATOM     22  O   UNL     1      48.299   8.003  12.316  0.00  0.00    +0.000 OA
ATOM     23  H   UNL     1      46.097   8.893  14.388  0.00  0.00    +0.000 HD
BRANCH  21  24
ATOM     24  C   UNL     1      46.089   7.196  12.475  0.00  0.00    +0.000 A 
ATOM     25  C   UNL     1      45.021   7.804  11.825  0.00  0.00    +0.000 A 
ATOM     26  S   UNL     1      43.823   6.697  11.318  0.00  0.00    +0.000 S 
ATOM     27  C   UNL     1      44.665   5.383  11.997  0.00  0.00    +0.000 A 
ATOM     28  N   UNL     1      44.166   4.119  11.927  0.00  0.00    +0.000 NA
ATOM     29  C   UNL     1      44.896   3.240  12.513  0.00  0.00    +0.000 A 
ATOM     30  N   UNL     1      46.082   3.480  13.153  0.00  0.00    +0.000 N 
ATOM     31  C   UNL     1      46.651   4.726  13.190  0.00  0.00    +0.000 A 
ATOM     32  O   UNL     1      47.759   4.904  13.688  0.00  0.00    +0.000 OA
ATOM     33  C   UNL     1      45.854   5.776  12.578  0.00  0.00    +0.000 A 
ATOM     34  H   UNL     1      46.610   2.725  13.561  0.00  0.00    +0.000 HD
ENDBRANCH  21  24
ENDBRANCH  19  20
ENDBRANCH   4  19
TORSDOF 8
ENDMDL
MODEL 6
REMARK VINA RESULT:    -6.863      3.567      8.572
REMARK INTER + INTRA:         -11.499
REMARK INTER:                  -9.959
REMARK INTRA:                  -1.540
REMARK UNBOUND:                -1.427
REMARK  Name = 
REMARK  9 active torsions:
REMARK  status: ('A' for Active; 'I' for Inactive)
REMARK    1  A    between atoms: C_1  and  O_2
REMARK    2  A    between atoms: O_2  and  C_3
REMARK    3  A    between atoms: C_7  and  C_8
REMARK    4  A    between atoms: C_8  and  N_9
REMARK    5  A    between atoms: N_9  and  C_10
REMARK    6  A    between atoms: C_10  and  C_11
REMARK    7  A    between atoms: C_14  and  C_15
REMARK    8  A    between atoms: C_15  and  N_16
REMARK    9  A    between atoms: C_17  and  C_19
REMARK                            x       y       z     vdW  Elec       q    Type
REMARK                         _______ _______ _______ _____ _____    ______ ____
ROOT
ATOM      1  C   UNL     1      48.651   7.794  16.373  0.00  0.00    +0.000 A 
ATOM      2  C   UNL     1      48.565   9.036  15.725  0.00  0.00    +0.000 A 
ATOM      3  C   UNL     1      48.448   9.121  14.336  0.00  0.00    +0.000 A 
ATOM      4  C   UNL     1      48.415   7.959  13.553  0.00  0.00    +0.000 A 
ATOM      5  C   UNL     1      48.509   6.718  14.200  0.00  0.00    +0.000 A 
ATOM      6  C   UNL     1      48.617   6.632  15.594  0.00  0.00    +0.000 A 
ENDROOT
BRANCH   1   7
ATOM      7  C   UNL     1      48.812   7.739  17.878  0.00  0.00    +0.000 C 
BRANCH   7   8
ATOM      8  N   UNL     1      47.875   6.774  18.447  0.00  0.00    +0.000 NA
ATOM      9  H   UNL     1      47.250   7.259  19.087  0.00  0.00    +0.000 HD
BRANCH   8  10
ATOM     10  C   UNL     1      48.531   5.702  19.187  0.00  0.00    +0.000 C 
BRANCH  10  15
ATOM     11  C   UNL     1      50.209   2.762  17.418  0.00  0.00    +0.000 A 
ATOM     12  C   UNL     1      49.119   2.146  16.806  0.00  0.00    +0.000 A 
ATOM     13  C   UNL     1      47.849   2.714  16.899  0.00  0.00    +0.000 A 
ATOM     14  C   UNL     1      47.656   3.888  17.630  0.00  0.00    +0.000 A 
ATOM     15  C   UNL     1      48.733   4.498  18.291  0.00  0.00    +0.000 A 
ATOM     16  C   UNL     1      50.012   3.939  18.147  0.00  0.00    +0.000 A 
BRANCH  11  18
ATOM     17  C   UNL     1      52.444   3.059  18.148  0.00  0.00    +0.000 C 
ATOM     18  O   UNL     1      51.499   2.304  17.400  0.00  0.00    +0.000 OA
ENDBRANCH  11  18
ENDBRANCH  10  15
ENDBRANCH   8  10
ENDBRANCH   7   8
ENDBRANCH   1   7
BRANCH   4  19
ATOM     19  C   UNL     1      48.295   8.023  12.049  0.00  0.00    +0.000 C 
BRANCH  19  20
ATOM     20  N   UNL     1      47.561   6.906  11.513  0.00  0.00    +0.000 N 
ATOM     21  C   UNL     1      46.194   6.928  11.376  0.00  0.00    +0.000 C 
ATOM     22  O   UNL     1      45.510   7.896  11.694  0.00  0.00    +0.000 OA
ATOM     23  H   UNL     1      48.026   6.005  11.530  0.00  0.00    +0.000 HD
BRANCH  21  24
ATOM     24  C   UNL     1      45.606   5.738  10.749  0.00  0.00    +0.000 A 
ATOM     25  C   UNL     1      45.791   5.500   9.391  0.00  0.00    +0.000 A 
ATOM     26  S   UNL     1      45.093   4.034   8.863  0.00  0.00    +0.000 S 
ATOM     27  C   UNL     1      44.476   3.700  10.414  0.00  0.00    +0.000 A 
ATOM     28  N   UNL     1      43.747   2.575  10.650  0.00  0.00    +0.000 NA
ATOM     29  C   UNL     1      43.322   2.478  11.858  0.00  0.00    +0.000 A 
ATOM     30  N   UNL     1      43.556   3.375  12.865  0.00  0.00    +0.000 N 
ATOM     31  C   UNL     1      44.338   4.485  12.686  0.00  0.00    +0.000 A 
ATOM     32  O   UNL     1      44.613   5.228  13.624  0.00  0.00    +0.000 OA
ATOM     33  C   UNL     1      44.819   4.676  11.328  0.00  0.00    +0.000 A 
ATOM     34  H   UNL     1      43.210   3.206  13.796  0.00  0.00    +0.000 HD
ENDBRANCH  21  24
ENDBRANCH  19  20
ENDBRANCH   4  19
TORSDOF 8
ENDMDL
MODEL 7
REMARK VINA RESULT:    -6.802      1.588      2.068
REMARK INTER + INTRA:         -11.409
REMARK INTER:                 -10.203
REMARK INTRA:                  -1.206
REMARK UNBOUND:                -1.427
REMARK  Name = 
REMARK  9 active torsions:
REMARK  status: ('A' for Active; 'I' for Inactive)
REMARK    1  A    between atoms: C_1  and  O_2
REMARK    2  A    between atoms: O_2  and  C_3
REMARK    3  A    between atoms: C_7  and  C_8
REMARK    4  A    between atoms: C_8  and  N_9
REMARK    5  A    between atoms: N_9  and  C_10
REMARK    6  A    between atoms: C_10  and  C_11
REMARK    7  A    between atoms: C_14  and  C_15
REMARK    8  A    between atoms: C_15  and  N_16
REMARK    9  A    between atoms: C_17  and  C_19
REMARK                            x       y       z     vdW  Elec       q    Type
REMARK                         _______ _______ _______ _____ _____    ______ ____
ROOT
ATOM      1  C   UNL     1      45.308   6.546  12.254  0.00  0.00    +0.000 A 
ATOM      2  C   UNL     1      46.144   7.616  11.894  0.00  0.00    +0.000 A 
ATOM      3  C   UNL     1      47.405   7.776  12.472  0.00  0.00    +0.000 A 
ATOM      4  C   UNL     1      47.868   6.865  13.431  0.00  0.00    +0.000 A 
ATOM      5  C   UNL     1      47.030   5.800  13.797  0.00  0.00    +0.000 A 
ATOM      6  C   UNL     1      45.769   5.635  13.211  0.00  0.00    +0.000 A 
ENDROOT
BRANCH   1   7
ATOM      7  C   UNL     1      43.933   6.423  11.634  0.00  0.00    +0.000 C 
BRANCH   7   8
ATOM      8  N   UNL     1      44.018   5.709  10.364  0.00  0.00    +0.000 NA
ATOM      9  H   UNL     1      43.394   6.153   9.693  0.00  0.00    +0.000 HD
BRANCH   8  10
ATOM     10  C   UNL     1      43.639   4.304  10.465  0.00  0.00    +0.000 C 
BRANCH  10  15
ATOM     11  C   UNL     1      45.970   3.384   7.581  0.00  0.00    +0.000 A 
ATOM     12  C   UNL     1      46.104   2.009   7.760  0.00  0.00    +0.000 A 
ATOM     13  C   UNL     1      45.388   1.358   8.764  0.00  0.00    +0.000 A 
ATOM     14  C   UNL     1      44.555   2.085   9.616  0.00  0.00    +0.000 A 
ATOM     15  C   UNL     1      44.441   3.477   9.481  0.00  0.00    +0.000 A 
ATOM     16  C   UNL     1      45.131   4.108   8.435  0.00  0.00    +0.000 A 
BRANCH  11  18
ATOM     17  C   UNL     1      46.998   3.453   5.447  0.00  0.00    +0.000 C 
ATOM     18  O   UNL     1      46.617   4.134   6.636  0.00  0.00    +0.000 OA
ENDBRANCH  11  18
ENDBRANCH  10  15
ENDBRANCH   8  10
ENDBRANCH   7   8
ENDBRANCH   1   7
BRANCH   4  19
ATOM     19  C   UNL     1      49.225   7.018  14.075  0.00  0.00    +0.000 C 
BRANCH  19  20
ATOM     20  N   UNL     1      49.137   7.171  15.504  0.00  0.00    +0.000 N 
ATOM     21  C   UNL     1      50.162   6.808  16.343  0.00  0.00    +0.000 C 
ATOM     22  O   UNL     1      51.220   6.339  15.934  0.00  0.00    +0.000 OA
ATOM     23  H   UNL     1      48.205   7.255  15.896  0.00  0.00    +0.000 HD
BRANCH  21  24
ATOM     24  C   UNL     1      49.941   7.093  17.766  0.00  0.00    +0.000 A 
ATOM     25  C   UNL     1      50.779   7.973  18.441  0.00  0.00    +0.000 A 
ATOM     26  S   UNL     1      50.319   8.229  20.065  0.00  0.00    +0.000 S 
ATOM     27  C   UNL     1      49.024   7.134  19.934  0.00  0.00    +0.000 A 
ATOM     28  N   UNL     1      48.216   6.873  20.998  0.00  0.00    +0.000 NA
ATOM     29  C   UNL     1      47.306   6.001  20.755  0.00  0.00    +0.000 A 
ATOM     30  N   UNL     1      47.100   5.367  19.559  0.00  0.00    +0.000 N 
ATOM     31  C   UNL     1      47.849   5.649  18.447  0.00  0.00    +0.000 A 
ATOM     32  O   UNL     1      47.590   5.139  17.360  0.00  0.00    +0.000 OA
ATOM     33  C   UNL     1      48.925   6.601  18.664  0.00  0.00    +0.000 A 
ATOM     34  H   UNL     1      46.340   4.716  19.444  0.00  0.00    +0.000 HD
ENDBRANCH  21  24
ENDBRANCH  19  20
ENDBRANCH   4  19
TORSDOF 8
ENDMDL
MODEL 8
REMARK VINA RESULT:    -6.785      5.232      9.563
REMARK INTER + INTRA:         -11.385
REMARK INTER:                 -10.419
REMARK INTRA:                  -0.965
REMARK UNBOUND:                -1.427
REMARK  Name = 
REMARK  9 active torsions:
REMARK  status: ('A' for Active; 'I' for Inactive)
REMARK    1  A    between atoms: C_1  and  O_2
REMARK    2  A    between atoms: O_2  and  C_3
REMARK    3  A    between atoms: C_7  and  C_8
REMARK    4  A    between atoms: C_8  and  N_9
REMARK    5  A    between atoms: N_9  and  C_10
REMARK    6  A    between atoms: C_10  and  C_11
REMARK    7  A    between atoms: C_14  and  C_15
REMARK    8  A    between atoms: C_15  and  N_16
REMARK    9  A    between atoms: C_17  and  C_19
REMARK                            x       y       z     vdW  Elec       q    Type
REMARK                         _______ _______ _______ _____ _____    ______ ____
ROOT
ATOM      1  C   UNL     1      51.004   2.318  17.416  0.00  0.00    +0.000 A 
ATOM      2  C   UNL     1      51.649   3.555  17.572  0.00  0.00    +0.000 A 
ATOM      3  C   UNL     1      50.939   4.756  17.496  0.00  0.00    +0.000 A 
ATOM      4  C   UNL     1      49.558   4.752  17.260  0.00  0.00    +0.000 A 
ATOM      5  C   UNL     1      48.915   3.516  17.096  0.00  0.00    +0.000 A 
ATOM      6  C   UNL     1      49.625   2.311  17.181  0.00  0.00    +0.000 A 
ENDROOT
BRANCH   1   7
ATOM      7  C   UNL     1      51.809   1.037  17.470  0.00  0.00    +0.000 C 
BRANCH   7   8
ATOM      8  N   UNL     1      52.852   1.143  18.486  0.00  0.00    +0.000 NA
ATOM      9  H   UNL     1      52.756   2.036  18.966  0.00  0.00    +0.000 HD
BRANCH   8  10
ATOM     10  C   UNL     1      54.201   1.072  17.938  0.00  0.00    +0.000 C 
BRANCH  10  15
ATOM     11  C   UNL     1      54.615  -2.715  18.209  0.00  0.00    +0.000 A 
ATOM     12  C   UNL     1      54.965  -3.051  16.902  0.00  0.00    +0.000 A 
ATOM     13  C   UNL     1      55.142  -2.054  15.945  0.00  0.00    +0.000 A 
ATOM     14  C   UNL     1      54.941  -0.713  16.281  0.00  0.00    +0.000 A 
ATOM     15  C   UNL     1      54.543  -0.358  17.579  0.00  0.00    +0.000 A 
ATOM     16  C   UNL     1      54.416  -1.372  18.542  0.00  0.00    +0.000 A 
BRANCH  11  18
ATOM     17  C   UNL     1      53.630  -3.128  20.324  0.00  0.00    +0.000 C 
ATOM     18  O   UNL     1      54.411  -3.600  19.233  0.00  0.00    +0.000 OA
ENDBRANCH  11  18
ENDBRANCH  10  15
ENDBRANCH   8  10
ENDBRANCH   7   8
ENDBRANCH   1   7
BRANCH   4  19
ATOM     19  C   UNL     1      48.768   6.035  17.168  0.00  0.00    +0.000 C 
BRANCH  19  20
ATOM     20  N   UNL     1      47.882   6.049  16.033  0.00  0.00    +0.000 N 
ATOM     21  C   UNL     1      48.319   6.354  14.767  0.00  0.00    +0.000 C 
ATOM     22  O   UNL     1      49.490   6.626  14.516  0.00  0.00    +0.000 OA
ATOM     23  H   UNL     1      46.890   6.137  16.231  0.00  0.00    +0.000 HD
BRANCH  21  24
ATOM     24  C   UNL     1      47.305   6.255  13.711  0.00  0.00    +0.000 A 
ATOM     25  C   UNL     1      46.881   7.397  13.041  0.00  0.00    +0.000 A 
ATOM     26  S   UNL     1      45.752   7.071  11.802  0.00  0.00    +0.000 S 
ATOM     27  C   UNL     1      45.753   5.406  12.156  0.00  0.00    +0.000 A 
ATOM     28  N   UNL     1      44.971   4.541  11.457  0.00  0.00    +0.000 NA
ATOM     29  C   UNL     1      45.054   3.325  11.862  0.00  0.00    +0.000 A 
ATOM     30  N   UNL     1      45.845   2.872  12.883  0.00  0.00    +0.000 N 
ATOM     31  C   UNL     1      46.694   3.699  13.569  0.00  0.00    +0.000 A 
ATOM     32  O   UNL     1      47.463   3.257  14.418  0.00  0.00    +0.000 OA
ATOM     33  C   UNL     1      46.620   5.098  13.185  0.00  0.00    +0.000 A 
ATOM     34  H   UNL     1      45.874   1.892  13.117  0.00  0.00    +0.000 HD
ENDBRANCH  21  24
ENDBRANCH  19  20
ENDBRANCH   4  19
TORSDOF 8
ENDMDL
MODEL 9
REMARK VINA RESULT:    -6.766      3.388      5.054
REMARK INTER + INTRA:         -11.357
REMARK INTER:                  -9.939
REMARK INTRA:                  -1.419
REMARK UNBOUND:                -1.427
REMARK  Name = 
REMARK  9 active torsions:
REMARK  status: ('A' for Active; 'I' for Inactive)
REMARK    1  A    between atoms: C_1  and  O_2
REMARK    2  A    between atoms: O_2  and  C_3
REMARK    3  A    between atoms: C_7  and  C_8
REMARK    4  A    between atoms: C_8  and  N_9
REMARK    5  A    between atoms: N_9  and  C_10
REMARK    6  A    between atoms: C_10  and  C_11
REMARK    7  A    between atoms: C_14  and  C_15
REMARK    8  A    between atoms: C_15  and  N_16
REMARK    9  A    between atoms: C_17  and  C_19
REMARK                            x       y       z     vdW  Elec       q    Type
REMARK                         _______ _______ _______ _____ _____    ______ ____
ROOT
ATOM      1  C   UNL     1      47.412   6.239  13.607  0.00  0.00    +0.000 A 
ATOM      2  C   UNL     1      48.311   6.936  14.430  0.00  0.00    +0.000 A 
ATOM      3  C   UNL     1      48.713   6.418  15.663  0.00  0.00    +0.000 A 
ATOM      4  C   UNL     1      48.224   5.183  16.110  0.00  0.00    +0.000 A 
ATOM      5  C   UNL     1      47.319   4.490  15.291  0.00  0.00    +0.000 A 
ATOM      6  C   UNL     1      46.923   5.005  14.050  0.00  0.00    +0.000 A 
ENDROOT
BRANCH   1   7
ATOM      7  C   UNL     1      46.970   6.846  12.292  0.00  0.00    +0.000 C 
BRANCH   7   8
ATOM      8  N   UNL     1      45.651   7.455  12.441  0.00  0.00    +0.000 NA
ATOM      9  H   UNL     1      45.235   7.133  13.312  0.00  0.00    +0.000 HD
BRANCH   8  10
ATOM     10  C   UNL     1      44.735   7.119  11.357  0.00  0.00    +0.000 C 
BRANCH  10  15
ATOM     11  C   UNL     1      44.063   3.435  10.606  0.00  0.00    +0.000 A 
ATOM     12  C   UNL     1      43.548   2.992  11.823  0.00  0.00    +0.000 A 
ATOM     13  C   UNL     1      43.345   3.892  12.868  0.00  0.00    +0.000 A 
ATOM     14  C   UNL     1      43.685   5.237  12.712  0.00  0.00    +0.000 A 
ATOM     15  C   UNL     1      44.247   5.694  11.511  0.00  0.00    +0.000 A 
ATOM     16  C   UNL     1      44.399   4.784  10.453  0.00  0.00    +0.000 A 
BRANCH  11  18
ATOM     17  C   UNL     1      44.919   3.298   8.400  0.00  0.00    +0.000 C 
ATOM     18  O   UNL     1      44.307   2.652   9.510  0.00  0.00    +0.000 OA
ENDBRANCH  11  18
ENDBRANCH  10  15
ENDBRANCH   8  10
ENDBRANCH   7   8
ENDBRANCH   1   7
BRANCH   4  19
ATOM     19  C   UNL     1      48.638   4.604  17.441  0.00  0.00    +0.000 C 
BRANCH  19  20
ATOM     20  N   UNL     1      50.018   4.194  17.452  0.00  0.00    +0.000 N 
ATOM     21  C   UNL     1      50.798   4.283  18.579  0.00  0.00    +0.000 C 
ATOM     22  O   UNL     1      50.373   4.709  19.649  0.00  0.00    +0.000 OA
ATOM     23  H   UNL     1      50.483   4.135  16.552  0.00  0.00    +0.000 HD
BRANCH  21  24
ATOM     24  C   UNL     1      52.163   3.760  18.443  0.00  0.00    +0.000 A 
ATOM     25  C   UNL     1      53.252   4.546  18.801  0.00  0.00    +0.000 A 
ATOM     26  S   UNL     1      54.748   3.739  18.638  0.00  0.00    +0.000 S 
ATOM     27  C   UNL     1      53.994   2.338  18.034  0.00  0.00    +0.000 A 
ATOM     28  N   UNL     1      54.726   1.248  17.674  0.00  0.00    +0.000 NA
ATOM     29  C   UNL     1      54.021   0.283  17.205  0.00  0.00    +0.000 A 
ATOM     30  N   UNL     1      52.660   0.277  17.068  0.00  0.00    +0.000 N 
ATOM     31  C   UNL     1      51.881   1.327  17.477  0.00  0.00    +0.000 A 
ATOM     32  O   UNL     1      50.656   1.266  17.431  0.00  0.00    +0.000 OA
ATOM     33  C   UNL     1      52.622   2.471  17.982  0.00  0.00    +0.000 A 
ATOM     34  H   UNL     1      52.180  -0.537  16.718  0.00  0.00    +0.000 HD
ENDBRANCH  21  24
ENDBRANCH  19  20
ENDBRANCH   4  19
TORSDOF 8
ENDMDL
