MODEL 1
REMARK VINA RESULT:    -9.531      0.000      0.000
REMARK INTER + INTRA:         -13.744
REMARK INTER:                 -12.874
REMARK INTRA:                  -0.870
REMARK UNBOUND:                -0.870
REMARK  Name = 
REMARK  6 active torsions:
REMARK  status: ('A' for Active; 'I' for Inactive)
REMARK    1  A    between atoms: C_2  and  C_4
REMARK    2  A    between atoms: N_8  and  C_9
REMARK    3  A    between atoms: C_9  and  C_10
REMARK    4  A    between atoms: C_10  and  C_13
REMARK    5  A    between atoms: C_18  and  O_19
REMARK    6  A    between atoms: O_19  and  C_20
REMARK                            x       y       z     vdW  Elec       q    Type
REMARK                         _______ _______ _______ _____ _____    ______ ____
ROOT
ATOM      1  C   UNL     1      43.387   5.491  12.283  0.00  0.00    +0.000 C 
ATOM      2  F   UNL     1      42.759   6.593  11.770  0.00  0.00    +0.000 F 
ATOM      3  F   UNL     1      42.649   5.130  13.373  0.00  0.00    +0.000 F 
ENDROOT
BRANCH   1   4
ATOM      4  C   UNL     1      44.833   5.785  12.663  0.00  0.00    +0.000 A 
ATOM      5  C   UNL     1      45.438   6.999  12.316  0.00  0.00    +0.000 A 
ATOM      6  C   UNL     1      46.746   7.272  12.729  0.00  0.00    +0.000 A 
ATOM      7  C   UNL     1      47.465   6.329  13.471  0.00  0.00    +0.000 A 
ATOM      8  F   UNL     1      48.692   6.663  13.896  0.00  0.00    +0.000 F 
ATOM      9  C   UNL     1      46.902   5.093  13.779  0.00  0.00    +0.000 A 
ATOM     10  C   UNL     1      45.582   4.835  13.385  0.00  0.00    +0.000 A 
BRANCH   9  11
ATOM     11  O   UNL     1      47.492   4.074  14.492  0.00  0.00    +0.000 OA
BRANCH  11  12
ATOM     12  C   UNL     1      47.385   4.049  15.937  0.00  0.00    +0.000 C 
ATOM     13  C   UNL     1      48.287   4.997  16.751  0.00  0.00    +0.000 C 
ATOM     14  N   UNL     1      48.771   3.873  17.566  0.00  0.00    +0.000 NA
ATOM     15  C   UNL     1      48.166   2.909  16.637  0.00  0.00    +0.000 C 
ATOM     16  H   UNL     1      48.381   3.841  18.507  0.00  0.00    +0.000 HD
ENDBRANCH  11  12
ENDBRANCH   9  11
ENDBRANCH   1   4
BRANCH   1  17
ATOM     17  C   UNL     1      43.319   4.359  11.230  0.00  0.00    +0.000 C 
BRANCH  17  22
ATOM     18  C   UNL     1      46.478   2.512   7.693  0.00  0.00    +0.000 A 
ATOM     19  C   UNL     1      45.650   1.853   8.590  0.00  0.00    +0.000 A 
ATOM     20  C   UNL     1      44.754   2.598   9.358  0.00  0.00    +0.000 A 
ATOM     21  C   UNL     1      44.705   3.979   9.226  0.00  0.00    +0.000 A 
ATOM     22  N   UNL     1      43.769   4.758   9.889  0.00  0.00    +0.000 N 
ATOM     23  N   UNL     1      45.529   4.637   8.387  0.00  0.00    +0.000 NA
ATOM     24  C   UNL     1      46.404   3.897   7.643  0.00  0.00    +0.000 A 
ATOM     25  H   UNL     1      43.986   5.745   9.754  0.00  0.00    +0.000 HD
BRANCH  18  27
ATOM     26  N   UNL     1      48.518   2.474   6.381  0.00  0.00    +0.000 N 
ATOM     27  C   UNL     1      47.414   1.787   6.810  0.00  0.00    +0.000 C 
ATOM     28  O   UNL     1      47.234   0.618   6.507  0.00  0.00    +0.000 OA
ATOM     29  H   UNL     1      49.210   1.943   5.867  0.00  0.00    +0.000 HD
ATOM     30  H   UNL     1      48.818   3.343   6.799  0.00  0.00    +0.000 HD
ENDBRANCH  18  27
ENDBRANCH  17  22
ENDBRANCH   1  17
TORSDOF 6
ENDMDL
MODEL 2
REMARK VINA RESULT:    -8.535      1.373      1.639
REMARK INTER + INTRA:         -12.399
REMARK INTER:                 -11.674
REMARK INTRA:                  -0.725
REMARK UNBOUND:                -0.870
REMARK  Name = 
REMARK  6 active torsions:
REMARK  status: ('A' for Active; 'I' for Inactive)
REMARK    1  A    between atoms: C_2  and  C_4
REMARK    2  A    between atoms: N_8  and  C_9
REMARK    3  A    between atoms: C_9  and  C_10
REMARK    4  A    between atoms: C_10  and  C_13
REMARK    5  A    between atoms: C_18  and  O_19
REMARK    6  A    between atoms: O_19  and  C_20
REMARK                            x       y       z     vdW  Elec       q    Type
REMARK                         _______ _______ _______ _____ _____    ______ ____
ROOT
ATOM      1  C   UNL     1      43.184   5.191  12.276  0.00  0.00    +0.000 C 
ATOM      2  F   UNL     1      42.009   5.852  12.043  0.00  0.00    +0.000 F 
ATOM      3  F   UNL     1      43.026   4.595  13.494  0.00  0.00    +0.000 F 
ENDROOT
BRANCH   1   4
ATOM      4  C   UNL     1      44.380   6.134  12.269  0.00  0.00    +0.000 A 
ATOM      5  C   UNL     1      44.296   7.400  11.676  0.00  0.00    +0.000 A 
ATOM      6  C   UNL     1      45.388   8.273  11.734  0.00  0.00    +0.000 A 
ATOM      7  C   UNL     1      46.573   7.882  12.366  0.00  0.00    +0.000 A 
ATOM      8  F   UNL     1      47.567   8.777  12.451  0.00  0.00    +0.000 F 
ATOM      9  C   UNL     1      46.696   6.607  12.914  0.00  0.00    +0.000 A 
ATOM     10  C   UNL     1      45.591   5.746  12.875  0.00  0.00    +0.000 A 
BRANCH   9  11
ATOM     11  O   UNL     1      47.798   6.089  13.555  0.00  0.00    +0.000 OA
BRANCH  11  12
ATOM     12  C   UNL     1      48.300   6.727  14.756  0.00  0.00    +0.000 C 
ATOM     13  C   UNL     1      49.798   7.086  14.818  0.00  0.00    +0.000 C 
ATOM     14  N   UNL     1      49.938   6.376  16.098  0.00  0.00    +0.000 NA
ATOM     15  C   UNL     1      48.610   5.769  15.932  0.00  0.00    +0.000 C 
ATOM     16  H   UNL     1      50.013   6.989  16.909  0.00  0.00    +0.000 HD
ENDBRANCH  11  12
ENDBRANCH   9  11
ENDBRANCH   1   4
BRANCH   1  17
ATOM     17  C   UNL     1      43.346   4.094  11.196  0.00  0.00    +0.000 C 
BRANCH  17  22
ATOM     18  C   UNL     1      46.611   2.670   7.560  0.00  0.00    +0.000 A 
ATOM     19  C   UNL     1      45.828   1.906   8.414  0.00  0.00    +0.000 A 
ATOM     20  C   UNL     1      44.887   2.546   9.223  0.00  0.00    +0.000 A 
ATOM     21  C   UNL     1      44.751   3.925   9.176  0.00  0.00    +0.000 A 
ATOM     22  N   UNL     1      43.768   4.602   9.883  0.00  0.00    +0.000 N 
ATOM     23  N   UNL     1      45.530   4.685   8.381  0.00  0.00    +0.000 NA
ATOM     24  C   UNL     1      46.450   4.048   7.595  0.00  0.00    +0.000 A 
ATOM     25  H   UNL     1      43.922   5.607   9.810  0.00  0.00    +0.000 HD
BRANCH  18  27
ATOM     26  N   UNL     1      48.086   2.864   5.644  0.00  0.00    +0.000 N 
ATOM     27  C   UNL     1      47.589   2.062   6.637  0.00  0.00    +0.000 C 
ATOM     28  O   UNL     1      47.970   0.909   6.774  0.00  0.00    +0.000 OA
ATOM     29  H   UNL     1      48.834   2.477   5.082  0.00  0.00    +0.000 HD
ATOM     30  H   UNL     1      47.981   3.868   5.648  0.00  0.00    +0.000 HD
ENDBRANCH  18  27
ENDBRANCH  17  22
ENDBRANCH   1  17
TORSDOF 6
ENDMDL
MODEL 3
REMARK VINA RESULT:    -8.453      2.975      4.574
REMARK INTER + INTRA:         -12.289
REMARK INTER:                 -11.600
REMARK INTRA:                  -0.689
REMARK UNBOUND:                -0.870
REMARK  Name = 
REMARK  6 active torsions:
REMARK  status: ('A' for Active; 'I' for Inactive)
REMARK    1  A    between atoms: C_2  and  C_4
REMARK    2  A    between atoms: N_8  and  C_9
REMARK    3  A    between atoms: C_9  and  C_10
REMARK    4  A    between atoms: C_10  and  C_13
REMARK    5  A    between atoms: C_18  and  O_19
REMARK    6  A    between atoms: O_19  and  C_20
REMARK                            x       y       z     vdW  Elec       q    Type
REMARK                         _______ _______ _______ _____ _____    ______ ____
ROOT
ATOM      1  C   UNL     1      44.430   4.504  12.338  0.00  0.00    +0.000 C 
ATOM      2  F   UNL     1      43.778   4.364  13.533  0.00  0.00    +0.000 F 
ATOM      3  F   UNL     1      45.230   3.403  12.233  0.00  0.00    +0.000 F 
ENDROOT
BRANCH   1   4
ATOM      4  C   UNL     1      45.244   5.791  12.282  0.00  0.00    +0.000 A 
ATOM      5  C   UNL     1      46.644   5.760  12.297  0.00  0.00    +0.000 A 
ATOM      6  C   UNL     1      47.370   6.950  12.182  0.00  0.00    +0.000 A 
ATOM      7  C   UNL     1      46.707   8.176  12.071  0.00  0.00    +0.000 A 
ATOM      8  F   UNL     1      47.447   9.281  11.900  0.00  0.00    +0.000 F 
ATOM      9  C   UNL     1      45.316   8.234  12.110  0.00  0.00    +0.000 A 
ATOM     10  C   UNL     1      44.592   7.037  12.200  0.00  0.00    +0.000 A 
BRANCH   9  11
ATOM     11  O   UNL     1      44.535   9.365  12.019  0.00  0.00    +0.000 OA
BRANCH  11  12
ATOM     12  C   UNL     1      44.015   9.781  10.732  0.00  0.00    +0.000 C 
ATOM     13  C   UNL     1      43.901  11.291  10.447  0.00  0.00    +0.000 C 
ATOM     14  N   UNL     1      42.488  11.136  10.071  0.00  0.00    +0.000 NA
ATOM     15  C   UNL     1      42.472   9.769  10.610  0.00  0.00    +0.000 C 
ATOM     16  H   UNL     1      42.314  11.187   9.068  0.00  0.00    +0.000 HD
ENDBRANCH  11  12
ENDBRANCH   9  11
ENDBRANCH   1   4
BRANCH   1  17
ATOM     17  C   UNL     1      43.378   4.474  11.204  0.00  0.00    +0.000 C 
BRANCH  17  22
ATOM     18  C   UNL     1      46.470   2.498   7.678  0.00  0.00    +0.000 A 
ATOM     19  C   UNL     1      45.565   1.879   8.527  0.00  0.00    +0.000 A 
ATOM     20  C   UNL     1      44.713   2.669   9.301  0.00  0.00    +0.000 A 
ATOM     21  C   UNL     1      44.783   4.052   9.222  0.00  0.00    +0.000 A 
ATOM     22  N   UNL     1      43.897   4.883   9.891  0.00  0.00    +0.000 N 
ATOM     23  N   UNL     1      45.683   4.669   8.431  0.00  0.00    +0.000 NA
ATOM     24  C   UNL     1      46.514   3.886   7.681  0.00  0.00    +0.000 A 
ATOM     25  H   UNL     1      44.200   5.852   9.801  0.00  0.00    +0.000 HD
BRANCH  18  27
ATOM     26  N   UNL     1      48.432   2.404   6.253  0.00  0.00    +0.000 N 
ATOM     27  C   UNL     1      47.367   1.731   6.791  0.00  0.00    +0.000 C 
ATOM     28  O   UNL     1      47.193   0.540   6.577  0.00  0.00    +0.000 OA
ATOM     29  H   UNL     1      49.103   1.850   5.735  0.00  0.00    +0.000 HD
ATOM     30  H   UNL     1      48.739   3.303   6.594  0.00  0.00    +0.000 HD
ENDBRANCH  18  27
ENDBRANCH  17  22
ENDBRANCH   1  17
TORSDOF 6
ENDMDL
MODEL 4
REMARK VINA RESULT:    -8.436      2.397      3.747
REMARK INTER + INTRA:         -12.266
REMARK INTER:                 -11.431
REMARK INTRA:                  -0.835
REMARK UNBOUND:                -0.870
REMARK  Name = 
REMARK  6 active torsions:
REMARK  status: ('A' for Active; 'I' for Inactive)
REMARK    1  A    between atoms: C_2  and  C_4
REMARK    2  A    between atoms: N_8  and  C_9
REMARK    3  A    between atoms: C_9  and  C_10
REMARK    4  A    between atoms: C_10  and  C_13
REMARK    5  A    between atoms: C_18  and  O_19
REMARK    6  A    between atoms: O_19  and  C_20
REMARK                            x       y       z     vdW  Elec       q    Type
REMARK                         _______ _______ _______ _____ _____    ______ ____
ROOT
ATOM      1  C   UNL     1      43.399   4.624  12.497  0.00  0.00    +0.000 C 
ATOM      2  F   UNL     1      42.454   5.610  12.579  0.00  0.00    +0.000 F 
ATOM      3  F   UNL     1      43.031   3.694  13.427  0.00  0.00    +0.000 F 
ENDROOT
BRANCH   1   4
ATOM      4  C   UNL     1      44.801   5.155  12.766  0.00  0.00    +0.000 A 
ATOM      5  C   UNL     1      45.733   4.400  13.489  0.00  0.00    +0.000 A 
ATOM      6  C   UNL     1      47.033   4.881  13.670  0.00  0.00    +0.000 A 
ATOM      7  C   UNL     1      47.406   6.125  13.149  0.00  0.00    +0.000 A 
ATOM      8  F   UNL     1      48.681   6.513  13.296  0.00  0.00    +0.000 F 
ATOM      9  C   UNL     1      46.480   6.917  12.475  0.00  0.00    +0.000 A 
ATOM     10  C   UNL     1      45.185   6.418  12.274  0.00  0.00    +0.000 A 
BRANCH   9  11
ATOM     11  O   UNL     1      46.705   8.156  11.919  0.00  0.00    +0.000 OA
BRANCH  11  12
ATOM     12  C   UNL     1      46.285   9.350  12.624  0.00  0.00    +0.000 C 
ATOM     13  C   UNL     1      44.917   9.963  12.268  0.00  0.00    +0.000 C 
ATOM     14  N   UNL     1      45.538  11.277  12.048  0.00  0.00    +0.000 NA
ATOM     15  C   UNL     1      46.878  10.676  12.086  0.00  0.00    +0.000 C 
ATOM     16  H   UNL     1      45.365  11.951  12.793  0.00  0.00    +0.000 HD
ENDBRANCH  11  12
ENDBRANCH   9  11
ENDBRANCH   1   4
BRANCH   1  17
ATOM     17  C   UNL     1      43.316   3.988  11.088  0.00  0.00    +0.000 C 
BRANCH  17  22
ATOM     18  C   UNL     1      46.548   2.618   7.403  0.00  0.00    +0.000 A 
ATOM     19  C   UNL     1      46.164   3.878   7.839  0.00  0.00    +0.000 A 
ATOM     20  C   UNL     1      45.375   3.987   8.985  0.00  0.00    +0.000 A 
ATOM     21  C   UNL     1      44.977   2.847   9.667  0.00  0.00    +0.000 A 
ATOM     22  N   UNL     1      44.277   2.899  10.863  0.00  0.00    +0.000 N 
ATOM     23  N   UNL     1      45.309   1.614   9.235  0.00  0.00    +0.000 NA
ATOM     24  C   UNL     1      46.079   1.520   8.110  0.00  0.00    +0.000 A 
ATOM     25  H   UNL     1      43.976   1.962  11.127  0.00  0.00    +0.000 HD
BRANCH  18  27
ATOM     26  N   UNL     1      47.184   3.219   5.141  0.00  0.00    +0.000 N 
ATOM     27  C   UNL     1      47.424   2.426   6.231  0.00  0.00    +0.000 C 
ATOM     28  O   UNL     1      48.347   1.624   6.244  0.00  0.00    +0.000 OA
ATOM     29  H   UNL     1      47.852   3.160   4.382  0.00  0.00    +0.000 HD
ATOM     30  H   UNL     1      46.601   4.042   5.181  0.00  0.00    +0.000 HD
ENDBRANCH  18  27
ENDBRANCH  17  22
ENDBRANCH   1  17
TORSDOF 6
ENDMDL
MODEL 5
REMARK VINA RESULT:    -7.959      2.372      7.768
REMARK INTER + INTRA:         -11.621
REMARK INTER:                 -10.795
REMARK INTRA:                  -0.827
REMARK UNBOUND:                -0.870
REMARK  Name = 
REMARK  6 active torsions:
REMARK  status: ('A' for Active; 'I' for Inactive)
REMARK    1  A    between atoms: C_2  and  C_4
REMARK    2  A    between atoms: N_8  and  C_9
REMARK    3  A    between atoms: C_9  and  C_10
REMARK    4  A    between atoms: C_10  and  C_13
REMARK    5  A    between atoms: C_18  and  O_19
REMARK    6  A    between atoms: O_19  and  C_20
REMARK                            x       y       z     vdW  Elec       q    Type
REMARK                         _______ _______ _______ _____ _____    ______ ____
ROOT
ATOM      1  C   UNL     1      45.760   6.280  11.354  0.00  0.00    +0.000 C 
ATOM      2  F   UNL     1      44.894   7.289  11.033  0.00  0.00    +0.000 F 
ATOM      3  F   UNL     1      46.985   6.710  10.933  0.00  0.00    +0.000 F 
ENDROOT
BRANCH   1   4
ATOM      4  C   UNL     1      45.373   4.965  10.689  0.00  0.00    +0.000 A 
ATOM      5  C   UNL     1      44.734   3.951  11.413  0.00  0.00    +0.000 A 
ATOM      6  C   UNL     1      44.333   2.777  10.767  0.00  0.00    +0.000 A 
ATOM      7  C   UNL     1      44.585   2.599   9.403  0.00  0.00    +0.000 A 
ATOM      8  F   UNL     1      44.126   1.484   8.818  0.00  0.00    +0.000 F 
ATOM      9  C   UNL     1      45.270   3.570   8.677  0.00  0.00    +0.000 A 
ATOM     10  C   UNL     1      45.646   4.756   9.323  0.00  0.00    +0.000 A 
BRANCH   9  11
ATOM     11  O   UNL     1      45.590   3.525   7.339  0.00  0.00    +0.000 OA
BRANCH  11  12
ATOM     12  C   UNL     1      46.966   3.319   6.933  0.00  0.00    +0.000 C 
ATOM     13  C   UNL     1      47.243   2.947   5.463  0.00  0.00    +0.000 C 
ATOM     14  N   UNL     1      48.031   1.779   5.884  0.00  0.00    +0.000 NA
ATOM     15  C   UNL     1      47.549   1.923   7.264  0.00  0.00    +0.000 C 
ATOM     16  H   UNL     1      49.039   1.897   5.783  0.00  0.00    +0.000 HD
ENDBRANCH  11  12
ENDBRANCH   9  11
ENDBRANCH   1   4
BRANCH   1  17
ATOM     17  C   UNL     1      45.780   6.128  12.894  0.00  0.00    +0.000 C 
BRANCH  17  22
ATOM     18  C   UNL     1      48.398   3.964  16.683  0.00  0.00    +0.000 A 
ATOM     19  C   UNL     1      47.483   3.416  15.796  0.00  0.00    +0.000 A 
ATOM     20  C   UNL     1      47.018   4.195  14.736  0.00  0.00    +0.000 A 
ATOM     21  C   UNL     1      47.462   5.501  14.584  0.00  0.00    +0.000 A 
ATOM     22  N   UNL     1      47.111   6.286  13.496  0.00  0.00    +0.000 N 
ATOM     23  N   UNL     1      48.321   6.060  15.459  0.00  0.00    +0.000 NA
ATOM     24  C   UNL     1      48.767   5.289  16.495  0.00  0.00    +0.000 A 
ATOM     25  H   UNL     1      47.437   7.241  13.642  0.00  0.00    +0.000 HD
BRANCH  18  27
ATOM     26  N   UNL     1      48.334   3.265  19.006  0.00  0.00    +0.000 N 
ATOM     27  C   UNL     1      48.974   3.186  17.798  0.00  0.00    +0.000 C 
ATOM     28  O   UNL     1      49.954   2.472  17.643  0.00  0.00    +0.000 OA
ATOM     29  H   UNL     1      48.667   2.648  19.736  0.00  0.00    +0.000 HD
ATOM     30  H   UNL     1      47.403   3.643  19.108  0.00  0.00    +0.000 HD
ENDBRANCH  18  27
ENDBRANCH  17  22
ENDBRANCH   1  17
TORSDOF 6
ENDMDL
MODEL 6
REMARK VINA RESULT:    -6.946      3.077      7.464
REMARK INTER + INTRA:         -10.253
REMARK INTER:                  -9.171
REMARK INTRA:                  -1.081
REMARK UNBOUND:                -0.870
REMARK  Name = 
REMARK  6 active torsions:
REMARK  status: ('A' for Active; 'I' for Inactive)
REMARK    1  A    between atoms: C_2  and  C_4
REMARK    2  A    between atoms: N_8  and  C_9
REMARK    3  A    between atoms: C_9  and  C_10
REMARK    4  A    between atoms: C_10  and  C_13
REMARK    5  A    between atoms: C_18  and  O_19
REMARK    6  A    between atoms: O_19  and  C_20
REMARK                            x       y       z     vdW  Elec       q    Type
REMARK                         _______ _______ _______ _____ _____    ______ ____
ROOT
ATOM      1  C   UNL     1      48.974   7.957  12.257  0.00  0.00    +0.000 C 
ATOM      2  F   UNL     1      49.549   8.905  11.455  0.00  0.00    +0.000 F 
ATOM      3  F   UNL     1      49.617   6.791  11.955  0.00  0.00    +0.000 F 
ENDROOT
BRANCH   1   4
ATOM      4  C   UNL     1      47.473   7.843  12.019  0.00  0.00    +0.000 A 
ATOM      5  C   UNL     1      46.607   8.889  12.359  0.00  0.00    +0.000 A 
ATOM      6  C   UNL     1      45.242   8.787  12.075  0.00  0.00    +0.000 A 
ATOM      7  C   UNL     1      44.730   7.635  11.470  0.00  0.00    +0.000 A 
ATOM      8  F   UNL     1      43.425   7.611  11.162  0.00  0.00    +0.000 F 
ATOM      9  C   UNL     1      45.564   6.559  11.175  0.00  0.00    +0.000 A 
ATOM     10  C   UNL     1      46.936   6.678  11.438  0.00  0.00    +0.000 A 
BRANCH   9  11
ATOM     11  O   UNL     1      45.198   5.369  10.589  0.00  0.00    +0.000 OA
BRANCH  11  12
ATOM     12  C   UNL     1      44.725   4.275  11.413  0.00  0.00    +0.000 C 
ATOM     13  C   UNL     1      44.292   2.971  10.714  0.00  0.00    +0.000 C 
ATOM     14  N   UNL     1      42.998   3.001  11.411  0.00  0.00    +0.000 NA
ATOM     15  C   UNL     1      43.246   4.377  11.860  0.00  0.00    +0.000 C 
ATOM     16  H   UNL     1      42.917   2.326  12.170  0.00  0.00    +0.000 HD
ENDBRANCH  11  12
ENDBRANCH   9  11
ENDBRANCH   1   4
BRANCH   1  17
ATOM     17  C   UNL     1      49.267   8.327  13.731  0.00  0.00    +0.000 C 
BRANCH  17  22
ATOM     18  C   UNL     1      48.201   4.468  16.873  0.00  0.00    +0.000 A 
ATOM     19  C   UNL     1      47.497   4.959  15.784  0.00  0.00    +0.000 A 
ATOM     20  C   UNL     1      48.088   5.937  14.981  0.00  0.00    +0.000 A 
ATOM     21  C   UNL     1      49.356   6.412  15.282  0.00  0.00    +0.000 A 
ATOM     22  N   UNL     1      50.030   7.308  14.466  0.00  0.00    +0.000 N 
ATOM     23  N   UNL     1      50.037   5.972  16.359  0.00  0.00    +0.000 NA
ATOM     24  C   UNL     1      49.448   5.017  17.139  0.00  0.00    +0.000 A 
ATOM     25  H   UNL     1      50.882   7.621  14.929  0.00  0.00    +0.000 HD
BRANCH  18  27
ATOM     26  N   UNL     1      48.349   3.132  18.893  0.00  0.00    +0.000 N 
ATOM     27  C   UNL     1      47.665   3.397  17.737  0.00  0.00    +0.000 C 
ATOM     28  O   UNL     1      46.636   2.800  17.455  0.00  0.00    +0.000 OA
ATOM     29  H   UNL     1      47.920   2.474  19.532  0.00  0.00    +0.000 HD
ATOM     30  H   UNL     1      49.049   3.754  19.270  0.00  0.00    +0.000 HD
ENDBRANCH  18  27
ENDBRANCH  17  22
ENDBRANCH   1  17
TORSDOF 6
ENDMDL
MODEL 7
REMARK VINA RESULT:    -6.748      3.191      4.585
REMARK INTER + INTRA:          -9.986
REMARK INTER:                  -9.287
REMARK INTRA:                  -0.699
REMARK UNBOUND:                -0.870
REMARK  Name = 
REMARK  6 active torsions:
REMARK  status: ('A' for Active; 'I' for Inactive)
REMARK    1  A    between atoms: C_2  and  C_4
REMARK    2  A    between atoms: N_8  and  C_9
REMARK    3  A    between atoms: C_9  and  C_10
REMARK    4  A    between atoms: C_10  and  C_13
REMARK    5  A    between atoms: C_18  and  O_19
REMARK    6  A    between atoms: O_19  and  C_20
REMARK                            x       y       z     vdW  Elec       q    Type
REMARK                         _______ _______ _______ _____ _____    ______ ____
ROOT
ATOM      1  C   UNL     1      47.994   8.223  13.399  0.00  0.00    +0.000 C 
ATOM      2  F   UNL     1      48.413   7.244  12.541  0.00  0.00    +0.000 F 
ATOM      3  F   UNL     1      48.577   9.372  12.948  0.00  0.00    +0.000 F 
ENDROOT
BRANCH   1   4
ATOM      4  C   UNL     1      48.391   7.926  14.840  0.00  0.00    +0.000 A 
ATOM      5  C   UNL     1      48.348   8.924  15.821  0.00  0.00    +0.000 A 
ATOM      6  C   UNL     1      48.658   8.614  17.149  0.00  0.00    +0.000 A 
ATOM      7  C   UNL     1      49.031   7.313  17.503  0.00  0.00    +0.000 A 
ATOM      8  F   UNL     1      49.258   7.052  18.798  0.00  0.00    +0.000 F 
ATOM      9  C   UNL     1      49.135   6.318  16.533  0.00  0.00    +0.000 A 
ATOM     10  C   UNL     1      48.798   6.629  15.209  0.00  0.00    +0.000 A 
BRANCH   9  11
ATOM     11  O   UNL     1      49.494   5.005  16.736  0.00  0.00    +0.000 OA
BRANCH  11  12
ATOM     12  C   UNL     1      48.669   4.151  17.566  0.00  0.00    +0.000 C 
ATOM     13  C   UNL     1      48.060   2.886  16.930  0.00  0.00    +0.000 C 
ATOM     14  N   UNL     1      46.718   3.275  17.386  0.00  0.00    +0.000 NA
ATOM     15  C   UNL     1      47.202   4.617  17.739  0.00  0.00    +0.000 C 
ATOM     16  H   UNL     1      46.375   2.737  18.181  0.00  0.00    +0.000 HD
ENDBRANCH  11  12
ENDBRANCH   9  11
ENDBRANCH   1   4
BRANCH   1  17
ATOM     17  C   UNL     1      46.457   8.354  13.273  0.00  0.00    +0.000 C 
BRANCH  17  22
ATOM     18  C   UNL     1      44.446   4.113  11.305  0.00  0.00    +0.000 A 
ATOM     19  C   UNL     1      44.351   4.643  12.584  0.00  0.00    +0.000 A 
ATOM     20  C   UNL     1      44.870   5.915  12.830  0.00  0.00    +0.000 A 
ATOM     21  C   UNL     1      45.479   6.628  11.808  0.00  0.00    +0.000 A 
ATOM     22  N   UNL     1      45.923   7.932  11.970  0.00  0.00    +0.000 N 
ATOM     23  N   UNL     1      45.614   6.112  10.570  0.00  0.00    +0.000 NA
ATOM     24  C   UNL     1      45.104   4.865  10.342  0.00  0.00    +0.000 A 
ATOM     25  H   UNL     1      46.448   8.222  11.145  0.00  0.00    +0.000 HD
BRANCH  18  27
ATOM     26  N   UNL     1      44.399   2.165   9.860  0.00  0.00    +0.000 N 
ATOM     27  C   UNL     1      43.874   2.798  10.955  0.00  0.00    +0.000 C 
ATOM     28  O   UNL     1      43.002   2.276  11.634  0.00  0.00    +0.000 OA
ATOM     29  H   UNL     1      44.081   1.220   9.687  0.00  0.00    +0.000 HD
ATOM     30  H   UNL     1      45.267   2.448   9.428  0.00  0.00    +0.000 HD
ENDBRANCH  18  27
ENDBRANCH  17  22
ENDBRANCH   1  17
TORSDOF 6
ENDMDL
